MODEL 1
REMARK VINA RESULT:      -8.0      0.000      0.000
REMARK  Name = 
REMARK  9 active torsions:
REMARK  status: ('A' for Active; 'I' for Inactive)
REMARK    1  A    between atoms: C_1  and  C_2
REMARK    2  A    between atoms: C_2  and  N_3
REMARK    3  A    between atoms: N_8  and  C_9
REMARK    4  A    between atoms: C_12  and  O_13
REMARK    5  A    between atoms: O_13  and  C_14
REMARK    6  A    between atoms: C_14  and  C_15
REMARK    7  A    between atoms: C_14  and  C_16
REMARK    8  A    between atoms: N_19  and  C_20
REMARK    9  A    between atoms: C_20  and  C_21
REMARK                            x       y       z     vdW  Elec       q    Type
REMARK                         _______ _______ _______ _____ _____    ______ ____
ROOT
ATOM      1  N   UNL     1       3.598   3.674  19.605  0.00  0.00    +0.000 N 
ATOM      2  C   UNL     1       2.420   4.330  19.851  0.00  0.00    +0.000 A 
ATOM      3  O   UNL     1       1.511   3.794  20.484  0.00  0.00    +0.000 OA
ATOM      4  N   UNL     1       2.278   5.598  19.386  0.00  0.00    +0.000 NA
ATOM      5  C   UNL     1       3.195   6.179  18.687  0.00  0.00    +0.000 A 
ATOM      6  N   UNL     1       2.997   7.469  18.199  0.00  0.00    +0.000 N 
ATOM      7  N   UNL     1       4.387   5.535  18.420  0.00  0.00    +0.000 N 
ATOM      8  C   UNL     1       4.657   4.310  19.004  0.00  0.00    +0.000 A 
ATOM      9  O   UNL     1       5.784   3.811  18.990  0.00  0.00    +0.000 OA
ATOM     10  H   UNL     1       3.141   7.574  17.202  0.00  0.00    +0.000 HD
ENDROOT
BRANCH   6  11
ATOM     11  C   UNL     1       2.024   8.347  18.733  0.00  0.00    +0.000 A 
ATOM     12  C   UNL     1       1.392   9.295  17.920  0.00  0.00    +0.000 A 
ATOM     13  C   UNL     1       0.604  10.304  18.472  0.00  0.00    +0.000 A 
ATOM     14  C   UNL     1       0.388  10.365  19.848  0.00  0.00    +0.000 A 
ATOM     15  C   UNL     1       0.882   9.341  20.651  0.00  0.00    +0.000 A 
ATOM     16  C   UNL     1       1.708   8.343  20.097  0.00  0.00    +0.000 A 
BRANCH  14  17
ATOM     17  O   UNL     1      -0.198  11.522  20.266  0.00  0.00    +0.000 OA
BRANCH  17  18
ATOM     18  C   UNL     1      -1.307  11.498  21.165  0.00  0.00    +0.000 C 
ATOM     19  C   UNL     1      -0.923  11.932  22.578  0.00  0.00    +0.000 C 
ATOM     20  C   UNL     1      -2.296  12.523  20.602  0.00  0.00    +0.000 C 
ENDBRANCH  17  18
ENDBRANCH  14  17
ENDBRANCH   6  11
BRANCH   1  22
ATOM     21  C   UNL     1       3.581   1.267  19.010  0.00  0.00    +0.000 C 
ATOM     22  C   UNL     1       3.770   2.314  20.097  0.00  0.00    +0.000 C 
ENDBRANCH   1  22
BRANCH   7  23
ATOM     23  C   UNL     1       5.480   6.171  17.684  0.00  0.00    +0.000 C 
BRANCH  23  24
ATOM     24  C   UNL     1       5.782   5.526  16.339  0.00  0.00    +0.000 A 
ATOM     25  C   UNL     1       7.106   5.535  15.870  0.00  0.00    +0.000 A 
ATOM     26  C   UNL     1       7.436   4.948  14.645  0.00  0.00    +0.000 A 
ATOM     27  C   UNL     1       6.449   4.329  13.885  0.00  0.00    +0.000 A 
ATOM     28 CL   UNL     1       6.847   3.644  12.359  0.00  0.00    +0.000 Cl
ATOM     29  C   UNL     1       5.142   4.261  14.357  0.00  0.00    +0.000 A 
ATOM     30  C   UNL     1       4.811   4.847  15.583  0.00  0.00    +0.000 A 
ENDBRANCH  23  24
ENDBRANCH   7  23
TORSDOF 6
ENDMDL
MODEL 2
REMARK VINA RESULT:      -7.9      1.170      1.915
REMARK  Name = 
REMARK  9 active torsions:
REMARK  status: ('A' for Active; 'I' for Inactive)
REMARK    1  A    between atoms: C_1  and  C_2
REMARK    2  A    between atoms: C_2  and  N_3
REMARK    3  A    between atoms: N_8  and  C_9
REMARK    4  A    between atoms: C_12  and  O_13
REMARK    5  A    between atoms: O_13  and  C_14
REMARK    6  A    between atoms: C_14  and  C_15
REMARK    7  A    between atoms: C_14  and  C_16
REMARK    8  A    between atoms: N_19  and  C_20
REMARK    9  A    between atoms: C_20  and  C_21
REMARK                            x       y       z     vdW  Elec       q    Type
REMARK                         _______ _______ _______ _____ _____    ______ ____
ROOT
ATOM      1  N   UNL     1       2.747   3.416  19.754  0.00  0.00    +0.000 N 
ATOM      2  C   UNL     1       1.677   4.272  19.736  0.00  0.00    +0.000 A 
ATOM      3  O   UNL     1       0.568   3.917  20.135  0.00  0.00    +0.000 OA
ATOM      4  N   UNL     1       1.870   5.535  19.275  0.00  0.00    +0.000 NA
ATOM      5  C   UNL     1       3.009   5.931  18.815  0.00  0.00    +0.000 A 
ATOM      6  N   UNL     1       3.157   7.225  18.319  0.00  0.00    +0.000 N 
ATOM      7  N   UNL     1       4.100   5.083  18.816  0.00  0.00    +0.000 N 
ATOM      8  C   UNL     1       4.010   3.843  19.423  0.00  0.00    +0.000 A 
ATOM      9  O   UNL     1       5.005   3.155  19.659  0.00  0.00    +0.000 OA
ATOM     10  H   UNL     1       3.541   7.281  17.384  0.00  0.00    +0.000 HD
ENDROOT
BRANCH   6  11
ATOM     11  C   UNL     1       2.257   8.271  18.632  0.00  0.00    +0.000 A 
ATOM     12  C   UNL     1       1.772   8.433  19.935  0.00  0.00    +0.000 A 
ATOM     13  C   UNL     1       0.725   9.312  20.207  0.00  0.00    +0.000 A 
ATOM     14  C   UNL     1       0.165  10.087  19.194  0.00  0.00    +0.000 A 
ATOM     15  C   UNL     1       0.738  10.051  17.926  0.00  0.00    +0.000 A 
ATOM     16  C   UNL     1       1.773   9.137  17.644  0.00  0.00    +0.000 A 
BRANCH  14  17
ATOM     17  O   UNL     1      -0.990  10.717  19.551  0.00  0.00    +0.000 OA
BRANCH  17  18
ATOM     18  C   UNL     1      -1.905  11.185  18.560  0.00  0.00    +0.000 C 
ATOM     19  C   UNL     1      -2.722  10.054  17.938  0.00  0.00    +0.000 C 
ATOM     20  C   UNL     1      -2.865  12.111  19.313  0.00  0.00    +0.000 C 
ENDBRANCH  17  18
ENDBRANCH  14  17
ENDBRANCH   6  11
BRANCH   1  22
ATOM     21  C   UNL     1       2.392   2.000  21.758  0.00  0.00    +0.000 C 
ATOM     22  C   UNL     1       2.561   2.058  20.247  0.00  0.00    +0.000 C 
ENDBRANCH   1  22
BRANCH   7  23
ATOM     23  C   UNL     1       5.425   5.502  18.361  0.00  0.00    +0.000 C 
BRANCH  23  24
ATOM     24  C   UNL     1       5.758   5.077  16.939  0.00  0.00    +0.000 A 
ATOM     25  C   UNL     1       4.799   4.353  16.209  0.00  0.00    +0.000 A 
ATOM     26  C   UNL     1       5.054   3.948  14.897  0.00  0.00    +0.000 A 
ATOM     27  C   UNL     1       6.262   4.279  14.291  0.00  0.00    +0.000 A 
ATOM     28 CL   UNL     1       6.592   3.744  12.690  0.00  0.00    +0.000 Cl
ATOM     29  C   UNL     1       7.203   5.041  14.976  0.00  0.00    +0.000 A 
ATOM     30  C   UNL     1       6.948   5.449  16.289  0.00  0.00    +0.000 A 
ENDBRANCH  23  24
ENDBRANCH   7  23
TORSDOF 6
ENDMDL
MODEL 3
REMARK VINA RESULT:      -7.9      2.881      5.018
REMARK  Name = 
REMARK  9 active torsions:
REMARK  status: ('A' for Active; 'I' for Inactive)
REMARK    1  A    between atoms: C_1  and  C_2
REMARK    2  A    between atoms: C_2  and  N_3
REMARK    3  A    between atoms: N_8  and  C_9
REMARK    4  A    between atoms: C_12  and  O_13
REMARK    5  A    between atoms: O_13  and  C_14
REMARK    6  A    between atoms: C_14  and  C_15
REMARK    7  A    between atoms: C_14  and  C_16
REMARK    8  A    between atoms: N_19  and  C_20
REMARK    9  A    between atoms: C_20  and  C_21
REMARK                            x       y       z     vdW  Elec       q    Type
REMARK                         _______ _______ _______ _____ _____    ______ ____
ROOT
ATOM      1  N   UNL     1       6.208   5.373  16.317  0.00  0.00    +0.000 N 
ATOM      2  C   UNL     1       6.036   6.596  16.912  0.00  0.00    +0.000 A 
ATOM      3  O   UNL     1       6.915   7.456  16.867  0.00  0.00    +0.000 OA
ATOM      4  N   UNL     1       4.863   6.844  17.549  0.00  0.00    +0.000 NA
ATOM      5  C   UNL     1       3.933   5.953  17.647  0.00  0.00    +0.000 A 
ATOM      6  N   UNL     1       2.757   6.236  18.338  0.00  0.00    +0.000 N 
ATOM      7  N   UNL     1       4.087   4.711  17.062  0.00  0.00    +0.000 N 
ATOM      8  C   UNL     1       5.186   4.456  16.262  0.00  0.00    +0.000 A 
ATOM      9  O   UNL     1       5.251   3.462  15.534  0.00  0.00    +0.000 OA
ATOM     10  H   UNL     1       2.516   5.568  19.060  0.00  0.00    +0.000 HD
ENDROOT
BRANCH   6  11
ATOM     11  C   UNL     1       2.332   7.557  18.616  0.00  0.00    +0.000 A 
ATOM     12  C   UNL     1       1.837   7.899  19.879  0.00  0.00    +0.000 A 
ATOM     13  C   UNL     1       1.215   9.127  20.098  0.00  0.00    +0.000 A 
ATOM     14  C   UNL     1       1.110  10.065  19.072  0.00  0.00    +0.000 A 
ATOM     15  C   UNL     1       1.733   9.800  17.856  0.00  0.00    +0.000 A 
ATOM     16  C   UNL     1       2.331   8.546  17.625  0.00  0.00    +0.000 A 
BRANCH  14  17
ATOM     17  O   UNL     1       0.280  11.108  19.356  0.00  0.00    +0.000 OA
BRANCH  17  18
ATOM     18  C   UNL     1      -1.097  10.887  19.659  0.00  0.00    +0.000 C 
ATOM     19  C   UNL     1      -1.786  12.140  20.197  0.00  0.00    +0.000 C 
ATOM     20  C   UNL     1      -1.744  10.523  18.319  0.00  0.00    +0.000 C 
ENDBRANCH  17  18
ENDBRANCH  14  17
ENDBRANCH   6  11
BRANCH   1  22
ATOM     21  C   UNL     1       7.330   5.183  14.114  0.00  0.00    +0.000 C 
ATOM     22  C   UNL     1       7.459   5.089  15.627  0.00  0.00    +0.000 C 
ENDBRANCH   1  22
BRANCH   7  23
ATOM     23  C   UNL     1       3.041   3.689  17.094  0.00  0.00    +0.000 C 
BRANCH  23  24
ATOM     24  C   UNL     1       2.571   3.324  18.494  0.00  0.00    +0.000 A 
ATOM     25  C   UNL     1       1.190   3.259  18.746  0.00  0.00    +0.000 A 
ATOM     26  C   UNL     1       0.709   2.919  20.013  0.00  0.00    +0.000 A 
ATOM     27  C   UNL     1       1.602   2.621  21.037  0.00  0.00    +0.000 A 
ATOM     28 CL   UNL     1       1.009   2.244  22.607  0.00  0.00    +0.000 Cl
ATOM     29  C   UNL     1       2.972   2.626  20.795  0.00  0.00    +0.000 A 
ATOM     30  C   UNL     1       3.455   2.964  19.526  0.00  0.00    +0.000 A 
ENDBRANCH  23  24
ENDBRANCH   7  23
TORSDOF 6
ENDMDL
MODEL 4
REMARK VINA RESULT:      -7.8      0.738      1.287
REMARK  Name = 
REMARK  9 active torsions:
REMARK  status: ('A' for Active; 'I' for Inactive)
REMARK    1  A    between atoms: C_1  and  C_2
REMARK    2  A    between atoms: C_2  and  N_3
REMARK    3  A    between atoms: N_8  and  C_9
REMARK    4  A    between atoms: C_12  and  O_13
REMARK    5  A    between atoms: O_13  and  C_14
REMARK    6  A    between atoms: C_14  and  C_15
REMARK    7  A    between atoms: C_14  and  C_16
REMARK    8  A    between atoms: N_19  and  C_20
REMARK    9  A    between atoms: C_20  and  C_21
REMARK                            x       y       z     vdW  Elec       q    Type
REMARK                         _______ _______ _______ _____ _____    ______ ____
ROOT
ATOM      1  N   UNL     1       3.434   3.650  19.629  0.00  0.00    +0.000 N 
ATOM      2  C   UNL     1       2.243   4.306  19.804  0.00  0.00    +0.000 A 
ATOM      3  O   UNL     1       1.290   3.761  20.359  0.00  0.00    +0.000 OA
ATOM      4  N   UNL     1       2.139   5.584  19.357  0.00  0.00    +0.000 NA
ATOM      5  C   UNL     1       3.105   6.176  18.739  0.00  0.00    +0.000 A 
ATOM      6  N   UNL     1       2.946   7.477  18.265  0.00  0.00    +0.000 N 
ATOM      7  N   UNL     1       4.312   5.532  18.544  0.00  0.00    +0.000 N 
ATOM      8  C   UNL     1       4.535   4.294  19.119  0.00  0.00    +0.000 A 
ATOM      9  O   UNL     1       5.659   3.791  19.176  0.00  0.00    +0.000 OA
ATOM     10  H   UNL     1       3.162   7.602  17.284  0.00  0.00    +0.000 HD
ENDROOT
BRANCH   6  11
ATOM     11  C   UNL     1       1.940   8.348  18.747  0.00  0.00    +0.000 A 
ATOM     12  C   UNL     1       1.219   9.164  17.868  0.00  0.00    +0.000 A 
ATOM     13  C   UNL     1       0.389  10.177  18.346  0.00  0.00    +0.000 A 
ATOM     14  C   UNL     1       0.222  10.373  19.715  0.00  0.00    +0.000 A 
ATOM     15  C   UNL     1       0.810   9.473  20.599  0.00  0.00    +0.000 A 
ATOM     16  C   UNL     1       1.676   8.471  20.116  0.00  0.00    +0.000 A 
BRANCH  14  17
ATOM     17  O   UNL     1      -0.420  11.531  20.036  0.00  0.00    +0.000 OA
BRANCH  17  18
ATOM     18  C   UNL     1       0.306  12.661  20.520  0.00  0.00    +0.000 C 
ATOM     19  C   UNL     1       0.091  13.906  19.661  0.00  0.00    +0.000 C 
ATOM     20  C   UNL     1      -0.269  12.935  21.913  0.00  0.00    +0.000 C 
ENDBRANCH  17  18
ENDBRANCH  14  17
ENDBRANCH   6  11
BRANCH   1  22
ATOM     21  C   UNL     1       3.547   1.262  18.973  0.00  0.00    +0.000 C 
ATOM     22  C   UNL     1       3.566   2.280  20.104  0.00  0.00    +0.000 C 
ENDBRANCH   1  22
BRANCH   7  23
ATOM     23  C   UNL     1       5.456   6.178  17.901  0.00  0.00    +0.000 C 
BRANCH  23  24
ATOM     24  C   UNL     1       5.841   5.571  16.561  0.00  0.00    +0.000 A 
ATOM     25  C   UNL     1       4.826   5.061  15.734  0.00  0.00    +0.000 A 
ATOM     26  C   UNL     1       5.128   4.502  14.490  0.00  0.00    +0.000 A 
ATOM     27  C   UNL     1       6.448   4.463  14.050  0.00  0.00    +0.000 A 
ATOM     28 CL   UNL     1       6.824   3.737  12.537  0.00  0.00    +0.000 Cl
ATOM     29  C   UNL     1       7.462   5.012  14.828  0.00  0.00    +0.000 A 
ATOM     30  C   UNL     1       7.160   5.574  16.073  0.00  0.00    +0.000 A 
ENDBRANCH  23  24
ENDBRANCH   7  23
TORSDOF 6
ENDMDL
MODEL 5
REMARK VINA RESULT:      -7.8      0.548      1.509
REMARK  Name = 
REMARK  9 active torsions:
REMARK  status: ('A' for Active; 'I' for Inactive)
REMARK    1  A    between atoms: C_1  and  C_2
REMARK    2  A    between atoms: C_2  and  N_3
REMARK    3  A    between atoms: N_8  and  C_9
REMARK    4  A    between atoms: C_12  and  O_13
REMARK    5  A    between atoms: O_13  and  C_14
REMARK    6  A    between atoms: C_14  and  C_15
REMARK    7  A    between atoms: C_14  and  C_16
REMARK    8  A    between atoms: N_19  and  C_20
REMARK    9  A    between atoms: C_20  and  C_21
REMARK                            x       y       z     vdW  Elec       q    Type
REMARK                         _______ _______ _______ _____ _____    ______ ____
ROOT
ATOM      1  N   UNL     1       3.366   3.769  19.664  0.00  0.00    +0.000 N 
ATOM      2  C   UNL     1       2.214   4.497  19.813  0.00  0.00    +0.000 A 
ATOM      3  O   UNL     1       1.228   4.022  20.375  0.00  0.00    +0.000 OA
ATOM      4  N   UNL     1       2.187   5.767  19.333  0.00  0.00    +0.000 NA
ATOM      5  C   UNL     1       3.189   6.285  18.706  0.00  0.00    +0.000 A 
ATOM      6  N   UNL     1       3.109   7.580  18.198  0.00  0.00    +0.000 N 
ATOM      7  N   UNL     1       4.358   5.568  18.537  0.00  0.00    +0.000 N 
ATOM      8  C   UNL     1       4.505   4.335  19.145  0.00  0.00    +0.000 A 
ATOM      9  O   UNL     1       5.598   3.769  19.224  0.00  0.00    +0.000 OA
ATOM     10  H   UNL     1       3.337   7.667  17.216  0.00  0.00    +0.000 HD
ENDROOT
BRANCH   6  11
ATOM     11  C   UNL     1       2.152   8.520  18.650  0.00  0.00    +0.000 A 
ATOM     12  C   UNL     1       1.690   8.494  19.970  0.00  0.00    +0.000 A 
ATOM     13  C   UNL     1       0.596   9.264  20.364  0.00  0.00    +0.000 A 
ATOM     14  C   UNL     1      -0.037  10.115  19.460  0.00  0.00    +0.000 A 
ATOM     15  C   UNL     1       0.507  10.266  18.187  0.00  0.00    +0.000 A 
ATOM     16  C   UNL     1       1.590   9.463  17.780  0.00  0.00    +0.000 A 
BRANCH  14  17
ATOM     17  O   UNL     1      -1.220  10.620  19.908  0.00  0.00    +0.000 OA
BRANCH  17  18
ATOM     18  C   UNL     1      -1.479  12.023  19.869  0.00  0.00    +0.000 C 
ATOM     19  C   UNL     1      -2.973  12.342  19.865  0.00  0.00    +0.000 C 
ATOM     20  C   UNL     1      -0.877  12.574  21.165  0.00  0.00    +0.000 C 
ENDBRANCH  17  18
ENDBRANCH  14  17
ENDBRANCH   6  11
BRANCH   1  22
ATOM     21  C   UNL     1       3.277   1.362  19.077  0.00  0.00    +0.000 C 
ATOM     22  C   UNL     1       3.416   2.406  20.174  0.00  0.00    +0.000 C 
ENDBRANCH   1  22
BRANCH   7  23
ATOM     23  C   UNL     1       5.541   6.130  17.887  0.00  0.00    +0.000 C 
BRANCH  23  24
ATOM     24  C   UNL     1       5.871   5.499  16.542  0.00  0.00    +0.000 A 
ATOM     25  C   UNL     1       4.819   5.009  15.751  0.00  0.00    +0.000 A 
ATOM     26  C   UNL     1       5.070   4.429  14.505  0.00  0.00    +0.000 A 
ATOM     27  C   UNL     1       6.374   4.350  14.027  0.00  0.00    +0.000 A 
ATOM     28 CL   UNL     1       6.687   3.597  12.512  0.00  0.00    +0.000 Cl
ATOM     29  C   UNL     1       7.425   4.877  14.770  0.00  0.00    +0.000 A 
ATOM     30  C   UNL     1       7.175   5.460  16.017  0.00  0.00    +0.000 A 
ENDBRANCH  23  24
ENDBRANCH   7  23
TORSDOF 6
ENDMDL
MODEL 6
REMARK VINA RESULT:      -7.7      1.022      1.197
REMARK  Name = 
REMARK  9 active torsions:
REMARK  status: ('A' for Active; 'I' for Inactive)
REMARK    1  A    between atoms: C_1  and  C_2
REMARK    2  A    between atoms: C_2  and  N_3
REMARK    3  A    between atoms: N_8  and  C_9
REMARK    4  A    between atoms: C_12  and  O_13
REMARK    5  A    between atoms: O_13  and  C_14
REMARK    6  A    between atoms: C_14  and  C_15
REMARK    7  A    between atoms: C_14  and  C_16
REMARK    8  A    between atoms: N_19  and  C_20
REMARK    9  A    between atoms: C_20  and  C_21
REMARK                            x       y       z     vdW  Elec       q    Type
REMARK                         _______ _______ _______ _____ _____    ______ ____
ROOT
ATOM      1  N   UNL     1       3.056   3.540  19.602  0.00  0.00    +0.000 N 
ATOM      2  C   UNL     1       1.886   4.248  19.684  0.00  0.00    +0.000 A 
ATOM      3  O   UNL     1       0.843   3.715  20.064  0.00  0.00    +0.000 OA
ATOM      4  N   UNL     1       1.901   5.562  19.343  0.00  0.00    +0.000 NA
ATOM      5  C   UNL     1       2.966   6.145  18.906  0.00  0.00    +0.000 A 
ATOM      6  N   UNL     1       2.932   7.488  18.535  0.00  0.00    +0.000 N 
ATOM      7  N   UNL     1       4.156   5.451  18.807  0.00  0.00    +0.000 N 
ATOM      8  C   UNL     1       4.244   4.158  19.293  0.00  0.00    +0.000 A 
ATOM      9  O   UNL     1       5.326   3.587  19.446  0.00  0.00    +0.000 OA
ATOM     10  H   UNL     1       3.279   7.681  17.603  0.00  0.00    +0.000 HD
ENDROOT
BRANCH   6  11
ATOM     11  C   UNL     1       1.915   8.374  18.962  0.00  0.00    +0.000 A 
ATOM     12  C   UNL     1       1.311   9.258  18.061  0.00  0.00    +0.000 A 
ATOM     13  C   UNL     1       0.474  10.279  18.509  0.00  0.00    +0.000 A 
ATOM     14  C   UNL     1       0.181  10.416  19.865  0.00  0.00    +0.000 A 
ATOM     15  C   UNL     1       0.649   9.451  20.753  0.00  0.00    +0.000 A 
ATOM     16  C   UNL     1       1.523   8.441  20.304  0.00  0.00    +0.000 A 
BRANCH  14  17
ATOM     17  O   UNL     1      -0.449  11.582  20.182  0.00  0.00    +0.000 OA
BRANCH  17  18
ATOM     18  C   UNL     1       0.093  12.840  19.779  0.00  0.00    +0.000 C 
ATOM     19  C   UNL     1      -0.949  13.957  19.797  0.00  0.00    +0.000 C 
ATOM     20  C   UNL     1       1.161  13.165  20.828  0.00  0.00    +0.000 C 
ENDBRANCH  17  18
ENDBRANCH  14  17
ENDBRANCH   6  11
BRANCH   1  22
ATOM     21  C   UNL     1       3.305   1.217  18.772  0.00  0.00    +0.000 C 
ATOM     22  C   UNL     1       3.061   2.130  19.965  0.00  0.00    +0.000 C 
ENDBRANCH   1  22
BRANCH   7  23
ATOM     23  C   UNL     1       5.404   6.080  18.374  0.00  0.00    +0.000 C 
BRANCH  23  24
ATOM     24  C   UNL     1       5.836   5.700  16.966  0.00  0.00    +0.000 A 
ATOM     25  C   UNL     1       7.041   4.998  16.796  0.00  0.00    +0.000 A 
ATOM     26  C   UNL     1       7.476   4.618  15.524  0.00  0.00    +0.000 A 
ATOM     27  C   UNL     1       6.702   4.919  14.408  0.00  0.00    +0.000 A 
ATOM     28 CL   UNL     1       7.259   4.489  12.839  0.00  0.00    +0.000 Cl
ATOM     29  C   UNL     1       5.479   5.565  14.558  0.00  0.00    +0.000 A 
ATOM     30  C   UNL     1       5.041   5.944  15.832  0.00  0.00    +0.000 A 
ENDBRANCH  23  24
ENDBRANCH   7  23
TORSDOF 6
ENDMDL
MODEL 7
REMARK VINA RESULT:      -7.7      2.961      5.081
REMARK  Name = 
REMARK  9 active torsions:
REMARK  status: ('A' for Active; 'I' for Inactive)
REMARK    1  A    between atoms: C_1  and  C_2
REMARK    2  A    between atoms: C_2  and  N_3
REMARK    3  A    between atoms: N_8  and  C_9
REMARK    4  A    between atoms: C_12  and  O_13
REMARK    5  A    between atoms: O_13  and  C_14
REMARK    6  A    between atoms: C_14  and  C_15
REMARK    7  A    between atoms: C_14  and  C_16
REMARK    8  A    between atoms: N_19  and  C_20
REMARK    9  A    between atoms: C_20  and  C_21
REMARK                            x       y       z     vdW  Elec       q    Type
REMARK                         _______ _______ _______ _____ _____    ______ ____
ROOT
ATOM      1  N   UNL     1       6.211   5.373  16.301  0.00  0.00    +0.000 N 
ATOM      2  C   UNL     1       6.027   6.594  16.896  0.00  0.00    +0.000 A 
ATOM      3  O   UNL     1       6.895   7.466  16.846  0.00  0.00    +0.000 OA
ATOM      4  N   UNL     1       4.855   6.828  17.540  0.00  0.00    +0.000 NA
ATOM      5  C   UNL     1       3.937   5.926  17.644  0.00  0.00    +0.000 A 
ATOM      6  N   UNL     1       2.762   6.194  18.343  0.00  0.00    +0.000 N 
ATOM      7  N   UNL     1       4.103   4.685  17.059  0.00  0.00    +0.000 N 
ATOM      8  C   UNL     1       5.201   4.444  16.253  0.00  0.00    +0.000 A 
ATOM      9  O   UNL     1       5.274   3.451  15.525  0.00  0.00    +0.000 OA
ATOM     10  H   UNL     1       2.534   5.524  19.066  0.00  0.00    +0.000 HD
ENDROOT
BRANCH   6  11
ATOM     11  C   UNL     1       2.322   7.510  18.622  0.00  0.00    +0.000 A 
ATOM     12  C   UNL     1       1.877   7.859  19.902  0.00  0.00    +0.000 A 
ATOM     13  C   UNL     1       1.239   9.077  20.133  0.00  0.00    +0.000 A 
ATOM     14  C   UNL     1       1.069   9.998  19.101  0.00  0.00    +0.000 A 
ATOM     15  C   UNL     1       1.642   9.730  17.861  0.00  0.00    +0.000 A 
ATOM     16  C   UNL     1       2.256   8.485  17.619  0.00  0.00    +0.000 A 
BRANCH  14  17
ATOM     17  O   UNL     1       0.231  11.028  19.408  0.00  0.00    +0.000 OA
BRANCH  17  18
ATOM     18  C   UNL     1       0.683  12.381  19.352  0.00  0.00    +0.000 C 
ATOM     19  C   UNL     1      -0.324  13.305  18.669  0.00  0.00    +0.000 C 
ATOM     20  C   UNL     1       0.816  12.816  20.815  0.00  0.00    +0.000 C 
ENDBRANCH  17  18
ENDBRANCH  14  17
ENDBRANCH   6  11
BRANCH   1  22
ATOM     21  C   UNL     1       7.327   5.217  14.093  0.00  0.00    +0.000 C 
ATOM     22  C   UNL     1       7.461   5.104  15.604  0.00  0.00    +0.000 C 
ENDBRANCH   1  22
BRANCH   7  23
ATOM     23  C   UNL     1       3.071   3.650  17.098  0.00  0.00    +0.000 C 
BRANCH  23  24
ATOM     24  C   UNL     1       2.588   3.306  18.499  0.00  0.00    +0.000 A 
ATOM     25  C   UNL     1       1.205   3.250  18.741  0.00  0.00    +0.000 A 
ATOM     26  C   UNL     1       0.712   2.929  20.008  0.00  0.00    +0.000 A 
ATOM     27  C   UNL     1       1.595   2.641  21.043  0.00  0.00    +0.000 A 
ATOM     28 CL   UNL     1       0.989   2.287  22.613  0.00  0.00    +0.000 Cl
ATOM     29  C   UNL     1       2.967   2.637  20.812  0.00  0.00    +0.000 A 
ATOM     30  C   UNL     1       3.462   2.956  19.543  0.00  0.00    +0.000 A 
ENDBRANCH  23  24
ENDBRANCH   7  23
TORSDOF 6
ENDMDL
MODEL 8
REMARK VINA RESULT:      -7.7      2.960      4.969
REMARK  Name = 
REMARK  9 active torsions:
REMARK  status: ('A' for Active; 'I' for Inactive)
REMARK    1  A    between atoms: C_1  and  C_2
REMARK    2  A    between atoms: C_2  and  N_3
REMARK    3  A    between atoms: N_8  and  C_9
REMARK    4  A    between atoms: C_12  and  O_13
REMARK    5  A    between atoms: O_13  and  C_14
REMARK    6  A    between atoms: C_14  and  C_15
REMARK    7  A    between atoms: C_14  and  C_16
REMARK    8  A    between atoms: N_19  and  C_20
REMARK    9  A    between atoms: C_20  and  C_21
REMARK                            x       y       z     vdW  Elec       q    Type
REMARK                         _______ _______ _______ _____ _____    ______ ____
ROOT
ATOM      1  N   UNL     1       6.196   5.385  16.313  0.00  0.00    +0.000 N 
ATOM      2  C   UNL     1       6.009   6.590  16.940  0.00  0.00    +0.000 A 
ATOM      3  O   UNL     1       6.883   7.457  16.929  0.00  0.00    +0.000 OA
ATOM      4  N   UNL     1       4.828   6.812  17.571  0.00  0.00    +0.000 NA
ATOM      5  C   UNL     1       3.904   5.913  17.635  0.00  0.00    +0.000 A 
ATOM      6  N   UNL     1       2.719   6.169  18.321  0.00  0.00    +0.000 N 
ATOM      7  N   UNL     1       4.072   4.689  17.017  0.00  0.00    +0.000 N 
ATOM      8  C   UNL     1       5.181   4.464  16.221  0.00  0.00    +0.000 A 
ATOM      9  O   UNL     1       5.261   3.491  15.467  0.00  0.00    +0.000 OA
ATOM     10  H   UNL     1       2.475   5.479  19.021  0.00  0.00    +0.000 HD
ENDROOT
BRANCH   6  11
ATOM     11  C   UNL     1       2.282   7.479  18.631  0.00  0.00    +0.000 A 
ATOM     12  C   UNL     1       1.912   7.820  19.937  0.00  0.00    +0.000 A 
ATOM     13  C   UNL     1       1.276   9.030  20.210  0.00  0.00    +0.000 A 
ATOM     14  C   UNL     1       1.032   9.951  19.193  0.00  0.00    +0.000 A 
ATOM     15  C   UNL     1       1.532   9.693  17.920  0.00  0.00    +0.000 A 
ATOM     16  C   UNL     1       2.143   8.455  17.637  0.00  0.00    +0.000 A 
BRANCH  14  17
ATOM     17  O   UNL     1       0.203  10.970  19.555  0.00  0.00    +0.000 OA
BRANCH  17  18
ATOM     18  C   UNL     1      -0.551  11.684  18.575  0.00  0.00    +0.000 C 
ATOM     19  C   UNL     1      -2.027  11.804  18.947  0.00  0.00    +0.000 C 
ATOM     20  C   UNL     1       0.054  13.091  18.556  0.00  0.00    +0.000 C 
ENDBRANCH  17  18
ENDBRANCH  14  17
ENDBRANCH   6  11
BRANCH   1  22
ATOM     21  C   UNL     1       7.330   5.212  14.115  0.00  0.00    +0.000 C 
ATOM     22  C   UNL     1       7.456   5.129  15.629  0.00  0.00    +0.000 C 
ENDBRANCH   1  22
BRANCH   7  23
ATOM     23  C   UNL     1       3.034   3.659  17.009  0.00  0.00    +0.000 C 
BRANCH  23  24
ATOM     24  C   UNL     1       2.516   3.288  18.391  0.00  0.00    +0.000 A 
ATOM     25  C   UNL     1       3.444   2.941  19.387  0.00  0.00    +0.000 A 
ATOM     26  C   UNL     1       3.019   2.601  20.674  0.00  0.00    +0.000 A 
ATOM     27  C   UNL     1       1.662   2.622  20.985  0.00  0.00    +0.000 A 
ATOM     28 CL   UNL     1       1.137   2.162  22.557  0.00  0.00    +0.000 Cl
ATOM     29  C   UNL     1       0.732   3.015  20.029  0.00  0.00    +0.000 A 
ATOM     30  C   UNL     1       1.156   3.358  18.741  0.00  0.00    +0.000 A 
ENDBRANCH  23  24
ENDBRANCH   7  23
TORSDOF 6
ENDMDL
MODEL 9
REMARK VINA RESULT:      -7.6      0.544      1.046
REMARK  Name = 
REMARK  9 active torsions:
REMARK  status: ('A' for Active; 'I' for Inactive)
REMARK    1  A    between atoms: C_1  and  C_2
REMARK    2  A    between atoms: C_2  and  N_3
REMARK    3  A    between atoms: N_8  and  C_9
REMARK    4  A    between atoms: C_12  and  O_13
REMARK    5  A    between atoms: O_13  and  C_14
REMARK    6  A    between atoms: C_14  and  C_15
REMARK    7  A    between atoms: C_14  and  C_16
REMARK    8  A    between atoms: N_19  and  C_20
REMARK    9  A    between atoms: C_20  and  C_21
REMARK                            x       y       z     vdW  Elec       q    Type
REMARK                         _______ _______ _______ _____ _____    ______ ____
ROOT
ATOM      1  N   UNL     1       3.391   3.709  19.625  0.00  0.00    +0.000 N 
ATOM      2  C   UNL     1       2.238   4.419  19.839  0.00  0.00    +0.000 A 
ATOM      3  O   UNL     1       1.284   3.923  20.437  0.00  0.00    +0.000 OA
ATOM      4  N   UNL     1       2.173   5.696  19.381  0.00  0.00    +0.000 NA
ATOM      5  C   UNL     1       3.139   6.238  18.719  0.00  0.00    +0.000 A 
ATOM      6  N   UNL     1       3.020   7.540  18.237  0.00  0.00    +0.000 N 
ATOM      7  N   UNL     1       4.308   5.539  18.484  0.00  0.00    +0.000 N 
ATOM      8  C   UNL     1       4.498   4.298  19.065  0.00  0.00    +0.000 A 
ATOM      9  O   UNL     1       5.600   3.745  19.084  0.00  0.00    +0.000 OA
ATOM     10  H   UNL     1       3.202   7.645  17.246  0.00  0.00    +0.000 HD
ENDROOT
BRANCH   6  11
ATOM     11  C   UNL     1       2.073   8.460  18.746  0.00  0.00    +0.000 A 
ATOM     12  C   UNL     1       1.781   8.502  20.114  0.00  0.00    +0.000 A 
ATOM     13  C   UNL     1       0.701   9.242  20.595  0.00  0.00    +0.000 A 
ATOM     14  C   UNL     1      -0.088   9.995  19.728  0.00  0.00    +0.000 A 
ATOM     15  C   UNL     1       0.284  10.085  18.389  0.00  0.00    +0.000 A 
ATOM     16  C   UNL     1       1.354   9.310  17.898  0.00  0.00    +0.000 A 
BRANCH  14  17
ATOM     17  O   UNL     1      -1.234  10.470  20.291  0.00  0.00    +0.000 OA
BRANCH  17  18
ATOM     18  C   UNL     1      -1.339  11.834  20.698  0.00  0.00    +0.000 C 
ATOM     19  C   UNL     1       0.025  12.482  20.927  0.00  0.00    +0.000 C 
ATOM     20  C   UNL     1      -2.016  12.548  19.523  0.00  0.00    +0.000 C 
ENDBRANCH  17  18
ENDBRANCH  14  17
ENDBRANCH   6  11
BRANCH   1  22
ATOM     21  C   UNL     1       3.420   1.313  18.988  0.00  0.00    +0.000 C 
ATOM     22  C   UNL     1       3.480   2.339  20.110  0.00  0.00    +0.000 C 
ENDBRANCH   1  22
BRANCH   7  23
ATOM     23  C   UNL     1       5.453   6.127  17.791  0.00  0.00    +0.000 C 
BRANCH  23  24
ATOM     24  C   UNL     1       5.745   5.504  16.434  0.00  0.00    +0.000 A 
ATOM     25  C   UNL     1       7.068   5.508  15.961  0.00  0.00    +0.000 A 
ATOM     26  C   UNL     1       7.389   4.941  14.725  0.00  0.00    +0.000 A 
ATOM     27  C   UNL     1       6.393   4.346  13.956  0.00  0.00    +0.000 A 
ATOM     28 CL   UNL     1       6.780   3.686  12.416  0.00  0.00    +0.000 Cl
ATOM     29  C   UNL     1       5.087   4.284  14.429  0.00  0.00    +0.000 A 
ATOM     30  C   UNL     1       4.765   4.849  15.668  0.00  0.00    +0.000 A 
ENDBRANCH  23  24
ENDBRANCH   7  23
TORSDOF 6
ENDMDL
