MODEL 1
REMARK VINA RESULT:      -6.4      0.000      0.000
REMARK  Name = 
REMARK  7 active torsions:
REMARK  status: ('A' for Active; 'I' for Inactive)
REMARK    1  A    between atoms: C_1  and  O_2
REMARK    2  A    between atoms: O_2  and  C_3
REMARK    3  A    between atoms: C_4  and  N_5
REMARK    4  A    between atoms: C_13  and  N_14
REMARK    5  A    between atoms: C_20  and  C_21
REMARK    6  A    between atoms: C_21  and  O_23
REMARK    7  A    between atoms: N_25  and  C_26
REMARK                            x       y       z     vdW  Elec       q    Type
REMARK                         _______ _______ _______ _____ _____    ______ ____
ROOT
ATOM      1  C   UNL     1      -3.643  12.131  19.436  0.00  0.00    +0.000 A 
ATOM      2  C   UNL     1      -3.844  12.773  20.714  0.00  0.00    +0.000 A 
ATOM      3  C   UNL     1      -2.780  12.702  21.628  0.00  0.00    +0.000 A 
ATOM      4  F   UNL     1      -2.899  13.275  22.838  0.00  0.00    +0.000 F 
ATOM      5  C   UNL     1      -1.596  12.048  21.314  0.00  0.00    +0.000 A 
ATOM      6  C   UNL     1      -1.392  11.426  20.077  0.00  0.00    +0.000 A 
ATOM      7  C   UNL     1      -0.123  10.680  19.807  0.00  0.00    +0.000 A 
ATOM      8  O   UNL     1       0.688  10.424  20.694  0.00  0.00    +0.000 OA
ATOM      9  C   UNL     1       0.148  10.212  18.452  0.00  0.00    +0.000 A 
ATOM     10  C   UNL     1      -0.830  10.385  17.554  0.00  0.00    +0.000 A 
ATOM     11  N   UNL     1      -2.074  10.954  17.765  0.00  0.00    +0.000 N 
ATOM     12  C   UNL     1      -2.403  11.489  19.073  0.00  0.00    +0.000 A 
ENDROOT
BRANCH   2  13
ATOM     13  N   UNL     1      -5.005  13.495  21.012  0.00  0.00    +0.000 N 
ATOM     14  C   UNL     1      -5.104  14.957  20.832  0.00  0.00    +0.000 C 
ATOM     15  C   UNL     1      -6.435  15.316  20.150  0.00  0.00    +0.000 C 
ATOM     16  S   UNL     1      -7.916  14.744  21.066  0.00  0.00    +0.000 S 
ATOM     17  C   UNL     1      -7.385  13.022  21.389  0.00  0.00    +0.000 C 
ATOM     18  C   UNL     1      -5.975  12.977  21.986  0.00  0.00    +0.000 C 
ENDBRANCH   2  13
BRANCH   5  19
ATOM     19  N   UNL     1      -0.547  12.161  22.297  0.00  0.00    +0.000 N 
ATOM     20  O   UNL     1      -0.530  11.318  23.200  0.00  0.00    +0.000 OA
ATOM     21  O   UNL     1       0.216  13.131  22.182  0.00  0.00    +0.000 OA
ENDBRANCH   5  19
BRANCH  11  22
ATOM     22  C   UNL     1      -2.988  10.996  16.590  0.00  0.00    +0.000 C 
ATOM     23  C   UNL     1      -2.758  10.480  15.185  0.00  0.00    +0.000 C 
ATOM     24  C   UNL     1      -3.598   9.679  16.117  0.00  0.00    +0.000 C 
ENDBRANCH  11  22
BRANCH   1  26
ATOM     25  C   UNL     1      -5.721  11.419  18.567  0.00  0.00    +0.000 C 
ATOM     26  O   UNL     1      -4.645  12.355  18.508  0.00  0.00    +0.000 OA
ENDBRANCH   1  26
BRANCH   9  27
ATOM     27  C   UNL     1       1.394   9.548  18.003  0.00  0.00    +0.000 C 
ATOM     28  O   UNL     1       1.633   8.362  18.176  0.00  0.00    +0.000 OA
BRANCH  27  29
ATOM     29  O   UNL     1       2.260  10.370  17.365  0.00  0.00    +0.000 OA
ATOM     30  H   UNL     1       2.539  11.156  17.891  0.00  0.00    +0.000 HD
ENDBRANCH  27  29
ENDBRANCH   9  27
TORSDOF 6
ENDMDL
MODEL 2
REMARK VINA RESULT:      -6.1      2.559      4.030
REMARK  Name = 
REMARK  7 active torsions:
REMARK  status: ('A' for Active; 'I' for Inactive)
REMARK    1  A    between atoms: C_1  and  O_2
REMARK    2  A    between atoms: O_2  and  C_3
REMARK    3  A    between atoms: C_4  and  N_5
REMARK    4  A    between atoms: C_13  and  N_14
REMARK    5  A    between atoms: C_20  and  C_21
REMARK    6  A    between atoms: C_21  and  O_23
REMARK    7  A    between atoms: N_25  and  C_26
REMARK                            x       y       z     vdW  Elec       q    Type
REMARK                         _______ _______ _______ _____ _____    ______ ____
ROOT
ATOM      1  C   UNL     1      -3.649  12.562  20.186  0.00  0.00    +0.000 A 
ATOM      2  C   UNL     1      -2.528  12.552  21.096  0.00  0.00    +0.000 A 
ATOM      3  C   UNL     1      -1.371  11.884  20.660  0.00  0.00    +0.000 A 
ATOM      4  F   UNL     1      -0.289  11.834  21.457  0.00  0.00    +0.000 F 
ATOM      5  C   UNL     1      -1.314  11.267  19.418  0.00  0.00    +0.000 A 
ATOM      6  C   UNL     1      -2.396  11.273  18.531  0.00  0.00    +0.000 A 
ATOM      7  C   UNL     1      -2.308  10.541  17.229  0.00  0.00    +0.000 A 
ATOM      8  O   UNL     1      -1.389   9.767  16.972  0.00  0.00    +0.000 OA
ATOM      9  C   UNL     1      -3.366  10.725  16.241  0.00  0.00    +0.000 A 
ATOM     10  C   UNL     1      -4.418  11.460  16.623  0.00  0.00    +0.000 A 
ATOM     11  N   UNL     1      -4.621  12.063  17.853  0.00  0.00    +0.000 N 
ATOM     12  C   UNL     1      -3.593  11.968  18.873  0.00  0.00    +0.000 A 
ENDROOT
BRANCH   2  13
ATOM     13  N   UNL     1      -2.552  13.233  22.318  0.00  0.00    +0.000 N 
ATOM     14  C   UNL     1      -1.889  14.537  22.519  0.00  0.00    +0.000 C 
ATOM     15  C   UNL     1      -2.826  15.493  23.278  0.00  0.00    +0.000 C 
ATOM     16  S   UNL     1      -3.365  14.861  24.911  0.00  0.00    +0.000 S 
ATOM     17  C   UNL     1      -3.855  13.172  24.399  0.00  0.00    +0.000 C 
ATOM     18  C   UNL     1      -2.751  12.499  23.575  0.00  0.00    +0.000 C 
ENDBRANCH   2  13
BRANCH   5  19
ATOM     19  N   UNL     1      -0.027  10.728  19.053  0.00  0.00    +0.000 N 
ATOM     20  O   UNL     1       0.725  11.462  18.401  0.00  0.00    +0.000 OA
ATOM     21  O   UNL     1       0.192   9.553  19.377  0.00  0.00    +0.000 OA
ENDBRANCH   5  19
BRANCH  11  22
ATOM     22  C   UNL     1      -5.902  12.803  18.021  0.00  0.00    +0.000 C 
ATOM     23  C   UNL     1      -7.023  13.007  17.025  0.00  0.00    +0.000 C 
ATOM     24  C   UNL     1      -7.189  11.987  18.096  0.00  0.00    +0.000 C 
ENDBRANCH  11  22
BRANCH   1  26
ATOM     25  C   UNL     1      -5.709  12.677  21.339  0.00  0.00    +0.000 C 
ATOM     26  O   UNL     1      -4.710  13.359  20.579  0.00  0.00    +0.000 OA
ENDBRANCH   1  26
BRANCH   9  27
ATOM     27  C   UNL     1      -3.379  10.151  14.875  0.00  0.00    +0.000 C 
ATOM     28  O   UNL     1      -2.376   9.981  14.199  0.00  0.00    +0.000 OA
BRANCH  27  29
ATOM     29  O   UNL     1      -4.612   9.816  14.428  0.00  0.00    +0.000 OA
ATOM     30  H   UNL     1      -5.349  10.323  14.842  0.00  0.00    +0.000 HD
ENDBRANCH  27  29
ENDBRANCH   9  27
TORSDOF 6
ENDMDL
MODEL 3
REMARK VINA RESULT:      -6.0      0.481      1.101
REMARK  Name = 
REMARK  7 active torsions:
REMARK  status: ('A' for Active; 'I' for Inactive)
REMARK    1  A    between atoms: C_1  and  O_2
REMARK    2  A    between atoms: O_2  and  C_3
REMARK    3  A    between atoms: C_4  and  N_5
REMARK    4  A    between atoms: C_13  and  N_14
REMARK    5  A    between atoms: C_20  and  C_21
REMARK    6  A    between atoms: C_21  and  O_23
REMARK    7  A    between atoms: N_25  and  C_26
REMARK                            x       y       z     vdW  Elec       q    Type
REMARK                         _______ _______ _______ _____ _____    ______ ____
ROOT
ATOM      1  C   UNL     1      -3.731  12.133  19.485  0.00  0.00    +0.000 A 
ATOM      2  C   UNL     1      -3.956  12.777  20.758  0.00  0.00    +0.000 A 
ATOM      3  C   UNL     1      -2.896  12.735  21.680  0.00  0.00    +0.000 A 
ATOM      4  F   UNL     1      -3.037  13.313  22.886  0.00  0.00    +0.000 F 
ATOM      5  C   UNL     1      -1.696  12.106  21.377  0.00  0.00    +0.000 A 
ATOM      6  C   UNL     1      -1.470  11.481  20.146  0.00  0.00    +0.000 A 
ATOM      7  C   UNL     1      -0.183  10.763  19.890  0.00  0.00    +0.000 A 
ATOM      8  O   UNL     1       0.628  10.530  20.783  0.00  0.00    +0.000 OA
ATOM      9  C   UNL     1       0.108  10.293  18.539  0.00  0.00    +0.000 A 
ATOM     10  C   UNL     1      -0.867  10.439  17.633  0.00  0.00    +0.000 A 
ATOM     11  N   UNL     1      -2.125  10.981  17.832  0.00  0.00    +0.000 N 
ATOM     12  C   UNL     1      -2.475  11.516  19.135  0.00  0.00    +0.000 A 
ENDROOT
BRANCH   2  13
ATOM     13  N   UNL     1      -5.134  13.476  21.044  0.00  0.00    +0.000 N 
ATOM     14  C   UNL     1      -6.331  12.824  21.610  0.00  0.00    +0.000 C 
ATOM     15  C   UNL     1      -6.907  13.679  22.753  0.00  0.00    +0.000 C 
ATOM     16  S   UNL     1      -7.359  15.381  22.251  0.00  0.00    +0.000 S 
ATOM     17  C   UNL     1      -5.825  15.813  21.348  0.00  0.00    +0.000 C 
ATOM     18  C   UNL     1      -5.450  14.724  20.337  0.00  0.00    +0.000 C 
ENDBRANCH   2  13
BRANCH   5  19
ATOM     19  N   UNL     1      -0.657  12.248  22.367  0.00  0.00    +0.000 N 
ATOM     20  O   UNL     1      -0.629  11.411  23.277  0.00  0.00    +0.000 OA
ATOM     21  O   UNL     1       0.086  13.233  22.251  0.00  0.00    +0.000 OA
ENDBRANCH   5  19
BRANCH  11  22
ATOM     22  C   UNL     1      -3.031  10.996  16.650  0.00  0.00    +0.000 C 
ATOM     23  C   UNL     1      -2.750  10.560  15.228  0.00  0.00    +0.000 C 
ATOM     24  C   UNL     1      -3.526   9.655  16.118  0.00  0.00    +0.000 C 
ENDBRANCH  11  22
BRANCH   1  26
ATOM     25  C   UNL     1      -5.728  11.308  18.529  0.00  0.00    +0.000 C 
ATOM     26  O   UNL     1      -4.731  12.330  18.549  0.00  0.00    +0.000 OA
ENDBRANCH   1  26
BRANCH   9  27
ATOM     27  C   UNL     1       1.371   9.654  18.102  0.00  0.00    +0.000 C 
ATOM     28  O   UNL     1       1.680   8.502  18.372  0.00  0.00    +0.000 OA
BRANCH  27  29
ATOM     29  O   UNL     1       2.168  10.456  17.359  0.00  0.00    +0.000 OA
ATOM     30  H   UNL     1       1.888  11.401  17.334  0.00  0.00    +0.000 HD
ENDBRANCH  27  29
ENDBRANCH   9  27
TORSDOF 6
ENDMDL
MODEL 4
REMARK VINA RESULT:      -5.4      3.229      5.380
REMARK  Name = 
REMARK  7 active torsions:
REMARK  status: ('A' for Active; 'I' for Inactive)
REMARK    1  A    between atoms: C_1  and  O_2
REMARK    2  A    between atoms: O_2  and  C_3
REMARK    3  A    between atoms: C_4  and  N_5
REMARK    4  A    between atoms: C_13  and  N_14
REMARK    5  A    between atoms: C_20  and  C_21
REMARK    6  A    between atoms: C_21  and  O_23
REMARK    7  A    between atoms: N_25  and  C_26
REMARK                            x       y       z     vdW  Elec       q    Type
REMARK                         _______ _______ _______ _____ _____    ______ ____
ROOT
ATOM      1  C   UNL     1      -2.495  14.291  21.739  0.00  0.00    +0.000 A 
ATOM      2  C   UNL     1      -3.452  14.719  22.732  0.00  0.00    +0.000 A 
ATOM      3  C   UNL     1      -4.771  14.261  22.572  0.00  0.00    +0.000 A 
ATOM      4  F   UNL     1      -5.715  14.622  23.459  0.00  0.00    +0.000 F 
ATOM      5  C   UNL     1      -5.130  13.439  21.513  0.00  0.00    +0.000 A 
ATOM      6  C   UNL     1      -4.208  13.019  20.548  0.00  0.00    +0.000 A 
ATOM      7  C   UNL     1      -4.656  12.184  19.390  0.00  0.00    +0.000 A 
ATOM      8  O   UNL     1      -5.843  11.997  19.136  0.00  0.00    +0.000 OA
ATOM      9  C   UNL     1      -3.650  11.597  18.511  0.00  0.00    +0.000 A 
ATOM     10  C   UNL     1      -2.378  11.948  18.739  0.00  0.00    +0.000 A 
ATOM     11  N   UNL     1      -1.907  12.812  19.713  0.00  0.00    +0.000 N 
ATOM     12  C   UNL     1      -2.838  13.399  20.659  0.00  0.00    +0.000 A 
ENDROOT
BRANCH   2  13
ATOM     13  N   UNL     1      -3.084  15.487  23.843  0.00  0.00    +0.000 N 
ATOM     14  C   UNL     1      -2.815  14.897  25.168  0.00  0.00    +0.000 C 
ATOM     15  C   UNL     1      -1.533  15.504  25.766  0.00  0.00    +0.000 C 
ATOM     16  S   UNL     1      -1.589  17.326  25.945  0.00  0.00    +0.000 S 
ATOM     17  C   UNL     1      -2.214  17.743  24.274  0.00  0.00    +0.000 C 
ATOM     18  C   UNL     1      -3.449  16.908  23.918  0.00  0.00    +0.000 C 
ENDBRANCH   2  13
BRANCH   5  19
ATOM     19  N   UNL     1      -6.485  12.947  21.544  0.00  0.00    +0.000 N 
ATOM     20  O   UNL     1      -7.355  13.664  21.038  0.00  0.00    +0.000 OA
ATOM     21  O   UNL     1      -6.668  11.869  22.126  0.00  0.00    +0.000 OA
ENDBRANCH   5  19
BRANCH  11  22
ATOM     22  C   UNL     1      -0.437  13.051  19.727  0.00  0.00    +0.000 C 
ATOM     23  C   UNL     1       0.619  12.552  18.764  0.00  0.00    +0.000 C 
ATOM     24  C   UNL     1       0.145  13.958  18.647  0.00  0.00    +0.000 C 
ENDBRANCH  11  22
BRANCH   1  26
ATOM     25  C   UNL     1      -0.788  15.910  21.521  0.00  0.00    +0.000 C 
ATOM     26  O   UNL     1      -1.181  14.629  22.014  0.00  0.00    +0.000 OA
ENDBRANCH   1  26
BRANCH   9  27
ATOM     27  C   UNL     1      -3.923  10.673  17.385  0.00  0.00    +0.000 C 
ATOM     28  O   UNL     1      -3.344   9.608  17.222  0.00  0.00    +0.000 OA
BRANCH  27  29
ATOM     29  O   UNL     1      -4.888  11.103  16.538  0.00  0.00    +0.000 OA
ATOM     30  H   UNL     1      -4.580  11.265  15.616  0.00  0.00    +0.000 HD
ENDBRANCH  27  29
ENDBRANCH   9  27
TORSDOF 6
ENDMDL
MODEL 5
REMARK VINA RESULT:      -5.4      3.535      7.684
REMARK  Name = 
REMARK  7 active torsions:
REMARK  status: ('A' for Active; 'I' for Inactive)
REMARK    1  A    between atoms: C_1  and  O_2
REMARK    2  A    between atoms: O_2  and  C_3
REMARK    3  A    between atoms: C_4  and  N_5
REMARK    4  A    between atoms: C_13  and  N_14
REMARK    5  A    between atoms: C_20  and  C_21
REMARK    6  A    between atoms: C_21  and  O_23
REMARK    7  A    between atoms: N_25  and  C_26
REMARK                            x       y       z     vdW  Elec       q    Type
REMARK                         _______ _______ _______ _____ _____    ______ ____
ROOT
ATOM      1  C   UNL     1      -2.528  12.640  21.305  0.00  0.00    +0.000 A 
ATOM      2  C   UNL     1      -2.514  12.181  19.936  0.00  0.00    +0.000 A 
ATOM      3  C   UNL     1      -3.752  12.145  19.273  0.00  0.00    +0.000 A 
ATOM      4  F   UNL     1      -3.814  11.726  17.997  0.00  0.00    +0.000 F 
ATOM      5  C   UNL     1      -4.926  12.532  19.905  0.00  0.00    +0.000 A 
ATOM      6  C   UNL     1      -4.948  12.979  21.231  0.00  0.00    +0.000 A 
ATOM      7  C   UNL     1      -6.246  13.326  21.889  0.00  0.00    +0.000 A 
ATOM      8  O   UNL     1      -7.332  13.060  21.379  0.00  0.00    +0.000 OA
ATOM      9  C   UNL     1      -6.225  13.973  23.196  0.00  0.00    +0.000 A 
ATOM     10  C   UNL     1      -5.026  14.109  23.777  0.00  0.00    +0.000 A 
ATOM     11  N   UNL     1      -3.800  13.699  23.280  0.00  0.00    +0.000 N 
ATOM     12  C   UNL     1      -3.730  13.091  21.964  0.00  0.00    +0.000 A 
ENDROOT
BRANCH   2  13
ATOM     13  N   UNL     1      -1.327  11.858  19.269  0.00  0.00    +0.000 N 
ATOM     14  C   UNL     1      -0.612  12.817  18.405  0.00  0.00    +0.000 C 
ATOM     15  C   UNL     1       0.897  12.776  18.707  0.00  0.00    +0.000 C 
ATOM     16  S   UNL     1       1.653  11.122  18.486  0.00  0.00    +0.000 S 
ATOM     17  C   UNL     1       0.416  10.134  19.407  0.00  0.00    +0.000 C 
ATOM     18  C   UNL     1      -1.010  10.460  18.949  0.00  0.00    +0.000 C 
ENDBRANCH   2  13
BRANCH   5  19
ATOM     19  N   UNL     1      -6.100  12.561  19.067  0.00  0.00    +0.000 N 
ATOM     20  O   UNL     1      -6.737  11.508  18.955  0.00  0.00    +0.000 OA
ATOM     21  O   UNL     1      -6.336  13.629  18.484  0.00  0.00    +0.000 OA
ENDBRANCH   5  19
BRANCH  11  22
ATOM     22  C   UNL     1      -2.619  13.949  24.151  0.00  0.00    +0.000 C 
ATOM     23  C   UNL     1      -1.751  15.186  24.248  0.00  0.00    +0.000 C 
ATOM     24  C   UNL     1      -2.779  14.943  25.297  0.00  0.00    +0.000 C 
ENDBRANCH  11  22
BRANCH   1  26
ATOM     25  C   UNL     1      -0.773  11.657  22.545  0.00  0.00    +0.000 C 
ATOM     26  O   UNL     1      -1.279  12.812  21.874  0.00  0.00    +0.000 OA
ENDBRANCH   1  26
BRANCH   9  27
ATOM     27  C   UNL     1      -7.413  14.465  23.933  0.00  0.00    +0.000 C 
ATOM     28  O   UNL     1      -7.914  15.566  23.758  0.00  0.00    +0.000 OA
BRANCH  27  29
ATOM     29  O   UNL     1      -7.915  13.581  24.826  0.00  0.00    +0.000 OA
ATOM     30  H   UNL     1      -7.492  13.614  25.717  0.00  0.00    +0.000 HD
ENDBRANCH  27  29
ENDBRANCH   9  27
TORSDOF 6
ENDMDL
MODEL 6
REMARK VINA RESULT:      -5.4      2.484      4.769
REMARK  Name = 
REMARK  7 active torsions:
REMARK  status: ('A' for Active; 'I' for Inactive)
REMARK    1  A    between atoms: C_1  and  O_2
REMARK    2  A    between atoms: O_2  and  C_3
REMARK    3  A    between atoms: C_4  and  N_5
REMARK    4  A    between atoms: C_13  and  N_14
REMARK    5  A    between atoms: C_20  and  C_21
REMARK    6  A    between atoms: C_21  and  O_23
REMARK    7  A    between atoms: N_25  and  C_26
REMARK                            x       y       z     vdW  Elec       q    Type
REMARK                         _______ _______ _______ _____ _____    ______ ____
ROOT
ATOM      1  C   UNL     1      -2.257  12.106  20.359  0.00  0.00    +0.000 A 
ATOM      2  C   UNL     1      -3.274  12.805  21.110  0.00  0.00    +0.000 A 
ATOM      3  C   UNL     1      -4.503  13.012  20.462  0.00  0.00    +0.000 A 
ATOM      4  F   UNL     1      -5.494  13.658  21.100  0.00  0.00    +0.000 F 
ATOM      5  C   UNL     1      -4.725  12.564  19.166  0.00  0.00    +0.000 A 
ATOM      6  C   UNL     1      -3.746  11.885  18.433  0.00  0.00    +0.000 A 
ATOM      7  C   UNL     1      -4.010  11.477  17.018  0.00  0.00    +0.000 A 
ATOM      8  O   UNL     1      -4.990  11.875  16.393  0.00  0.00    +0.000 OA
ATOM      9  C   UNL     1      -3.056  10.602  16.344  0.00  0.00    +0.000 A 
ATOM     10  C   UNL     1      -1.933  10.315  17.014  0.00  0.00    +0.000 A 
ATOM     11  N   UNL     1      -1.569  10.758  18.274  0.00  0.00    +0.000 N 
ATOM     12  C   UNL     1      -2.485  11.592  19.031  0.00  0.00    +0.000 A 
ENDROOT
BRANCH   2  13
ATOM     13  N   UNL     1      -3.084  13.196  22.440  0.00  0.00    +0.000 N 
ATOM     14  C   UNL     1      -2.355  14.422  22.816  0.00  0.00    +0.000 C 
ATOM     15  C   UNL     1      -3.129  15.183  23.907  0.00  0.00    +0.000 C 
ATOM     16  S   UNL     1      -3.429  14.201  25.425  0.00  0.00    +0.000 S 
ATOM     17  C   UNL     1      -4.050  12.669  24.636  0.00  0.00    +0.000 C 
ATOM     18  C   UNL     1      -3.111  12.199  23.519  0.00  0.00    +0.000 C 
ENDBRANCH   2  13
BRANCH   5  19
ATOM     19  N   UNL     1      -6.070  12.736  18.674  0.00  0.00    +0.000 N 
ATOM     20  O   UNL     1      -6.345  13.824  18.157  0.00  0.00    +0.000 OA
ATOM     21  O   UNL     1      -6.852  11.794  18.864  0.00  0.00    +0.000 OA
ENDBRANCH   5  19
BRANCH  11  22
ATOM     22  C   UNL     1      -0.241  10.306  18.774  0.00  0.00    +0.000 C 
ATOM     23  C   UNL     1       0.865   9.590  18.028  0.00  0.00    +0.000 C 
ATOM     24  C   UNL     1       0.995  11.051  18.279  0.00  0.00    +0.000 C 
ENDBRANCH  11  22
BRANCH   1  26
ATOM     25  C   UNL     1      -0.102  12.783  21.052  0.00  0.00    +0.000 C 
ATOM     26  O   UNL     1      -1.121  11.783  21.080  0.00  0.00    +0.000 OA
ENDBRANCH   1  26
BRANCH   9  27
ATOM     27  C   UNL     1      -3.219  10.033  14.986  0.00  0.00    +0.000 C 
ATOM     28  O   UNL     1      -2.285   9.757  14.247  0.00  0.00    +0.000 OA
BRANCH  27  29
ATOM     29  O   UNL     1      -4.507   9.830  14.623  0.00  0.00    +0.000 OA
ATOM     30  H   UNL     1      -4.780   8.882  14.599  0.00  0.00    +0.000 HD
ENDBRANCH  27  29
ENDBRANCH   9  27
TORSDOF 6
ENDMDL
MODEL 7
REMARK VINA RESULT:      -5.3      2.801      4.909
REMARK  Name = 
REMARK  7 active torsions:
REMARK  status: ('A' for Active; 'I' for Inactive)
REMARK    1  A    between atoms: C_1  and  O_2
REMARK    2  A    between atoms: O_2  and  C_3
REMARK    3  A    between atoms: C_4  and  N_5
REMARK    4  A    between atoms: C_13  and  N_14
REMARK    5  A    between atoms: C_20  and  C_21
REMARK    6  A    between atoms: C_21  and  O_23
REMARK    7  A    between atoms: N_25  and  C_26
REMARK                            x       y       z     vdW  Elec       q    Type
REMARK                         _______ _______ _______ _____ _____    ______ ____
ROOT
ATOM      1  C   UNL     1      -3.071  13.676  20.991  0.00  0.00    +0.000 A 
ATOM      2  C   UNL     1      -4.220  13.887  21.840  0.00  0.00    +0.000 A 
ATOM      3  C   UNL     1      -5.414  13.255  21.452  0.00  0.00    +0.000 A 
ATOM      4  F   UNL     1      -6.523  13.411  22.195  0.00  0.00    +0.000 F 
ATOM      5  C   UNL     1      -5.480  12.467  20.311  0.00  0.00    +0.000 A 
ATOM      6  C   UNL     1      -4.371  12.256  19.484  0.00  0.00    +0.000 A 
ATOM      7  C   UNL     1      -4.506  11.450  18.231  0.00  0.00    +0.000 A 
ATOM      8  O   UNL     1      -5.600  11.110  17.784  0.00  0.00    +0.000 OA
ATOM      9  C   UNL     1      -3.303  11.080  17.494  0.00  0.00    +0.000 A 
ATOM     10  C   UNL     1      -2.149  11.595  17.937  0.00  0.00    +0.000 A 
ATOM     11  N   UNL     1      -1.967  12.446  19.014  0.00  0.00    +0.000 N 
ATOM     12  C   UNL     1      -3.108  12.823  19.828  0.00  0.00    +0.000 A 
ENDROOT
BRANCH   2  13
ATOM     13  N   UNL     1      -4.145  14.620  23.030  0.00  0.00    +0.000 N 
ATOM     14  C   UNL     1      -4.081  13.980  24.358  0.00  0.00    +0.000 C 
ATOM     15  C   UNL     1      -3.000  14.658  25.219  0.00  0.00    +0.000 C 
ATOM     16  S   UNL     1      -3.258  16.456  25.455  0.00  0.00    +0.000 S 
ATOM     17  C   UNL     1      -3.588  16.912  23.712  0.00  0.00    +0.000 C 
ATOM     18  C   UNL     1      -4.648  15.999  23.088  0.00  0.00    +0.000 C 
ENDBRANCH   2  13
BRANCH   5  19
ATOM     19  N   UNL     1      -6.732  11.782  20.104  0.00  0.00    +0.000 N 
ATOM     20  O   UNL     1      -7.599  12.380  19.457  0.00  0.00    +0.000 OA
ATOM     21  O   UNL     1      -6.850  10.673  20.642  0.00  0.00    +0.000 OA
ENDBRANCH   5  19
BRANCH  11  22
ATOM     22  C   UNL     1      -0.571  12.895  19.271  0.00  0.00    +0.000 C 
ATOM     23  C   UNL     1       0.613  12.916  18.327  0.00  0.00    +0.000 C 
ATOM     24  C   UNL     1      -0.107  14.188  18.607  0.00  0.00    +0.000 C 
ENDBRANCH  11  22
BRANCH   1  26
ATOM     25  C   UNL     1      -1.184  13.294  22.360  0.00  0.00    +0.000 C 
ATOM     26  O   UNL     1      -1.882  14.181  21.485  0.00  0.00    +0.000 OA
ENDBRANCH   1  26
BRANCH   9  27
ATOM     27  C   UNL     1      -3.259  10.208  16.296  0.00  0.00    +0.000 C 
ATOM     28  O   UNL     1      -2.403   9.356  16.105  0.00  0.00    +0.000 OA
BRANCH  27  29
ATOM     29  O   UNL     1      -4.264  10.427  15.417  0.00  0.00    +0.000 OA
ATOM     30  H   UNL     1      -4.821  11.215  15.620  0.00  0.00    +0.000 HD
ENDBRANCH  27  29
ENDBRANCH   9  27
TORSDOF 6
ENDMDL
MODEL 8
REMARK VINA RESULT:      -5.2      3.377      5.829
REMARK  Name = 
REMARK  7 active torsions:
REMARK  status: ('A' for Active; 'I' for Inactive)
REMARK    1  A    between atoms: C_1  and  O_2
REMARK    2  A    between atoms: O_2  and  C_3
REMARK    3  A    between atoms: C_4  and  N_5
REMARK    4  A    between atoms: C_13  and  N_14
REMARK    5  A    between atoms: C_20  and  C_21
REMARK    6  A    between atoms: C_21  and  O_23
REMARK    7  A    between atoms: N_25  and  C_26
REMARK                            x       y       z     vdW  Elec       q    Type
REMARK                         _______ _______ _______ _____ _____    ______ ____
ROOT
ATOM      1  C   UNL     1      -1.404  12.930  19.096  0.00  0.00    +0.000 A 
ATOM      2  C   UNL     1      -0.943  13.826  20.130  0.00  0.00    +0.000 A 
ATOM      3  C   UNL     1      -1.879  14.186  21.113  0.00  0.00    +0.000 A 
ATOM      4  F   UNL     1      -1.519  15.018  22.106  0.00  0.00    +0.000 F 
ATOM      5  C   UNL     1      -3.180  13.701  21.089  0.00  0.00    +0.000 A 
ATOM      6  C   UNL     1      -3.634  12.832  20.091  0.00  0.00    +0.000 A 
ATOM      7  C   UNL     1      -5.062  12.385  20.071  0.00  0.00    +0.000 A 
ATOM      8  O   UNL     1      -5.919  12.895  20.790  0.00  0.00    +0.000 OA
ATOM      9  C   UNL     1      -5.461  11.331  19.145  0.00  0.00    +0.000 A 
ATOM     10  C   UNL     1      -4.529  10.910  18.282  0.00  0.00    +0.000 A 
ATOM     11  N   UNL     1      -3.226  11.365  18.162  0.00  0.00    +0.000 N 
ATOM     12  C   UNL     1      -2.737  12.379  19.079  0.00  0.00    +0.000 A 
ENDROOT
BRANCH   2  13
ATOM     13  N   UNL     1       0.385  14.261  20.204  0.00  0.00    +0.000 N 
ATOM     14  C   UNL     1       1.289  13.884  21.308  0.00  0.00    +0.000 C 
ATOM     15  C   UNL     1       2.661  13.471  20.748  0.00  0.00    +0.000 C 
ATOM     16  S   UNL     1       3.479  14.772  19.751  0.00  0.00    +0.000 S 
ATOM     17  C   UNL     1       2.058  15.231  18.690  0.00  0.00    +0.000 C 
ATOM     18  C   UNL     1       0.802  15.496  19.527  0.00  0.00    +0.000 C 
ENDBRANCH   2  13
BRANCH   5  19
ATOM     19  N   UNL     1      -3.994  14.054  22.226  0.00  0.00    +0.000 N 
ATOM     20  O   UNL     1      -4.038  13.243  23.159  0.00  0.00    +0.000 OA
ATOM     21  O   UNL     1      -4.625  15.116  22.146  0.00  0.00    +0.000 OA
ENDBRANCH   5  19
BRANCH  11  22
ATOM     22  C   UNL     1      -2.404  10.739  17.090  0.00  0.00    +0.000 C 
ATOM     23  C   UNL     1      -2.763   9.604  16.155  0.00  0.00    +0.000 C 
ATOM     24  C   UNL     1      -2.808  11.001  15.642  0.00  0.00    +0.000 C 
ENDBRANCH  11  22
BRANCH   1  26
ATOM     25  C   UNL     1       0.352  11.387  18.751  0.00  0.00    +0.000 C 
ATOM     26  O   UNL     1      -0.418  12.475  18.238  0.00  0.00    +0.000 OA
ENDBRANCH   1  26
BRANCH   9  27
ATOM     27  C   UNL     1      -6.806  10.713  19.069  0.00  0.00    +0.000 C 
ATOM     28  O   UNL     1      -7.002   9.507  19.066  0.00  0.00    +0.000 OA
BRANCH  27  29
ATOM     29  O   UNL     1      -7.822  11.606  19.014  0.00  0.00    +0.000 OA
ATOM     30  H   UNL     1      -7.615  12.430  18.513  0.00  0.00    +0.000 HD
ENDBRANCH  27  29
ENDBRANCH   9  27
TORSDOF 6
ENDMDL
MODEL 9
REMARK VINA RESULT:      -5.2      2.593      4.862
REMARK  Name = 
REMARK  7 active torsions:
REMARK  status: ('A' for Active; 'I' for Inactive)
REMARK    1  A    between atoms: C_1  and  O_2
REMARK    2  A    between atoms: O_2  and  C_3
REMARK    3  A    between atoms: C_4  and  N_5
REMARK    4  A    between atoms: C_13  and  N_14
REMARK    5  A    between atoms: C_20  and  C_21
REMARK    6  A    between atoms: C_21  and  O_23
REMARK    7  A    between atoms: N_25  and  C_26
REMARK                            x       y       z     vdW  Elec       q    Type
REMARK                         _______ _______ _______ _____ _____    ______ ____
ROOT
ATOM      1  C   UNL     1      -2.758  12.857  20.638  0.00  0.00    +0.000 A 
ATOM      2  C   UNL     1      -3.941  13.366  21.292  0.00  0.00    +0.000 A 
ATOM      3  C   UNL     1      -5.156  13.209  20.604  0.00  0.00    +0.000 A 
ATOM      4  F   UNL     1      -6.297  13.661  21.153  0.00  0.00    +0.000 F 
ATOM      5  C   UNL     1      -5.211  12.593  19.361  0.00  0.00    +0.000 A 
ATOM      6  C   UNL     1      -4.070  12.096  18.722  0.00  0.00    +0.000 A 
ATOM      7  C   UNL     1      -4.171  11.497  17.354  0.00  0.00    +0.000 A 
ATOM      8  O   UNL     1      -5.190  11.586  16.673  0.00  0.00    +0.000 OA
ATOM      9  C   UNL     1      -3.011  10.811  16.795  0.00  0.00    +0.000 A 
ATOM     10  C   UNL     1      -1.881  10.867  17.511  0.00  0.00    +0.000 A 
ATOM     11  N   UNL     1      -1.685  11.509  18.723  0.00  0.00    +0.000 N 
ATOM     12  C   UNL     1      -2.802  12.173  19.369  0.00  0.00    +0.000 A 
ENDROOT
BRANCH   2  13
ATOM     13  N   UNL     1      -3.904  13.921  22.576  0.00  0.00    +0.000 N 
ATOM     14  C   UNL     1      -4.550  13.284  23.740  0.00  0.00    +0.000 C 
ATOM     15  C   UNL     1      -3.599  13.309  24.950  0.00  0.00    +0.000 C 
ATOM     16  S   UNL     1      -3.061  14.991  25.436  0.00  0.00    +0.000 S 
ATOM     17  C   UNL     1      -2.594  15.615  23.779  0.00  0.00    +0.000 C 
ATOM     18  C   UNL     1      -3.709  15.366  22.756  0.00  0.00    +0.000 C 
ENDBRANCH   2  13
BRANCH   5  19
ATOM     19  N   UNL     1      -6.537  12.390  18.830  0.00  0.00    +0.000 N 
ATOM     20  O   UNL     1      -7.027  13.315  18.172  0.00  0.00    +0.000 OA
ATOM     21  O   UNL     1      -7.094  11.324  19.128  0.00  0.00    +0.000 OA
ENDBRANCH   5  19
BRANCH  11  22
ATOM     22  C   UNL     1      -0.310  11.438  19.291  0.00  0.00    +0.000 C 
ATOM     23  C   UNL     1       0.979  11.015  18.618  0.00  0.00    +0.000 C 
ATOM     24  C   UNL     1       0.710  12.466  18.812  0.00  0.00    +0.000 C 
ENDBRANCH  11  22
BRANCH   1  26
ATOM     25  C   UNL     1      -1.486  11.798  22.325  0.00  0.00    +0.000 C 
ATOM     26  O   UNL     1      -1.609  12.887  21.409  0.00  0.00    +0.000 OA
ENDBRANCH   1  26
BRANCH   9  27
ATOM     27  C   UNL     1      -2.979  10.086  15.503  0.00  0.00    +0.000 C 
ATOM     28  O   UNL     1      -2.639   8.918  15.387  0.00  0.00    +0.000 OA
BRANCH  27  29
ATOM     29  O   UNL     1      -3.371  10.830  14.442  0.00  0.00    +0.000 OA
ATOM     30  H   UNL     1      -2.639  11.097  13.837  0.00  0.00    +0.000 HD
ENDBRANCH  27  29
ENDBRANCH   9  27
TORSDOF 6
ENDMDL
