MODEL 1
REMARK VINA RESULT:      -7.8      0.000      0.000
REMARK  Name = 
REMARK  6 active torsions:
REMARK  status: ('A' for Active; 'I' for Inactive)
REMARK    1  A    between atoms: C_1  and  O_2
REMARK    2  A    between atoms: O_2  and  C_3
REMARK    3  A    between atoms: C_8  and  O_9
REMARK    4  A    between atoms: O_9  and  C_10
REMARK    5  A    between atoms: C_11  and  C_12
REMARK    6  A    between atoms: C_12  and  O_13
REMARK                            x       y       z     vdW  Elec       q    Type
REMARK                         _______ _______ _______ _____ _____    ______ ____
ROOT
ATOM      1  C   UNL     1       5.888   5.921  17.184  0.00  0.00    +0.000 A 
ATOM      2  C   UNL     1       4.653   6.576  17.129  0.00  0.00    +0.000 A 
ATOM      3  C   UNL     1       3.699   6.382  18.131  0.00  0.00    +0.000 A 
ATOM      4  C   UNL     1       3.942   5.461  19.161  0.00  0.00    +0.000 A 
ATOM      5  C   UNL     1       5.206   4.856  19.250  0.00  0.00    +0.000 A 
ATOM      6  C   UNL     1       6.195   5.104  18.285  0.00  0.00    +0.000 A 
ATOM      7  C   UNL     1       2.840   5.177  20.176  0.00  0.00    +0.000 C 
ATOM      8  N   UNL     1       2.258   6.460  20.635  0.00  0.00    +0.000 NA
ATOM      9  C   UNL     1       1.896   7.402  19.563  0.00  0.00    +0.000 C 
ATOM     10  C   UNL     1       2.402   7.145  18.132  0.00  0.00    +0.000 C 
ATOM     11  H   UNL     1       2.960   6.918  21.222  0.00  0.00    +0.000 HD
ENDROOT
BRANCH   7  12
ATOM     12  C   UNL     1       1.767   4.084  19.716  0.00  0.00    +0.000 C 
ATOM     13  C   UNL     1       1.520   4.086  18.187  0.00  0.00    +0.000 C 
ATOM     14  C   UNL     1       2.615   3.412  17.361  0.00  0.00    +0.000 C 
ATOM     15  C   UNL     1       2.900   2.003  17.867  0.00  0.00    +0.000 C 
ATOM     16  C   UNL     1       3.277   2.028  19.341  0.00  0.00    +0.000 C 
ATOM     17  C   UNL     1       2.164   2.658  20.173  0.00  0.00    +0.000 C 
BRANCH  12  18
ATOM     18  O   UNL     1       0.482   4.334  20.320  0.00  0.00    +0.000 OA
ATOM     19  H   UNL     1      -0.147   3.715  19.912  0.00  0.00    +0.000 HD
ENDBRANCH  12  18
ENDBRANCH   7  12
BRANCH   1  21
ATOM     20  C   UNL     1       6.831   5.237  15.118  0.00  0.00    +0.000 C 
ATOM     21  O   UNL     1       6.714   6.227  16.132  0.00  0.00    +0.000 OA
ENDBRANCH   1  21
BRANCH   6  22
ATOM     22  O   UNL     1       7.470   4.603  18.360  0.00  0.00    +0.000 OA
ATOM     23  C   UNL     1       8.387   5.225  19.247  0.00  0.00    +0.000 C 
ENDBRANCH   6  22
TORSDOF 4
ENDMDL
MODEL 2
REMARK VINA RESULT:      -7.5      1.010      1.555
REMARK  Name = 
REMARK  6 active torsions:
REMARK  status: ('A' for Active; 'I' for Inactive)
REMARK    1  A    between atoms: C_1  and  O_2
REMARK    2  A    between atoms: O_2  and  C_3
REMARK    3  A    between atoms: C_8  and  O_9
REMARK    4  A    between atoms: O_9  and  C_10
REMARK    5  A    between atoms: C_11  and  C_12
REMARK    6  A    between atoms: C_12  and  O_13
REMARK                            x       y       z     vdW  Elec       q    Type
REMARK                         _______ _______ _______ _____ _____    ______ ____
ROOT
ATOM      1  C   UNL     1       6.444   5.861  16.928  0.00  0.00    +0.000 A 
ATOM      2  C   UNL     1       5.234   6.504  16.643  0.00  0.00    +0.000 A 
ATOM      3  C   UNL     1       4.184   6.487  17.564  0.00  0.00    +0.000 A 
ATOM      4  C   UNL     1       4.307   5.754  18.754  0.00  0.00    +0.000 A 
ATOM      5  C   UNL     1       5.544   5.166  19.067  0.00  0.00    +0.000 A 
ATOM      6  C   UNL     1       6.626   5.241  18.176  0.00  0.00    +0.000 A 
ATOM      7  C   UNL     1       3.107   5.651  19.688  0.00  0.00    +0.000 C 
ATOM      8  N   UNL     1       2.511   6.996  19.865  0.00  0.00    +0.000 NA
ATOM      9  C   UNL     1       2.274   7.744  18.619  0.00  0.00    +0.000 C 
ATOM     10  C   UNL     1       2.909   7.245  17.309  0.00  0.00    +0.000 C 
ATOM     11  H   UNL     1       3.163   7.543  20.432  0.00  0.00    +0.000 HD
ENDROOT
BRANCH   7  12
ATOM     12  C   UNL     1       2.060   4.501  19.316  0.00  0.00    +0.000 C 
ATOM     13  C   UNL     1       2.741   3.161  18.944  0.00  0.00    +0.000 C 
ATOM     14  C   UNL     1       3.259   2.355  20.133  0.00  0.00    +0.000 C 
ATOM     15  C   UNL     1       2.167   2.142  21.175  0.00  0.00    +0.000 C 
ATOM     16  C   UNL     1       1.598   3.476  21.636  0.00  0.00    +0.000 C 
ATOM     17  C   UNL     1       1.037   4.261  20.455  0.00  0.00    +0.000 C 
BRANCH  12  18
ATOM     18  O   UNL     1       1.271   4.872  18.168  0.00  0.00    +0.000 OA
ATOM     19  H   UNL     1       1.629   4.381  17.409  0.00  0.00    +0.000 HD
ENDBRANCH  12  18
ENDBRANCH   7  12
BRANCH   1  21
ATOM     20  C   UNL     1       7.223   5.096  14.823  0.00  0.00    +0.000 C 
ATOM     21  O   UNL     1       7.373   5.980  15.926  0.00  0.00    +0.000 OA
ENDBRANCH   1  21
BRANCH   6  22
ATOM     22  O   UNL     1       7.876   4.754  18.460  0.00  0.00    +0.000 OA
ATOM     23  C   UNL     1       8.539   5.232  19.620  0.00  0.00    +0.000 C 
ENDBRANCH   6  22
TORSDOF 4
ENDMDL
MODEL 3
REMARK VINA RESULT:      -7.2      2.315      3.996
REMARK  Name = 
REMARK  6 active torsions:
REMARK  status: ('A' for Active; 'I' for Inactive)
REMARK    1  A    between atoms: C_1  and  O_2
REMARK    2  A    between atoms: O_2  and  C_3
REMARK    3  A    between atoms: C_8  and  O_9
REMARK    4  A    between atoms: O_9  and  C_10
REMARK    5  A    between atoms: C_11  and  C_12
REMARK    6  A    between atoms: C_12  and  O_13
REMARK                            x       y       z     vdW  Elec       q    Type
REMARK                         _______ _______ _______ _____ _____    ______ ____
ROOT
ATOM      1  C   UNL     1       6.932   5.029  14.127  0.00  0.00    +0.000 A 
ATOM      2  C   UNL     1       7.182   5.754  15.298  0.00  0.00    +0.000 A 
ATOM      3  C   UNL     1       6.567   5.399  16.500  0.00  0.00    +0.000 A 
ATOM      4  C   UNL     1       5.626   4.359  16.526  0.00  0.00    +0.000 A 
ATOM      5  C   UNL     1       5.427   3.592  15.366  0.00  0.00    +0.000 A 
ATOM      6  C   UNL     1       6.097   3.900  14.172  0.00  0.00    +0.000 A 
ATOM      7  C   UNL     1       4.880   4.066  17.822  0.00  0.00    +0.000 C 
ATOM      8  N   UNL     1       5.846   4.037  18.945  0.00  0.00    +0.000 NA
ATOM      9  C   UNL     1       6.776   5.176  19.000  0.00  0.00    +0.000 C 
ATOM     10  C   UNL     1       6.892   6.113  17.784  0.00  0.00    +0.000 C 
ATOM     11  H   UNL     1       6.406   3.187  18.839  0.00  0.00    +0.000 HD
ENDROOT
BRANCH   7  12
ATOM     12  C   UNL     1       3.590   4.978  18.077  0.00  0.00    +0.000 C 
ATOM     13  C   UNL     1       2.294   4.368  17.488  0.00  0.00    +0.000 C 
ATOM     14  C   UNL     1       1.694   3.226  18.307  0.00  0.00    +0.000 C 
ATOM     15  C   UNL     1       1.494   3.636  19.761  0.00  0.00    +0.000 C 
ATOM     16  C   UNL     1       2.806   4.105  20.373  0.00  0.00    +0.000 C 
ATOM     17  C   UNL     1       3.381   5.276  19.583  0.00  0.00    +0.000 C 
BRANCH  12  18
ATOM     18  O   UNL     1       3.736   6.267  17.450  0.00  0.00    +0.000 OA
ATOM     19  H   UNL     1       3.662   6.125  16.491  0.00  0.00    +0.000 HD
ENDBRANCH  12  18
ENDBRANCH   7  12
BRANCH   1  21
ATOM     20  C   UNL     1       8.998   5.788  13.243  0.00  0.00    +0.000 C 
ATOM     21  O   UNL     1       7.621   5.499  13.038  0.00  0.00    +0.000 OA
ENDBRANCH   1  21
BRANCH   6  22
ATOM     22  O   UNL     1       6.002   3.143  13.032  0.00  0.00    +0.000 OA
ATOM     23  C   UNL     1       4.920   3.391  12.147  0.00  0.00    +0.000 C 
ENDBRANCH   6  22
TORSDOF 4
ENDMDL
MODEL 4
REMARK VINA RESULT:      -7.0      1.286      1.546
REMARK  Name = 
REMARK  6 active torsions:
REMARK  status: ('A' for Active; 'I' for Inactive)
REMARK    1  A    between atoms: C_1  and  O_2
REMARK    2  A    between atoms: O_2  and  C_3
REMARK    3  A    between atoms: C_8  and  O_9
REMARK    4  A    between atoms: O_9  and  C_10
REMARK    5  A    between atoms: C_11  and  C_12
REMARK    6  A    between atoms: C_12  and  O_13
REMARK                            x       y       z     vdW  Elec       q    Type
REMARK                         _______ _______ _______ _____ _____    ______ ____
ROOT
ATOM      1  C   UNL     1       6.564   6.680  17.631  0.00  0.00    +0.000 A 
ATOM      2  C   UNL     1       5.354   7.333  17.373  0.00  0.00    +0.000 A 
ATOM      3  C   UNL     1       4.170   6.900  17.973  0.00  0.00    +0.000 A 
ATOM      4  C   UNL     1       4.170   5.751  18.777  0.00  0.00    +0.000 A 
ATOM      5  C   UNL     1       5.395   5.137  19.087  0.00  0.00    +0.000 A 
ATOM      6  C   UNL     1       6.599   5.613  18.544  0.00  0.00    +0.000 A 
ATOM      7  C   UNL     1       2.847   5.228  19.324  0.00  0.00    +0.000 C 
ATOM      8  N   UNL     1       2.071   6.359  19.884  0.00  0.00    +0.000 NA
ATOM      9  C   UNL     1       1.966   7.539  19.011  0.00  0.00    +0.000 C 
ATOM     10  C   UNL     1       2.877   7.644  17.774  0.00  0.00    +0.000 C 
ATOM     11  H   UNL     1       2.542   6.653  20.743  0.00  0.00    +0.000 HD
ENDROOT
BRANCH   7  12
ATOM     12  C   UNL     1       2.028   4.289  18.321  0.00  0.00    +0.000 C 
ATOM     13  C   UNL     1       2.940   3.523  17.331  0.00  0.00    +0.000 C 
ATOM     14  C   UNL     1       3.663   2.317  17.929  0.00  0.00    +0.000 C 
ATOM     15  C   UNL     1       2.685   1.371  18.615  0.00  0.00    +0.000 C 
ATOM     16  C   UNL     1       1.888   2.104  19.684  0.00  0.00    +0.000 C 
ATOM     17  C   UNL     1       1.128   3.281  19.079  0.00  0.00    +0.000 C 
BRANCH  12  18
ATOM     18  O   UNL     1       1.128   5.064  17.505  0.00  0.00    +0.000 OA
ATOM     19  H   UNL     1       1.677   5.574  16.885  0.00  0.00    +0.000 HD
ENDBRANCH  12  18
ENDBRANCH   7  12
BRANCH   1  21
ATOM     20  C   UNL     1       8.151   8.440  17.522  0.00  0.00    +0.000 C 
ATOM     21  O   UNL     1       7.634   7.234  16.974  0.00  0.00    +0.000 OA
ENDBRANCH   1  21
BRANCH   6  22
ATOM     22  O   UNL     1       7.831   5.103  18.870  0.00  0.00    +0.000 OA
ATOM     23  C   UNL     1       8.387   5.438  20.132  0.00  0.00    +0.000 C 
ENDBRANCH   6  22
TORSDOF 4
ENDMDL
MODEL 5
REMARK VINA RESULT:      -6.8      2.127      5.790
REMARK  Name = 
REMARK  6 active torsions:
REMARK  status: ('A' for Active; 'I' for Inactive)
REMARK    1  A    between atoms: C_1  and  O_2
REMARK    2  A    between atoms: O_2  and  C_3
REMARK    3  A    between atoms: C_8  and  O_9
REMARK    4  A    between atoms: O_9  and  C_10
REMARK    5  A    between atoms: C_11  and  C_12
REMARK    6  A    between atoms: C_12  and  O_13
REMARK                            x       y       z     vdW  Elec       q    Type
REMARK                         _______ _______ _______ _____ _____    ______ ____
ROOT
ATOM      1  C   UNL     1       3.558   4.887  19.463  0.00  0.00    +0.000 A 
ATOM      2  C   UNL     1       4.911   5.136  19.715  0.00  0.00    +0.000 A 
ATOM      3  C   UNL     1       5.766   5.530  18.684  0.00  0.00    +0.000 A 
ATOM      4  C   UNL     1       5.290   5.601  17.366  0.00  0.00    +0.000 A 
ATOM      5  C   UNL     1       3.918   5.415  17.127  0.00  0.00    +0.000 A 
ATOM      6  C   UNL     1       3.040   5.089  18.172  0.00  0.00    +0.000 A 
ATOM      7  C   UNL     1       6.268   5.917  16.240  0.00  0.00    +0.000 C 
ATOM      8  N   UNL     1       7.116   7.064  16.639  0.00  0.00    +0.000 NA
ATOM      9  C   UNL     1       7.714   6.963  17.980  0.00  0.00    +0.000 C 
ATOM     10  C   UNL     1       7.204   5.885  18.954  0.00  0.00    +0.000 C 
ATOM     11  H   UNL     1       6.522   7.897  16.631  0.00  0.00    +0.000 HD
ENDROOT
BRANCH   7  12
ATOM     12  C   UNL     1       7.074   4.656  15.675  0.00  0.00    +0.000 C 
ATOM     13  C   UNL     1       6.147   3.509  15.203  0.00  0.00    +0.000 C 
ATOM     14  C   UNL     1       5.483   3.739  13.847  0.00  0.00    +0.000 C 
ATOM     15  C   UNL     1       6.513   4.083  12.778  0.00  0.00    +0.000 C 
ATOM     16  C   UNL     1       7.329   5.300  13.190  0.00  0.00    +0.000 C 
ATOM     17  C   UNL     1       8.031   5.053  14.522  0.00  0.00    +0.000 C 
BRANCH  12  18
ATOM     18  O   UNL     1       7.919   4.084  16.692  0.00  0.00    +0.000 OA
ATOM     19  H   UNL     1       8.019   4.757  17.388  0.00  0.00    +0.000 HD
ENDBRANCH  12  18
ENDBRANCH   7  12
BRANCH   1  21
ATOM     20  C   UNL     1       2.860   3.134  20.901  0.00  0.00    +0.000 C 
ATOM     21  O   UNL     1       2.854   4.520  20.582  0.00  0.00    +0.000 OA
ENDBRANCH   1  21
BRANCH   6  22
ATOM     22  O   UNL     1       1.683   4.972  18.013  0.00  0.00    +0.000 OA
ATOM     23  C   UNL     1       1.140   3.681  17.778  0.00  0.00    +0.000 C 
ENDBRANCH   6  22
TORSDOF 4
ENDMDL
MODEL 6
REMARK VINA RESULT:      -6.7      2.031      3.495
REMARK  Name = 
REMARK  6 active torsions:
REMARK  status: ('A' for Active; 'I' for Inactive)
REMARK    1  A    between atoms: C_1  and  O_2
REMARK    2  A    between atoms: O_2  and  C_3
REMARK    3  A    between atoms: C_8  and  O_9
REMARK    4  A    between atoms: O_9  and  C_10
REMARK    5  A    between atoms: C_11  and  C_12
REMARK    6  A    between atoms: C_12  and  O_13
REMARK                            x       y       z     vdW  Elec       q    Type
REMARK                         _______ _______ _______ _____ _____    ______ ____
ROOT
ATOM      1  C   UNL     1       6.439   5.474  16.684  0.00  0.00    +0.000 A 
ATOM      2  C   UNL     1       6.197   5.144  18.022  0.00  0.00    +0.000 A 
ATOM      3  C   UNL     1       5.180   4.249  18.361  0.00  0.00    +0.000 A 
ATOM      4  C   UNL     1       4.336   3.737  17.365  0.00  0.00    +0.000 A 
ATOM      5  C   UNL     1       4.623   4.018  16.018  0.00  0.00    +0.000 A 
ATOM      6  C   UNL     1       5.690   4.859  15.668  0.00  0.00    +0.000 A 
ATOM      7  C   UNL     1       3.159   2.857  17.770  0.00  0.00    +0.000 C 
ATOM      8  N   UNL     1       3.621   1.847  18.751  0.00  0.00    +0.000 NA
ATOM      9  C   UNL     1       4.421   2.379  19.867  0.00  0.00    +0.000 C 
ATOM     10  C   UNL     1       4.963   3.818  19.786  0.00  0.00    +0.000 C 
ATOM     11  H   UNL     1       4.207   1.179  18.244  0.00  0.00    +0.000 HD
ENDROOT
BRANCH   7  12
ATOM     12  C   UNL     1       1.841   3.653  18.203  0.00  0.00    +0.000 C 
ATOM     13  C   UNL     1       0.855   2.788  19.027  0.00  0.00    +0.000 C 
ATOM     14  C   UNL     1       1.254   2.580  20.487  0.00  0.00    +0.000 C 
ATOM     15  C   UNL     1       1.525   3.909  21.181  0.00  0.00    +0.000 C 
ATOM     16  C   UNL     1       2.597   4.693  20.439  0.00  0.00    +0.000 C 
ATOM     17  C   UNL     1       2.180   4.943  18.993  0.00  0.00    +0.000 C 
BRANCH  12  18
ATOM     18  O   UNL     1       1.102   4.097  17.048  0.00  0.00    +0.000 OA
ATOM     19  H   UNL     1       0.432   4.726  17.366  0.00  0.00    +0.000 HD
ENDBRANCH  12  18
ENDBRANCH   7  12
BRANCH   1  21
ATOM     20  C   UNL     1       7.590   7.382  17.498  0.00  0.00    +0.000 C 
ATOM     21  O   UNL     1       7.478   6.356  16.520  0.00  0.00    +0.000 OA
ENDBRANCH   1  21
BRANCH   6  22
ATOM     22  O   UNL     1       6.064   5.108  14.371  0.00  0.00    +0.000 OA
ATOM     23  C   UNL     1       6.364   4.004  13.532  0.00  0.00    +0.000 C 
ENDBRANCH   6  22
TORSDOF 4
ENDMDL
MODEL 7
REMARK VINA RESULT:      -6.5      2.047      2.786
REMARK  Name = 
REMARK  6 active torsions:
REMARK  status: ('A' for Active; 'I' for Inactive)
REMARK    1  A    between atoms: C_1  and  O_2
REMARK    2  A    between atoms: O_2  and  C_3
REMARK    3  A    between atoms: C_8  and  O_9
REMARK    4  A    between atoms: O_9  and  C_10
REMARK    5  A    between atoms: C_11  and  C_12
REMARK    6  A    between atoms: C_12  and  O_13
REMARK                            x       y       z     vdW  Elec       q    Type
REMARK                         _______ _______ _______ _____ _____    ______ ____
ROOT
ATOM      1  C   UNL     1       6.599   4.823  16.289  0.00  0.00    +0.000 A 
ATOM      2  C   UNL     1       5.364   4.299  15.890  0.00  0.00    +0.000 A 
ATOM      3  C   UNL     1       4.310   4.190  16.800  0.00  0.00    +0.000 A 
ATOM      4  C   UNL     1       4.508   4.531  18.147  0.00  0.00    +0.000 A 
ATOM      5  C   UNL     1       5.726   5.117  18.529  0.00  0.00    +0.000 A 
ATOM      6  C   UNL     1       6.764   5.295  17.601  0.00  0.00    +0.000 A 
ATOM      7  C   UNL     1       3.381   4.292  19.145  0.00  0.00    +0.000 C 
ATOM      8  N   UNL     1       2.110   4.794  18.575  0.00  0.00    +0.000 NA
ATOM      9  C   UNL     1       1.829   4.362  17.196  0.00  0.00    +0.000 C 
ATOM     10  C   UNL     1       2.951   3.711  16.367  0.00  0.00    +0.000 C 
ATOM     11  H   UNL     1       2.163   5.816  18.571  0.00  0.00    +0.000 HD
ENDROOT
BRANCH   7  12
ATOM     12  C   UNL     1       3.307   2.806  19.734  0.00  0.00    +0.000 C 
ATOM     13  C   UNL     1       3.505   2.754  21.269  0.00  0.00    +0.000 C 
ATOM     14  C   UNL     1       2.287   3.178  22.086  0.00  0.00    +0.000 C 
ATOM     15  C   UNL     1       1.044   2.401  21.669  0.00  0.00    +0.000 C 
ATOM     16  C   UNL     1       0.778   2.571  20.180  0.00  0.00    +0.000 C 
ATOM     17  C   UNL     1       1.977   2.104  19.361  0.00  0.00    +0.000 C 
BRANCH  12  18
ATOM     18  O   UNL     1       4.345   1.976  19.176  0.00  0.00    +0.000 OA
ATOM     19  H   UNL     1       4.897   2.551  18.618  0.00  0.00    +0.000 HD
ENDBRANCH  12  18
ENDBRANCH   7  12
BRANCH   1  21
ATOM     20  C   UNL     1       7.015   4.718  13.956  0.00  0.00    +0.000 C 
ATOM     21  O   UNL     1       7.522   4.871  15.275  0.00  0.00    +0.000 OA
ENDBRANCH   1  21
BRANCH   6  22
ATOM     22  O   UNL     1       7.944   5.930  17.897  0.00  0.00    +0.000 OA
ATOM     23  C   UNL     1       7.941   7.345  18.003  0.00  0.00    +0.000 C 
ENDBRANCH   6  22
TORSDOF 4
ENDMDL
MODEL 8
REMARK VINA RESULT:      -6.3      1.810      3.638
REMARK  Name = 
REMARK  6 active torsions:
REMARK  status: ('A' for Active; 'I' for Inactive)
REMARK    1  A    between atoms: C_1  and  O_2
REMARK    2  A    between atoms: O_2  and  C_3
REMARK    3  A    between atoms: C_8  and  O_9
REMARK    4  A    between atoms: O_9  and  C_10
REMARK    5  A    between atoms: C_11  and  C_12
REMARK    6  A    between atoms: C_12  and  O_13
REMARK                            x       y       z     vdW  Elec       q    Type
REMARK                         _______ _______ _______ _____ _____    ______ ____
ROOT
ATOM      1  C   UNL     1       6.351   5.359  17.376  0.00  0.00    +0.000 A 
ATOM      2  C   UNL     1       6.097   4.713  18.591  0.00  0.00    +0.000 A 
ATOM      3  C   UNL     1       5.057   3.788  18.702  0.00  0.00    +0.000 A 
ATOM      4  C   UNL     1       4.203   3.558  17.613  0.00  0.00    +0.000 A 
ATOM      5  C   UNL     1       4.500   4.157  16.377  0.00  0.00    +0.000 A 
ATOM      6  C   UNL     1       5.588   5.033  16.242  0.00  0.00    +0.000 A 
ATOM      7  C   UNL     1       3.004   2.635  17.793  0.00  0.00    +0.000 C 
ATOM      8  N   UNL     1       3.438   1.403  18.491  0.00  0.00    +0.000 NA
ATOM      9  C   UNL     1       4.249   1.622  19.701  0.00  0.00    +0.000 C 
ATOM     10  C   UNL     1       4.827   3.022  19.977  0.00  0.00    +0.000 C 
ATOM     11  H   UNL     1       4.009   0.867  17.833  0.00  0.00    +0.000 HD
ENDROOT
BRANCH   7  12
ATOM     12  C   UNL     1       1.705   3.332  18.415  0.00  0.00    +0.000 C 
ATOM     13  C   UNL     1       1.829   3.590  19.937  0.00  0.00    +0.000 C 
ATOM     14  C   UNL     1       2.697   4.789  20.313  0.00  0.00    +0.000 C 
ATOM     15  C   UNL     1       2.250   6.048  19.579  0.00  0.00    +0.000 C 
ATOM     16  C   UNL     1       2.265   5.826  18.074  0.00  0.00    +0.000 C 
ATOM     17  C   UNL     1       1.360   4.658  17.692  0.00  0.00    +0.000 C 
BRANCH  12  18
ATOM     18  O   UNL     1       0.542   2.496  18.253  0.00  0.00    +0.000 OA
ATOM     19  H   UNL     1      -0.059   2.963  17.648  0.00  0.00    +0.000 HD
ENDBRANCH  12  18
ENDBRANCH   7  12
BRANCH   1  21
ATOM     20  C   UNL     1       7.929   6.504  18.726  0.00  0.00    +0.000 C 
ATOM     21  O   UNL     1       7.411   6.228  17.431  0.00  0.00    +0.000 OA
ENDBRANCH   1  21
BRANCH   6  22
ATOM     22  O   UNL     1       5.971   5.586  15.046  0.00  0.00    +0.000 OA
ATOM     23  C   UNL     1       6.809   4.826  14.189  0.00  0.00    +0.000 C 
ENDBRANCH   6  22
TORSDOF 4
ENDMDL
MODEL 9
REMARK VINA RESULT:      -6.3     11.121     13.223
REMARK  Name = 
REMARK  6 active torsions:
REMARK  status: ('A' for Active; 'I' for Inactive)
REMARK    1  A    between atoms: C_1  and  O_2
REMARK    2  A    between atoms: O_2  and  C_3
REMARK    3  A    between atoms: C_8  and  O_9
REMARK    4  A    between atoms: O_9  and  C_10
REMARK    5  A    between atoms: C_11  and  C_12
REMARK    6  A    between atoms: C_12  and  O_13
REMARK                            x       y       z     vdW  Elec       q    Type
REMARK                         _______ _______ _______ _____ _____    ______ ____
ROOT
ATOM      1  C   UNL     1      -6.642  11.408  20.079  0.00  0.00    +0.000 A 
ATOM      2  C   UNL     1      -7.252  11.442  21.338  0.00  0.00    +0.000 A 
ATOM      3  C   UNL     1      -6.816  12.338  22.316  0.00  0.00    +0.000 A 
ATOM      4  C   UNL     1      -5.704  13.159  22.070  0.00  0.00    +0.000 A 
ATOM      5  C   UNL     1      -5.137  13.169  20.785  0.00  0.00    +0.000 A 
ATOM      6  C   UNL     1      -5.619  12.321  19.776  0.00  0.00    +0.000 A 
ATOM      7  C   UNL     1      -5.173  14.043  23.192  0.00  0.00    +0.000 C 
ATOM      8  N   UNL     1      -6.307  14.739  23.843  0.00  0.00    +0.000 NA
ATOM      9  C   UNL     1      -7.444  13.877  24.208  0.00  0.00    +0.000 C 
ATOM     10  C   UNL     1      -7.516  12.447  23.644  0.00  0.00    +0.000 C 
ATOM     11  H   UNL     1      -6.652  15.439  23.181  0.00  0.00    +0.000 HD
ENDROOT
BRANCH   7  12
ATOM     12  C   UNL     1      -4.168  13.317  24.203  0.00  0.00    +0.000 C 
ATOM     13  C   UNL     1      -3.254  12.279  23.505  0.00  0.00    +0.000 C 
ATOM     14  C   UNL     1      -2.089  12.880  22.720  0.00  0.00    +0.000 C 
ATOM     15  C   UNL     1      -1.273  13.833  23.584  0.00  0.00    +0.000 C 
ATOM     16  C   UNL     1      -2.158  14.931  24.155  0.00  0.00    +0.000 C 
ATOM     17  C   UNL     1      -3.294  14.334  24.979  0.00  0.00    +0.000 C 
BRANCH  12  18
ATOM     18  O   UNL     1      -4.890  12.585  25.214  0.00  0.00    +0.000 OA
ATOM     19  H   UNL     1      -4.997  13.184  25.973  0.00  0.00    +0.000 HD
ENDBRANCH  12  18
ENDBRANCH   7  12
BRANCH   1  21
ATOM     20  C   UNL     1      -7.128   9.125  19.657  0.00  0.00    +0.000 C 
ATOM     21  O   UNL     1      -7.193  10.480  19.232  0.00  0.00    +0.000 OA
ENDBRANCH   1  21
BRANCH   6  22
ATOM     22  O   UNL     1      -5.157  12.342  18.484  0.00  0.00    +0.000 OA
ATOM     23  C   UNL     1      -3.999  11.584  18.170  0.00  0.00    +0.000 C 
ENDBRANCH   6  22
TORSDOF 4
ENDMDL
