MODEL 1
REMARK VINA RESULT:      -6.9      0.000      0.000
REMARK  Name = 
REMARK  1 active torsions:
REMARK  status: ('A' for Active; 'I' for Inactive)
REMARK    1  A    between atoms: O_1  and  C_2
REMARK                            x       y       z     vdW  Elec       q    Type
REMARK                         _______ _______ _______ _____ _____    ______ ____
ROOT
ATOM      1  C   UNL     1       4.996   3.907  18.984  0.00  0.00    +0.000 C 
ATOM      2  C   UNL     1       4.810   3.920  17.452  0.00  0.00    +0.000 C 
ATOM      3  C   UNL     1       4.583   5.400  17.099  0.00  0.00    +0.000 C 
ATOM      4  C   UNL     1       3.393   5.992  17.899  0.00  0.00    +0.000 C 
ATOM      5  C   UNL     1       2.190   5.063  17.989  0.00  0.00    +0.000 C 
ATOM      6  O   UNL     1       2.539   4.098  19.014  0.00  0.00    +0.000 OA
ATOM      7  C   UNL     1       3.733   4.637  19.635  0.00  0.00    +0.000 C 
ATOM      8  O   UNL     1       3.734   6.034  19.295  0.00  0.00    +0.000 OA
ATOM      9  N   UNL     1       5.815   6.087  17.487  0.00  0.00    +0.000 N 
ATOM     10  N   UNL     1       6.352   7.112  16.819  0.00  0.00    +0.000 NA
ATOM     11  C   UNL     1       7.484   7.279  17.518  0.00  0.00    +0.000 A 
ATOM     12  N   UNL     1       7.694   6.391  18.546  0.00  0.00    +0.000 NA
ATOM     13  C   UNL     1       6.609   5.660  18.527  0.00  0.00    +0.000 A 
ATOM     14  N   UNL     1       6.238   4.602  19.286  0.00  0.00    +0.000 N 
ATOM     15  H   UNL     1       6.944   4.058  19.770  0.00  0.00    +0.000 HD
ENDROOT
BRANCH   1  16
ATOM     16  O   UNL     1       5.113   2.569  19.426  0.00  0.00    +0.000 OA
ATOM     17  H   UNL     1       6.042   2.314  19.276  0.00  0.00    +0.000 HD
ENDBRANCH   1  16
TORSDOF 1
ENDMDL
MODEL 2
REMARK VINA RESULT:      -6.9      2.678      4.076
REMARK  Name = 
REMARK  1 active torsions:
REMARK  status: ('A' for Active; 'I' for Inactive)
REMARK    1  A    between atoms: O_1  and  C_2
REMARK                            x       y       z     vdW  Elec       q    Type
REMARK                         _______ _______ _______ _____ _____    ______ ____
ROOT
ATOM      1  C   UNL     1       5.874   4.701  18.750  0.00  0.00    +0.000 C 
ATOM      2  C   UNL     1       4.701   5.672  18.498  0.00  0.00    +0.000 C 
ATOM      3  C   UNL     1       3.993   5.113  17.252  0.00  0.00    +0.000 C 
ATOM      4  C   UNL     1       4.979   4.969  16.063  0.00  0.00    +0.000 C 
ATOM      5  C   UNL     1       5.928   6.148  15.904  0.00  0.00    +0.000 C 
ATOM      6  O   UNL     1       6.949   5.947  16.915  0.00  0.00    +0.000 OA
ATOM      7  C   UNL     1       6.723   4.600  17.401  0.00  0.00    +0.000 C 
ATOM      8  O   UNL     1       5.950   3.955  16.373  0.00  0.00    +0.000 OA
ATOM      9  N   UNL     1       3.507   3.789  17.641  0.00  0.00    +0.000 N 
ATOM     10  N   UNL     1       2.355   3.254  17.227  0.00  0.00    +0.000 NA
ATOM     11  C   UNL     1       2.353   2.120  17.943  0.00  0.00    +0.000 A 
ATOM     12  N   UNL     1       3.412   1.948  18.803  0.00  0.00    +0.000 NA
ATOM     13  C   UNL     1       4.148   3.006  18.575  0.00  0.00    +0.000 A 
ATOM     14  N   UNL     1       5.311   3.416  19.135  0.00  0.00    +0.000 N 
ATOM     15  H   UNL     1       5.577   3.070  20.049  0.00  0.00    +0.000 HD
ENDROOT
BRANCH   1  16
ATOM     16  O   UNL     1       6.655   5.186  19.825  0.00  0.00    +0.000 OA
ATOM     17  H   UNL     1       6.374   4.685  20.613  0.00  0.00    +0.000 HD
ENDBRANCH   1  16
TORSDOF 1
ENDMDL
MODEL 3
REMARK VINA RESULT:      -6.9      1.635      1.713
REMARK  Name = 
REMARK  1 active torsions:
REMARK  status: ('A' for Active; 'I' for Inactive)
REMARK    1  A    between atoms: O_1  and  C_2
REMARK                            x       y       z     vdW  Elec       q    Type
REMARK                         _______ _______ _______ _____ _____    ______ ____
ROOT
ATOM      1  C   UNL     1       5.086   3.771  18.852  0.00  0.00    +0.000 C 
ATOM      2  C   UNL     1       4.127   3.271  17.751  0.00  0.00    +0.000 C 
ATOM      3  C   UNL     1       3.973   4.467  16.795  0.00  0.00    +0.000 C 
ATOM      4  C   UNL     1       3.485   5.731  17.552  0.00  0.00    +0.000 C 
ATOM      5  C   UNL     1       2.387   5.454  18.568  0.00  0.00    +0.000 C 
ATOM      6  O   UNL     1       3.073   4.898  19.719  0.00  0.00    +0.000 OA
ATOM      7  C   UNL     1       4.480   5.122  19.451  0.00  0.00    +0.000 C 
ATOM      8  O   UNL     1       4.511   6.165  18.461  0.00  0.00    +0.000 OA
ATOM      9  N   UNL     1       5.311   4.712  16.258  0.00  0.00    +0.000 N 
ATOM     10  N   UNL     1       5.564   5.110  15.008  0.00  0.00    +0.000 NA
ATOM     11  C   UNL     1       6.904   5.076  15.018  0.00  0.00    +0.000 A 
ATOM     12  N   UNL     1       7.488   4.640  16.183  0.00  0.00    +0.000 NA
ATOM     13  C   UNL     1       6.460   4.440  16.968  0.00  0.00    +0.000 A 
ATOM     14  N   UNL     1       6.389   3.985  18.241  0.00  0.00    +0.000 N 
ATOM     15  H   UNL     1       7.153   3.439  18.622  0.00  0.00    +0.000 HD
ENDROOT
BRANCH   1  16
ATOM     16  O   UNL     1       5.216   2.771  19.843  0.00  0.00    +0.000 OA
ATOM     17  H   UNL     1       5.798   2.086  19.464  0.00  0.00    +0.000 HD
ENDBRANCH   1  16
TORSDOF 1
ENDMDL
MODEL 4
REMARK VINA RESULT:      -6.6      2.057      3.426
REMARK  Name = 
REMARK  1 active torsions:
REMARK  status: ('A' for Active; 'I' for Inactive)
REMARK    1  A    between atoms: O_1  and  C_2
REMARK                            x       y       z     vdW  Elec       q    Type
REMARK                         _______ _______ _______ _____ _____    ______ ____
ROOT
ATOM      1  C   UNL     1       2.087   3.820  17.905  0.00  0.00    +0.000 C 
ATOM      2  C   UNL     1       2.288   4.878  19.010  0.00  0.00    +0.000 C 
ATOM      3  C   UNL     1       3.478   4.359  19.835  0.00  0.00    +0.000 C 
ATOM      4  C   UNL     1       3.214   2.922  20.358  0.00  0.00    +0.000 C 
ATOM      5  C   UNL     1       1.802   2.708  20.884  0.00  0.00    +0.000 C 
ATOM      6  O   UNL     1       0.981   2.544  19.700  0.00  0.00    +0.000 OA
ATOM      7  C   UNL     1       1.930   2.397  18.614  0.00  0.00    +0.000 C 
ATOM      8  O   UNL     1       3.164   2.014  19.244  0.00  0.00    +0.000 OA
ATOM      9  N   UNL     1       4.613   4.337  18.913  0.00  0.00    +0.000 N 
ATOM     10  N   UNL     1       5.872   4.624  19.256  0.00  0.00    +0.000 NA
ATOM     11  C   UNL     1       6.463   4.559  18.054  0.00  0.00    +0.000 A 
ATOM     12  N   UNL     1       5.635   4.292  16.989  0.00  0.00    +0.000 NA
ATOM     13  C   UNL     1       4.469   4.126  17.560  0.00  0.00    +0.000 A 
ATOM     14  N   UNL     1       3.251   3.864  17.031  0.00  0.00    +0.000 N 
ATOM     15  H   UNL     1       3.067   4.084  16.059  0.00  0.00    +0.000 HD
ENDROOT
BRANCH   1  16
ATOM     16  O   UNL     1       0.944   4.155  17.143  0.00  0.00    +0.000 OA
ATOM     17  H   UNL     1       1.261   4.711  16.407  0.00  0.00    +0.000 HD
ENDBRANCH   1  16
TORSDOF 1
ENDMDL
MODEL 5
REMARK VINA RESULT:      -6.6      1.560      1.900
REMARK  Name = 
REMARK  1 active torsions:
REMARK  status: ('A' for Active; 'I' for Inactive)
REMARK    1  A    between atoms: O_1  and  C_2
REMARK                            x       y       z     vdW  Elec       q    Type
REMARK                         _______ _______ _______ _____ _____    ______ ____
ROOT
ATOM      1  C   UNL     1       4.373   2.687  19.315  0.00  0.00    +0.000 C 
ATOM      2  C   UNL     1       3.809   2.595  17.882  0.00  0.00    +0.000 C 
ATOM      3  C   UNL     1       3.145   3.961  17.635  0.00  0.00    +0.000 C 
ATOM      4  C   UNL     1       2.088   4.276  18.727  0.00  0.00    +0.000 C 
ATOM      5  C   UNL     1       1.213   3.087  19.097  0.00  0.00    +0.000 C 
ATOM      6  O   UNL     1       2.035   2.276  19.975  0.00  0.00    +0.000 OA
ATOM      7  C   UNL     1       3.177   3.113  20.285  0.00  0.00    +0.000 C 
ATOM      8  O   UNL     1       2.750   4.454  19.990  0.00  0.00    +0.000 OA
ATOM      9  N   UNL     1       4.228   4.941  17.714  0.00  0.00    +0.000 N 
ATOM     10  N   UNL     1       4.310   6.039  16.957  0.00  0.00    +0.000 NA
ATOM     11  C   UNL     1       5.506   6.504  17.349  0.00  0.00    +0.000 A 
ATOM     12  N   UNL     1       6.180   5.734  18.267  0.00  0.00    +0.000 NA
ATOM     13  C   UNL     1       5.339   4.761  18.507  0.00  0.00    +0.000 A 
ATOM     14  N   UNL     1       5.443   3.675  19.308  0.00  0.00    +0.000 N 
ATOM     15  H   UNL     1       6.359   3.338  19.582  0.00  0.00    +0.000 HD
ENDROOT
BRANCH   1  16
ATOM     16  O   UNL     1       4.923   1.437  19.679  0.00  0.00    +0.000 OA
ATOM     17  H   UNL     1       4.928   1.415  20.654  0.00  0.00    +0.000 HD
ENDBRANCH   1  16
TORSDOF 1
ENDMDL
MODEL 6
REMARK VINA RESULT:      -6.6      2.457      3.862
REMARK  Name = 
REMARK  1 active torsions:
REMARK  status: ('A' for Active; 'I' for Inactive)
REMARK    1  A    between atoms: O_1  and  C_2
REMARK                            x       y       z     vdW  Elec       q    Type
REMARK                         _______ _______ _______ _____ _____    ______ ____
ROOT
ATOM      1  C   UNL     1       5.779   4.329  18.309  0.00  0.00    +0.000 C 
ATOM      2  C   UNL     1       5.576   5.505  19.287  0.00  0.00    +0.000 C 
ATOM      3  C   UNL     1       4.052   5.699  19.353  0.00  0.00    +0.000 C 
ATOM      4  C   UNL     1       3.453   5.924  17.940  0.00  0.00    +0.000 C 
ATOM      5  C   UNL     1       4.277   6.857  17.064  0.00  0.00    +0.000 C 
ATOM      6  O   UNL     1       5.379   6.044  16.585  0.00  0.00    +0.000 OA
ATOM      7  C   UNL     1       5.020   4.688  16.950  0.00  0.00    +0.000 C 
ATOM      8  O   UNL     1       3.599   4.721  17.166  0.00  0.00    +0.000 OA
ATOM      9  N   UNL     1       3.524   4.452  19.909  0.00  0.00    +0.000 N 
ATOM     10  N   UNL     1       2.480   4.377  20.740  0.00  0.00    +0.000 NA
ATOM     11  C   UNL     1       2.493   3.064  21.013  0.00  0.00    +0.000 A 
ATOM     12  N   UNL     1       3.507   2.338  20.435  0.00  0.00    +0.000 NA
ATOM     13  C   UNL     1       4.134   3.233  19.715  0.00  0.00    +0.000 A 
ATOM     14  N   UNL     1       5.235   3.132  18.934  0.00  0.00    +0.000 N 
ATOM     15  H   UNL     1       5.889   2.373  19.084  0.00  0.00    +0.000 HD
ENDROOT
BRANCH   1  16
ATOM     16  O   UNL     1       7.164   4.132  18.100  0.00  0.00    +0.000 OA
ATOM     17  H   UNL     1       7.612   4.895  18.509  0.00  0.00    +0.000 HD
ENDBRANCH   1  16
TORSDOF 1
ENDMDL
MODEL 7
REMARK VINA RESULT:      -6.5      2.262      3.696
REMARK  Name = 
REMARK  1 active torsions:
REMARK  status: ('A' for Active; 'I' for Inactive)
REMARK    1  A    between atoms: O_1  and  C_2
REMARK                            x       y       z     vdW  Elec       q    Type
REMARK                         _______ _______ _______ _____ _____    ______ ____
ROOT
ATOM      1  C   UNL     1       4.843   5.489  17.689  0.00  0.00    +0.000 C 
ATOM      2  C   UNL     1       5.702   6.723  17.340  0.00  0.00    +0.000 C 
ATOM      3  C   UNL     1       7.053   6.143  16.889  0.00  0.00    +0.000 C 
ATOM      4  C   UNL     1       7.660   5.220  17.979  0.00  0.00    +0.000 C 
ATOM      5  C   UNL     1       7.529   5.769  19.392  0.00  0.00    +0.000 C 
ATOM      6  O   UNL     1       6.156   5.497  19.774  0.00  0.00    +0.000 OA
ATOM      7  C   UNL     1       5.658   4.608  18.743  0.00  0.00    +0.000 C 
ATOM      8  O   UNL     1       6.833   4.053  18.127  0.00  0.00    +0.000 OA
ATOM      9  N   UNL     1       6.758   5.351  15.695  0.00  0.00    +0.000 N 
ATOM     10  N   UNL     1       7.568   5.247  14.636  0.00  0.00    +0.000 NA
ATOM     11  C   UNL     1       6.793   4.519  13.820  0.00  0.00    +0.000 A 
ATOM     12  N   UNL     1       5.541   4.207  14.295  0.00  0.00    +0.000 NA
ATOM     13  C   UNL     1       5.550   4.721  15.499  0.00  0.00    +0.000 A 
ATOM     14  N   UNL     1       4.591   4.761  16.454  0.00  0.00    +0.000 N 
ATOM     15  H   UNL     1       3.617   4.652  16.193  0.00  0.00    +0.000 HD
ENDROOT
BRANCH   1  16
ATOM     16  O   UNL     1       3.603   5.920  18.214  0.00  0.00    +0.000 OA
ATOM     17  H   UNL     1       3.726   6.851  18.473  0.00  0.00    +0.000 HD
ENDBRANCH   1  16
TORSDOF 1
ENDMDL
MODEL 8
REMARK VINA RESULT:      -6.5      2.064      2.417
REMARK  Name = 
REMARK  1 active torsions:
REMARK  status: ('A' for Active; 'I' for Inactive)
REMARK    1  A    between atoms: O_1  and  C_2
REMARK                            x       y       z     vdW  Elec       q    Type
REMARK                         _______ _______ _______ _____ _____    ______ ____
ROOT
ATOM      1  C   UNL     1       3.473   2.803  18.146  0.00  0.00    +0.000 C 
ATOM      2  C   UNL     1       2.485   3.873  17.636  0.00  0.00    +0.000 C 
ATOM      3  C   UNL     1       3.236   5.206  17.798  0.00  0.00    +0.000 C 
ATOM      4  C   UNL     1       3.708   5.409  19.262  0.00  0.00    +0.000 C 
ATOM      5  C   UNL     1       2.670   5.016  20.304  0.00  0.00    +0.000 C 
ATOM      6  O   UNL     1       2.736   3.569  20.370  0.00  0.00    +0.000 OA
ATOM      7  C   UNL     1       3.927   3.221  19.620  0.00  0.00    +0.000 C 
ATOM      8  O   UNL     1       4.709   4.426  19.578  0.00  0.00    +0.000 OA
ATOM      9  N   UNL     1       4.404   5.105  16.923  0.00  0.00    +0.000 N 
ATOM     10  N   UNL     1       4.918   6.124  16.228  0.00  0.00    +0.000 NA
ATOM     11  C   UNL     1       5.871   5.479  15.539  0.00  0.00    +0.000 A 
ATOM     12  N   UNL     1       5.943   4.121  15.736  0.00  0.00    +0.000 NA
ATOM     13  C   UNL     1       5.021   3.908  16.640  0.00  0.00    +0.000 A 
ATOM     14  N   UNL     1       4.598   2.762  17.224  0.00  0.00    +0.000 N 
ATOM     15  H   UNL     1       4.763   1.873  16.765  0.00  0.00    +0.000 HD
ENDROOT
BRANCH   1  16
ATOM     16  O   UNL     1       2.837   1.540  18.132  0.00  0.00    +0.000 OA
ATOM     17  H   UNL     1       2.597   1.367  17.203  0.00  0.00    +0.000 HD
ENDBRANCH   1  16
TORSDOF 1
ENDMDL
MODEL 9
REMARK VINA RESULT:      -6.5      1.935      2.503
REMARK  Name = 
REMARK  1 active torsions:
REMARK  status: ('A' for Active; 'I' for Inactive)
REMARK    1  A    between atoms: O_1  and  C_2
REMARK                            x       y       z     vdW  Elec       q    Type
REMARK                         _______ _______ _______ _____ _____    ______ ____
ROOT
ATOM      1  C   UNL     1       4.305   2.578  19.778  0.00  0.00    +0.000 C 
ATOM      2  C   UNL     1       3.875   1.746  18.551  0.00  0.00    +0.000 C 
ATOM      3  C   UNL     1       3.208   2.759  17.606  0.00  0.00    +0.000 C 
ATOM      4  C   UNL     1       2.049   3.509  18.315  0.00  0.00    +0.000 C 
ATOM      5  C   UNL     1       1.169   2.611  19.173  0.00  0.00    +0.000 C 
ATOM      6  O   UNL     1       1.925   2.402  20.394  0.00  0.00    +0.000 OA
ATOM      7  C   UNL     1       3.016   3.353  20.317  0.00  0.00    +0.000 C 
ATOM      8  O   UNL     1       2.589   4.337  19.359  0.00  0.00    +0.000 OA
ATOM      9  N   UNL     1       4.258   3.715  17.254  0.00  0.00    +0.000 N 
ATOM     10  N   UNL     1       4.386   4.291  16.055  0.00  0.00    +0.000 NA
ATOM     11  C   UNL     1       5.531   4.965  16.241  0.00  0.00    +0.000 A 
ATOM     12  N   UNL     1       6.135   4.802  17.465  0.00  0.00    +0.000 NA
ATOM     13  C   UNL     1       5.296   4.027  18.104  0.00  0.00    +0.000 A 
ATOM     14  N   UNL     1       5.349   3.495  19.348  0.00  0.00    +0.000 N 
ATOM     15  H   UNL     1       6.243   3.401  19.816  0.00  0.00    +0.000 HD
ENDROOT
BRANCH   1  16
ATOM     16  O   UNL     1       4.845   1.714  20.758  0.00  0.00    +0.000 OA
ATOM     17  H   UNL     1       4.179   1.658  21.468  0.00  0.00    +0.000 HD
ENDBRANCH   1  16
TORSDOF 1
ENDMDL
