MODEL 1
REMARK VINA RESULT:      -9.5      0.000      0.000
REMARK  Name = 
REMARK  8 active torsions:
REMARK  status: ('A' for Active; 'I' for Inactive)
REMARK    1  A    between atoms: C_1  and  O_2
REMARK    2  A    between atoms: O_2  and  C_3
REMARK    3  A    between atoms: C_8  and  C_9
REMARK    4  A    between atoms: C_9  and  C_10
REMARK    5  A    between atoms: C_9  and  N_21
REMARK    6  A    between atoms: N_14  and  C_15
REMARK    7  A    between atoms: C_15  and  C_16
REMARK    8  A    between atoms: C_27  and  O_28
REMARK                            x       y       z     vdW  Elec       q    Type
REMARK                         _______ _______ _______ _____ _____    ______ ____
ROOT
ATOM      1  C   UNL     1       4.660   4.890  18.003  0.00  0.00    +0.000 C 
ENDROOT
BRANCH   1   7
ATOM      2  C   UNL     1       0.543   9.783  19.556  0.00  0.00    +0.000 A 
ATOM      3  C   UNL     1       0.722   9.050  20.721  0.00  0.00    +0.000 A 
ATOM      4  C   UNL     1       1.524   7.897  20.711  0.00  0.00    +0.000 A 
ATOM      5  C   UNL     1       2.215   7.509  19.546  0.00  0.00    +0.000 A 
ATOM      6  C   UNL     1       3.039   6.357  19.438  0.00  0.00    +0.000 A 
ATOM      7  C   UNL     1       3.782   6.113  18.270  0.00  0.00    +0.000 A 
ATOM      8  C   UNL     1       3.689   7.111  17.321  0.00  0.00    +0.000 A 
ATOM      9  N   UNL     1       2.841   8.142  17.338  0.00  0.00    +0.000 NA
ATOM     10  C   UNL     1       2.095   8.327  18.413  0.00  0.00    +0.000 A 
ATOM     11  C   UNL     1       1.221   9.395  18.403  0.00  0.00    +0.000 A 
BRANCH   2  13
ATOM     12  C   UNL     1      -1.337  10.788  18.506  0.00  0.00    +0.000 C 
ATOM     13  O   UNL     1      -0.230  10.895  19.384  0.00  0.00    +0.000 OA
ENDBRANCH   2  13
BRANCH   8  14
ATOM     14  O   UNL     1       4.572   7.216  16.299  0.00  0.00    +0.000 OA
ATOM     15  H   UNL     1       5.110   7.947  16.659  0.00  0.00    +0.000 HD
ENDBRANCH   8  14
ENDBRANCH   1   7
BRANCH   1  16
ATOM     16  N   UNL     1       3.958   3.580  18.070  0.00  0.00    +0.000 NA
ATOM     17  C   UNL     1       2.640   3.560  17.392  0.00  0.00    +0.000 C 
ATOM     18  C   UNL     1       1.368   3.647  18.274  0.00  0.00    +0.000 C 
ATOM     19  O   UNL     1       1.436   2.835  19.446  0.00  0.00    +0.000 OA
ATOM     20  C   UNL     1       2.620   3.114  20.196  0.00  0.00    +0.000 C 
ATOM     21  C   UNL     1       3.875   2.846  19.348  0.00  0.00    +0.000 C 
ENDBRANCH   1  16
BRANCH   1  22
ATOM     22  C   UNL     1       6.017   4.941  18.698  0.00  0.00    +0.000 A 
ATOM     23  N   UNL     1       6.227   5.239  19.971  0.00  0.00    +0.000 NA
ATOM     24  N   UNL     1       7.577   5.340  20.148  0.00  0.00    +0.000 NA
ATOM     25  N   UNL     1       8.219   5.079  19.025  0.00  0.00    +0.000 NA
ATOM     26  N   UNL     1       7.266   4.857  18.096  0.00  0.00    +0.000 N 
BRANCH  26  27
ATOM     27  C   UNL     1       7.681   4.374  16.796  0.00  0.00    +0.000 C 
BRANCH  27  28
ATOM     28  C   UNL     1       6.820   4.747  15.564  0.00  0.00    +0.000 C 
ATOM     29  C   UNL     1       5.958   3.682  14.880  0.00  0.00    +0.000 C 
ATOM     30  C   UNL     1       5.938   4.124  13.434  0.00  0.00    +0.000 C 
ATOM     31  C   UNL     1       7.259   4.840  13.266  0.00  0.00    +0.000 C 
ATOM     32  O   UNL     1       7.654   5.337  14.550  0.00  0.00    +0.000 OA
ENDBRANCH  27  28
ENDBRANCH  26  27
ENDBRANCH   1  22
TORSDOF 7
ENDMDL
MODEL 2
REMARK VINA RESULT:      -8.8      1.023      1.369
REMARK  Name = 
REMARK  8 active torsions:
REMARK  status: ('A' for Active; 'I' for Inactive)
REMARK    1  A    between atoms: C_1  and  O_2
REMARK    2  A    between atoms: O_2  and  C_3
REMARK    3  A    between atoms: C_8  and  C_9
REMARK    4  A    between atoms: C_9  and  C_10
REMARK    5  A    between atoms: C_9  and  N_21
REMARK    6  A    between atoms: N_14  and  C_15
REMARK    7  A    between atoms: C_15  and  C_16
REMARK    8  A    between atoms: C_27  and  O_28
REMARK                            x       y       z     vdW  Elec       q    Type
REMARK                         _______ _______ _______ _____ _____    ______ ____
ROOT
ATOM      1  C   UNL     1       4.060   4.889  18.534  0.00  0.00    +0.000 C 
ENDROOT
BRANCH   1   7
ATOM      2  C   UNL     1       0.693  10.504  19.190  0.00  0.00    +0.000 A 
ATOM      3  C   UNL     1       0.651   9.887  20.432  0.00  0.00    +0.000 A 
ATOM      4  C   UNL     1       1.250   8.630  20.614  0.00  0.00    +0.000 A 
ATOM      5  C   UNL     1       1.962   8.012  19.567  0.00  0.00    +0.000 A 
ATOM      6  C   UNL     1       2.591   6.741  19.653  0.00  0.00    +0.000 A 
ATOM      7  C   UNL     1       3.377   6.255  18.594  0.00  0.00    +0.000 A 
ATOM      8  C   UNL     1       3.528   7.144  17.548  0.00  0.00    +0.000 A 
ATOM      9  N   UNL     1       2.864   8.289  17.381  0.00  0.00    +0.000 NA
ATOM     10  C   UNL     1       2.072   8.706  18.354  0.00  0.00    +0.000 A 
ATOM     11  C   UNL     1       1.390   9.890  18.153  0.00  0.00    +0.000 A 
BRANCH   2  13
ATOM     12  C   UNL     1       0.906  12.866  19.030  0.00  0.00    +0.000 C 
ATOM     13  O   UNL     1       0.130  11.697  18.835  0.00  0.00    +0.000 OA
ENDBRANCH   2  13
BRANCH   8  14
ATOM     14  O   UNL     1       4.498   6.995  16.614  0.00  0.00    +0.000 OA
ATOM     15  H   UNL     1       5.269   7.148  17.193  0.00  0.00    +0.000 HD
ENDBRANCH   8  14
ENDBRANCH   1   7
BRANCH   1  16
ATOM     16  N   UNL     1       3.465   3.845  19.412  0.00  0.00    +0.000 NA
ATOM     17  C   UNL     1       4.167   2.540  19.368  0.00  0.00    +0.000 C 
ATOM     18  C   UNL     1       3.531   1.399  18.535  0.00  0.00    +0.000 C 
ATOM     19  O   UNL     1       2.116   1.298  18.704  0.00  0.00    +0.000 OA
ATOM     20  C   UNL     1       1.478   2.553  18.458  0.00  0.00    +0.000 C 
ATOM     21  C   UNL     1       2.005   3.628  19.424  0.00  0.00    +0.000 C 
ENDBRANCH   1  16
BRANCH   1  22
ATOM     22  C   UNL     1       5.584   4.960  18.545  0.00  0.00    +0.000 A 
ATOM     23  N   UNL     1       6.330   5.503  19.495  0.00  0.00    +0.000 NA
ATOM     24  N   UNL     1       7.618   5.513  19.044  0.00  0.00    +0.000 NA
ATOM     25  N   UNL     1       7.703   4.957  17.850  0.00  0.00    +0.000 NA
ATOM     26  N   UNL     1       6.441   4.632  17.502  0.00  0.00    +0.000 N 
BRANCH  26  27
ATOM     27  C   UNL     1       6.246   3.844  16.304  0.00  0.00    +0.000 C 
BRANCH  27  28
ATOM     28  C   UNL     1       6.234   4.575  14.938  0.00  0.00    +0.000 C 
ATOM     29  C   UNL     1       5.998   3.784  13.648  0.00  0.00    +0.000 C 
ATOM     30  C   UNL     1       6.789   4.556  12.615  0.00  0.00    +0.000 C 
ATOM     31  C   UNL     1       7.913   5.169  13.418  0.00  0.00    +0.000 C 
ATOM     32  O   UNL     1       7.460   5.311  14.770  0.00  0.00    +0.000 OA
ENDBRANCH  27  28
ENDBRANCH  26  27
ENDBRANCH   1  22
TORSDOF 7
ENDMDL
MODEL 3
REMARK VINA RESULT:      -8.7      1.230      1.811
REMARK  Name = 
REMARK  8 active torsions:
REMARK  status: ('A' for Active; 'I' for Inactive)
REMARK    1  A    between atoms: C_1  and  O_2
REMARK    2  A    between atoms: O_2  and  C_3
REMARK    3  A    between atoms: C_8  and  C_9
REMARK    4  A    between atoms: C_9  and  C_10
REMARK    5  A    between atoms: C_9  and  N_21
REMARK    6  A    between atoms: N_14  and  C_15
REMARK    7  A    between atoms: C_15  and  C_16
REMARK    8  A    between atoms: C_27  and  O_28
REMARK                            x       y       z     vdW  Elec       q    Type
REMARK                         _______ _______ _______ _____ _____    ______ ____
ROOT
ATOM      1  C   UNL     1       4.117   5.239  17.737  0.00  0.00    +0.000 C 
ENDROOT
BRANCH   1   7
ATOM      2  C   UNL     1       0.409  10.161  20.045  0.00  0.00    +0.000 A 
ATOM      3  C   UNL     1       0.390  10.285  18.662  0.00  0.00    +0.000 A 
ATOM      4  C   UNL     1       1.133   9.397  17.866  0.00  0.00    +0.000 A 
ATOM      5  C   UNL     1       1.845   8.329  18.448  0.00  0.00    +0.000 A 
ATOM      6  C   UNL     1       2.629   7.390  17.727  0.00  0.00    +0.000 A 
ATOM      7  C   UNL     1       3.210   6.288  18.379  0.00  0.00    +0.000 A 
ATOM      8  C   UNL     1       2.879   6.184  19.716  0.00  0.00    +0.000 A 
ATOM      9  N   UNL     1       2.247   7.102  20.448  0.00  0.00    +0.000 NA
ATOM     10  C   UNL     1       1.762   8.170  19.838  0.00  0.00    +0.000 A 
ATOM     11  C   UNL     1       1.118   9.110  20.619  0.00  0.00    +0.000 A 
BRANCH   2  13
ATOM     12  C   UNL     1      -0.480  10.403  22.235  0.00  0.00    +0.000 C 
ATOM     13  O   UNL     1      -0.217  10.958  20.959  0.00  0.00    +0.000 OA
ENDBRANCH   2  13
BRANCH   8  14
ATOM     14  O   UNL     1       3.062   5.037  20.413  0.00  0.00    +0.000 OA
ATOM     15  H   UNL     1       3.082   5.424  21.309  0.00  0.00    +0.000 HD
ENDBRANCH   8  14
ENDBRANCH   1   7
BRANCH   1  16
ATOM     16  N   UNL     1       3.457   3.944  17.415  0.00  0.00    +0.000 NA
ATOM     17  C   UNL     1       1.976   4.001  17.410  0.00  0.00    +0.000 C 
ATOM     18  C   UNL     1       1.223   3.431  18.639  0.00  0.00    +0.000 C 
ATOM     19  O   UNL     1       1.760   2.194  19.108  0.00  0.00    +0.000 OA
ATOM     20  C   UNL     1       3.164   2.303  19.351  0.00  0.00    +0.000 C 
ATOM     21  C   UNL     1       3.909   2.698  18.064  0.00  0.00    +0.000 C 
ENDBRANCH   1  16
BRANCH   1  22
ATOM     22  C   UNL     1       5.491   5.127  18.391  0.00  0.00    +0.000 A 
ATOM     23  N   UNL     1       5.811   5.550  19.605  0.00  0.00    +0.000 NA
ATOM     24  N   UNL     1       7.162   5.418  19.738  0.00  0.00    +0.000 NA
ATOM     25  N   UNL     1       7.693   4.891  18.651  0.00  0.00    +0.000 NA
ATOM     26  N   UNL     1       6.674   4.729  17.782  0.00  0.00    +0.000 N 
BRANCH  26  27
ATOM     27  C   UNL     1       6.933   4.005  16.556  0.00  0.00    +0.000 C 
BRANCH  27  28
ATOM     28  C   UNL     1       6.596   4.694  15.211  0.00  0.00    +0.000 C 
ATOM     29  C   UNL     1       6.100   3.861  14.025  0.00  0.00    +0.000 C 
ATOM     30  C   UNL     1       6.619   4.619  12.823  0.00  0.00    +0.000 C 
ATOM     31  C   UNL     1       7.878   5.279  13.339  0.00  0.00    +0.000 C 
ATOM     32  O   UNL     1       7.733   5.451  14.754  0.00  0.00    +0.000 OA
ENDBRANCH  27  28
ENDBRANCH  26  27
ENDBRANCH   1  22
TORSDOF 7
ENDMDL
MODEL 4
REMARK VINA RESULT:      -8.6      1.158      1.534
REMARK  Name = 
REMARK  8 active torsions:
REMARK  status: ('A' for Active; 'I' for Inactive)
REMARK    1  A    between atoms: C_1  and  O_2
REMARK    2  A    between atoms: O_2  and  C_3
REMARK    3  A    between atoms: C_8  and  C_9
REMARK    4  A    between atoms: C_9  and  C_10
REMARK    5  A    between atoms: C_9  and  N_21
REMARK    6  A    between atoms: N_14  and  C_15
REMARK    7  A    between atoms: C_15  and  C_16
REMARK    8  A    between atoms: C_27  and  O_28
REMARK                            x       y       z     vdW  Elec       q    Type
REMARK                         _______ _______ _______ _____ _____    ______ ____
ROOT
ATOM      1  C   UNL     1       3.696   5.072  18.362  0.00  0.00    +0.000 C 
ENDROOT
BRANCH   1   7
ATOM      2  C   UNL     1       0.476  10.517  20.175  0.00  0.00    +0.000 A 
ATOM      3  C   UNL     1       0.526   9.710  21.303  0.00  0.00    +0.000 A 
ATOM      4  C   UNL     1       1.119   8.438  21.233  0.00  0.00    +0.000 A 
ATOM      5  C   UNL     1       1.735   7.994  20.046  0.00  0.00    +0.000 A 
ATOM      6  C   UNL     1       2.349   6.724  19.877  0.00  0.00    +0.000 A 
ATOM      7  C   UNL     1       3.040   6.413  18.693  0.00  0.00    +0.000 A 
ATOM      8  C   UNL     1       3.120   7.457  17.794  0.00  0.00    +0.000 A 
ATOM      9  N   UNL     1       2.461   8.615  17.865  0.00  0.00    +0.000 NA
ATOM     10  C   UNL     1       1.757   8.873  18.954  0.00  0.00    +0.000 A 
ATOM     11  C   UNL     1       1.078  10.075  19.000  0.00  0.00    +0.000 A 
BRANCH   2  13
ATOM     12  C   UNL     1      -1.312  11.971  20.753  0.00  0.00    +0.000 C 
ATOM     13  O   UNL     1      -0.095  11.751  20.062  0.00  0.00    +0.000 OA
ENDBRANCH   2  13
BRANCH   8  14
ATOM     14  O   UNL     1       4.008   7.457  16.771  0.00  0.00    +0.000 OA
ATOM     15  H   UNL     1       3.960   6.507  16.549  0.00  0.00    +0.000 HD
ENDBRANCH   8  14
ENDBRANCH   1   7
BRANCH   1  16
ATOM     16  N   UNL     1       2.924   3.869  18.777  0.00  0.00    +0.000 NA
ATOM     17  C   UNL     1       3.436   3.210  20.001  0.00  0.00    +0.000 C 
ATOM     18  C   UNL     1       4.274   1.916  19.834  0.00  0.00    +0.000 C 
ATOM     19  O   UNL     1       3.736   1.016  18.864  0.00  0.00    +0.000 OA
ATOM     20  C   UNL     1       3.523   1.675  17.614  0.00  0.00    +0.000 C 
ATOM     21  C   UNL     1       2.544   2.850  17.780  0.00  0.00    +0.000 C 
ENDBRANCH   1  16
BRANCH   1  22
ATOM     22  C   UNL     1       5.190   5.025  18.664  0.00  0.00    +0.000 A 
ATOM     23  N   UNL     1       5.781   5.519  19.742  0.00  0.00    +0.000 NA
ATOM     24  N   UNL     1       7.129   5.424  19.546  0.00  0.00    +0.000 NA
ATOM     25  N   UNL     1       7.396   4.850  18.388  0.00  0.00    +0.000 NA
ATOM     26  N   UNL     1       6.203   4.620  17.804  0.00  0.00    +0.000 N 
BRANCH  26  27
ATOM     27  C   UNL     1       6.180   3.837  16.587  0.00  0.00    +0.000 C 
BRANCH  27  28
ATOM     28  C   UNL     1       6.151   4.586  15.232  0.00  0.00    +0.000 C 
ATOM     29  C   UNL     1       5.908   3.811  13.933  0.00  0.00    +0.000 C 
ATOM     30  C   UNL     1       6.685   4.601  12.903  0.00  0.00    +0.000 C 
ATOM     31  C   UNL     1       7.814   5.210  13.705  0.00  0.00    +0.000 C 
ATOM     32  O   UNL     1       7.371   5.330  15.062  0.00  0.00    +0.000 OA
ENDBRANCH  27  28
ENDBRANCH  26  27
ENDBRANCH   1  22
TORSDOF 7
ENDMDL
MODEL 5
REMARK VINA RESULT:      -8.5      1.553      2.076
REMARK  Name = 
REMARK  8 active torsions:
REMARK  status: ('A' for Active; 'I' for Inactive)
REMARK    1  A    between atoms: C_1  and  O_2
REMARK    2  A    between atoms: O_2  and  C_3
REMARK    3  A    between atoms: C_8  and  C_9
REMARK    4  A    between atoms: C_9  and  C_10
REMARK    5  A    between atoms: C_9  and  N_21
REMARK    6  A    between atoms: N_14  and  C_15
REMARK    7  A    between atoms: C_15  and  C_16
REMARK    8  A    between atoms: C_27  and  O_28
REMARK                            x       y       z     vdW  Elec       q    Type
REMARK                         _______ _______ _______ _____ _____    ______ ____
ROOT
ATOM      1  C   UNL     1       2.867   5.912  18.266  0.00  0.00    +0.000 C 
ENDROOT
BRANCH   1   7
ATOM      2  C   UNL     1       0.031  10.793  21.648  0.00  0.00    +0.000 A 
ATOM      3  C   UNL     1       0.379   9.831  22.586  0.00  0.00    +0.000 A 
ATOM      4  C   UNL     1       0.973   8.627  22.172  0.00  0.00    +0.000 A 
ATOM      5  C   UNL     1       1.293   8.409  20.817  0.00  0.00    +0.000 A 
ATOM      6  C   UNL     1       1.884   7.223  20.305  0.00  0.00    +0.000 A 
ATOM      7  C   UNL     1       2.273   7.140  18.956  0.00  0.00    +0.000 A 
ATOM      8  C   UNL     1       2.100   8.310  18.245  0.00  0.00    +0.000 A 
ATOM      9  N   UNL     1       1.445   9.397  18.657  0.00  0.00    +0.000 NA
ATOM     10  C   UNL     1       1.021   9.441  19.908  0.00  0.00    +0.000 A 
ATOM     11  C   UNL     1       0.340  10.574  20.308  0.00  0.00    +0.000 A 
BRANCH   2  13
ATOM     12  C   UNL     1      -1.783  12.249  21.163  0.00  0.00    +0.000 C 
ATOM     13  O   UNL     1      -0.587  11.989  21.875  0.00  0.00    +0.000 OA
ENDBRANCH   2  13
BRANCH   8  14
ATOM     14  O   UNL     1       2.711   8.524  17.055  0.00  0.00    +0.000 OA
ATOM     15  H   UNL     1       3.263   7.719  17.039  0.00  0.00    +0.000 HD
ENDBRANCH   8  14
ENDBRANCH   1   7
BRANCH   1  16
ATOM     16  N   UNL     1       1.988   4.711  18.245  0.00  0.00    +0.000 NA
ATOM     17  C   UNL     1       1.543   4.260  19.585  0.00  0.00    +0.000 C 
ATOM     18  C   UNL     1       2.252   3.032  20.212  0.00  0.00    +0.000 C 
ATOM     19  O   UNL     1       2.475   1.972  19.281  0.00  0.00    +0.000 OA
ATOM     20  C   UNL     1       3.161   2.445  18.120  0.00  0.00    +0.000 C 
ATOM     21  C   UNL     1       2.345   3.543  17.416  0.00  0.00    +0.000 C 
ENDBRANCH   1  16
BRANCH   1  22
ATOM     22  C   UNL     1       4.326   5.648  18.625  0.00  0.00    +0.000 A 
ATOM     23  N   UNL     1       4.761   5.054  19.726  0.00  0.00    +0.000 NA
ATOM     24  N   UNL     1       6.120   5.169  19.740  0.00  0.00    +0.000 NA
ATOM     25  N   UNL     1       6.551   5.789  18.658  0.00  0.00    +0.000 NA
ATOM     26  N   UNL     1       5.448   6.126  17.960  0.00  0.00    +0.000 N 
BRANCH  26  27
ATOM     27  C   UNL     1       5.623   6.672  16.631  0.00  0.00    +0.000 C 
BRANCH  27  28
ATOM     28  C   UNL     1       5.498   5.714  15.421  0.00  0.00    +0.000 C 
ATOM     29  C   UNL     1       5.322   4.210  15.649  0.00  0.00    +0.000 C 
ATOM     30  C   UNL     1       5.997   3.591  14.445  0.00  0.00    +0.000 C 
ATOM     31  C   UNL     1       7.066   4.599  14.085  0.00  0.00    +0.000 C 
ATOM     32  O   UNL     1       6.630   5.883  14.548  0.00  0.00    +0.000 OA
ENDBRANCH  27  28
ENDBRANCH  26  27
ENDBRANCH   1  22
TORSDOF 7
ENDMDL
MODEL 6
REMARK VINA RESULT:      -8.5      1.431      2.049
REMARK  Name = 
REMARK  8 active torsions:
REMARK  status: ('A' for Active; 'I' for Inactive)
REMARK    1  A    between atoms: C_1  and  O_2
REMARK    2  A    between atoms: O_2  and  C_3
REMARK    3  A    between atoms: C_8  and  C_9
REMARK    4  A    between atoms: C_9  and  C_10
REMARK    5  A    between atoms: C_9  and  N_21
REMARK    6  A    between atoms: N_14  and  C_15
REMARK    7  A    between atoms: C_15  and  C_16
REMARK    8  A    between atoms: C_27  and  O_28
REMARK                            x       y       z     vdW  Elec       q    Type
REMARK                         _______ _______ _______ _____ _____    ______ ____
ROOT
ATOM      1  C   UNL     1       4.028   5.542  17.891  0.00  0.00    +0.000 C 
ENDROOT
BRANCH   1   7
ATOM      2  C   UNL     1       0.137  10.294  20.254  0.00  0.00    +0.000 A 
ATOM      3  C   UNL     1       0.114  10.433  18.874  0.00  0.00    +0.000 A 
ATOM      4  C   UNL     1       0.890   9.584  18.067  0.00  0.00    +0.000 A 
ATOM      5  C   UNL     1       1.641   8.536  18.637  0.00  0.00    +0.000 A 
ATOM      6  C   UNL     1       2.460   7.636  17.905  0.00  0.00    +0.000 A 
ATOM      7  C   UNL     1       3.082   6.550  18.545  0.00  0.00    +0.000 A 
ATOM      8  C   UNL     1       2.755   6.417  19.880  0.00  0.00    +0.000 A 
ATOM      9  N   UNL     1       2.088   7.302  20.623  0.00  0.00    +0.000 NA
ATOM     10  C   UNL     1       1.564   8.358  20.025  0.00  0.00    +0.000 A 
ATOM     11  C   UNL     1       0.885   9.264  20.817  0.00  0.00    +0.000 A 
BRANCH   2  13
ATOM     12  C   UNL     1      -0.657  10.523  22.482  0.00  0.00    +0.000 C 
ATOM     13  O   UNL     1      -0.519  11.057  21.177  0.00  0.00    +0.000 OA
ENDBRANCH   2  13
BRANCH   8  14
ATOM     14  O   UNL     1       2.981   5.269  20.564  0.00  0.00    +0.000 OA
ATOM     15  H   UNL     1       2.266   5.362  21.223  0.00  0.00    +0.000 HD
ENDBRANCH   8  14
ENDBRANCH   1   7
BRANCH   1  16
ATOM     16  N   UNL     1       3.403   4.250  17.497  0.00  0.00    +0.000 NA
ATOM     17  C   UNL     1       1.923   4.243  17.574  0.00  0.00    +0.000 C 
ATOM     18  C   UNL     1       1.261   3.544  18.788  0.00  0.00    +0.000 C 
ATOM     19  O   UNL     1       1.871   2.297  19.125  0.00  0.00    +0.000 OA
ATOM     20  C   UNL     1       3.281   2.448  19.304  0.00  0.00    +0.000 C 
ATOM     21  C   UNL     1       3.938   2.977  18.017  0.00  0.00    +0.000 C 
ENDBRANCH   1  16
BRANCH   1  22
ATOM     22  C   UNL     1       5.383   5.429  18.583  0.00  0.00    +0.000 A 
ATOM     23  N   UNL     1       5.612   4.849  19.752  0.00  0.00    +0.000 NA
ATOM     24  N   UNL     1       6.908   5.112  20.089  0.00  0.00    +0.000 NA
ATOM     25  N   UNL     1       7.507   5.813  19.144  0.00  0.00    +0.000 NA
ATOM     26  N   UNL     1       6.566   6.050  18.207  0.00  0.00    +0.000 N 
BRANCH  26  27
ATOM     27  C   UNL     1       6.984   6.657  16.961  0.00  0.00    +0.000 C 
BRANCH  27  28
ATOM     28  C   UNL     1       6.870   5.822  15.662  0.00  0.00    +0.000 C 
ATOM     29  C   UNL     1       5.531   5.730  14.925  0.00  0.00    +0.000 C 
ATOM     30  C   UNL     1       5.573   4.357  14.291  0.00  0.00    +0.000 C 
ATOM     31  C   UNL     1       6.440   3.559  15.239  0.00  0.00    +0.000 C 
ATOM     32  O   UNL     1       7.314   4.475  15.910  0.00  0.00    +0.000 OA
ENDBRANCH  27  28
ENDBRANCH  26  27
ENDBRANCH   1  22
TORSDOF 7
ENDMDL
MODEL 7
REMARK VINA RESULT:      -8.4      1.607      2.439
REMARK  Name = 
REMARK  8 active torsions:
REMARK  status: ('A' for Active; 'I' for Inactive)
REMARK    1  A    between atoms: C_1  and  O_2
REMARK    2  A    between atoms: O_2  and  C_3
REMARK    3  A    between atoms: C_8  and  C_9
REMARK    4  A    between atoms: C_9  and  C_10
REMARK    5  A    between atoms: C_9  and  N_21
REMARK    6  A    between atoms: N_14  and  C_15
REMARK    7  A    between atoms: C_15  and  C_16
REMARK    8  A    between atoms: C_27  and  O_28
REMARK                            x       y       z     vdW  Elec       q    Type
REMARK                         _______ _______ _______ _____ _____    ______ ____
ROOT
ATOM      1  C   UNL     1       3.384   5.265  18.748  0.00  0.00    +0.000 C 
ENDROOT
BRANCH   1   7
ATOM      2  C   UNL     1       0.418  11.013  19.962  0.00  0.00    +0.000 A 
ATOM      3  C   UNL     1       0.602  10.961  18.587  0.00  0.00    +0.000 A 
ATOM      4  C   UNL     1       1.259   9.864  18.006  0.00  0.00    +0.000 A 
ATOM      5  C   UNL     1       1.671   8.770  18.793  0.00  0.00    +0.000 A 
ATOM      6  C   UNL     1       2.349   7.625  18.297  0.00  0.00    +0.000 A 
ATOM      7  C   UNL     1       2.619   6.531  19.137  0.00  0.00    +0.000 A 
ATOM      8  C   UNL     1       2.104   6.656  20.412  0.00  0.00    +0.000 A 
ATOM      9  N   UNL     1       1.569   7.756  20.944  0.00  0.00    +0.000 NA
ATOM     10  C   UNL     1       1.380   8.806  20.164  0.00  0.00    +0.000 A 
ATOM     11  C   UNL     1       0.832   9.935  20.740  0.00  0.00    +0.000 A 
BRANCH   2  13
ATOM     12  C   UNL     1      -0.699  13.110  19.967  0.00  0.00    +0.000 C 
ATOM     13  O   UNL     1      -0.158  12.017  20.686  0.00  0.00    +0.000 OA
ENDBRANCH   2  13
BRANCH   8  14
ATOM     14  O   UNL     1       1.972   5.593  21.241  0.00  0.00    +0.000 OA
ATOM     15  H   UNL     1       2.435   5.966  22.015  0.00  0.00    +0.000 HD
ENDBRANCH   8  14
ENDBRANCH   1   7
BRANCH   1  16
ATOM     16  N   UNL     1       2.822   3.996  19.285  0.00  0.00    +0.000 NA
ATOM     17  C   UNL     1       3.832   3.087  19.879  0.00  0.00    +0.000 C 
ATOM     18  C   UNL     1       4.295   1.868  19.042  0.00  0.00    +0.000 C 
ATOM     19  O   UNL     1       3.222   1.198  18.377  0.00  0.00    +0.000 OA
ATOM     20  C   UNL     1       2.450   2.114  17.597  0.00  0.00    +0.000 C 
ATOM     21  C   UNL     1       1.854   3.217  18.489  0.00  0.00    +0.000 C 
ENDBRANCH   1  16
BRANCH   1  22
ATOM     22  C   UNL     1       4.899   5.405  18.852  0.00  0.00    +0.000 A 
ATOM     23  N   UNL     1       5.655   4.960  19.845  0.00  0.00    +0.000 NA
ATOM     24  N   UNL     1       6.918   5.434  19.639  0.00  0.00    +0.000 NA
ATOM     25  N   UNL     1       6.981   6.135  18.522  0.00  0.00    +0.000 NA
ATOM     26  N   UNL     1       5.726   6.158  18.028  0.00  0.00    +0.000 N 
BRANCH  26  27
ATOM     27  C   UNL     1       5.524   6.717  16.708  0.00  0.00    +0.000 C 
BRANCH  27  28
ATOM     28  C   UNL     1       5.459   5.747  15.502  0.00  0.00    +0.000 C 
ATOM     29  C   UNL     1       5.158   4.263  15.728  0.00  0.00    +0.000 C 
ATOM     30  C   UNL     1       5.910   3.579  14.607  0.00  0.00    +0.000 C 
ATOM     31  C   UNL     1       7.076   4.506  14.349  0.00  0.00    +0.000 C 
ATOM     32  O   UNL     1       6.684   5.825  14.750  0.00  0.00    +0.000 OA
ENDBRANCH  27  28
ENDBRANCH  26  27
ENDBRANCH   1  22
TORSDOF 7
ENDMDL
MODEL 8
REMARK VINA RESULT:      -8.3      1.510      2.323
REMARK  Name = 
REMARK  8 active torsions:
REMARK  status: ('A' for Active; 'I' for Inactive)
REMARK    1  A    between atoms: C_1  and  O_2
REMARK    2  A    between atoms: O_2  and  C_3
REMARK    3  A    between atoms: C_8  and  C_9
REMARK    4  A    between atoms: C_9  and  C_10
REMARK    5  A    between atoms: C_9  and  N_21
REMARK    6  A    between atoms: N_14  and  C_15
REMARK    7  A    between atoms: C_15  and  C_16
REMARK    8  A    between atoms: C_27  and  O_28
REMARK                            x       y       z     vdW  Elec       q    Type
REMARK                         _______ _______ _______ _____ _____    ______ ____
ROOT
ATOM      1  C   UNL     1       3.516   4.959  18.552  0.00  0.00    +0.000 C 
ENDROOT
BRANCH   1   7
ATOM      2  C   UNL     1       0.704  10.768  19.840  0.00  0.00    +0.000 A 
ATOM      3  C   UNL     1       0.925  10.746  18.469  0.00  0.00    +0.000 A 
ATOM      4  C   UNL     1       1.561   9.643  17.876  0.00  0.00    +0.000 A 
ATOM      5  C   UNL     1       1.916   8.516  18.645  0.00  0.00    +0.000 A 
ATOM      6  C   UNL     1       2.570   7.362  18.136  0.00  0.00    +0.000 A 
ATOM      7  C   UNL     1       2.781   6.238  18.954  0.00  0.00    +0.000 A 
ATOM      8  C   UNL     1       2.235   6.347  20.218  0.00  0.00    +0.000 A 
ATOM      9  N   UNL     1       1.722   7.451  20.765  0.00  0.00    +0.000 NA
ATOM     10  C   UNL     1       1.589   8.526  20.008  0.00  0.00    +0.000 A 
ATOM     11  C   UNL     1       1.062   9.657  20.599  0.00  0.00    +0.000 A 
BRANCH   2  13
ATOM     12  C   UNL     1      -0.578  11.402  21.737  0.00  0.00    +0.000 C 
ATOM     13  O   UNL     1       0.142  11.771  20.575  0.00  0.00    +0.000 OA
ENDBRANCH   2  13
BRANCH   8  14
ATOM     14  O   UNL     1       2.046   5.268  21.014  0.00  0.00    +0.000 OA
ATOM     15  H   UNL     1       2.225   4.576  20.349  0.00  0.00    +0.000 HD
ENDBRANCH   8  14
ENDBRANCH   1   7
BRANCH   1  16
ATOM     16  N   UNL     1       2.851   3.692  18.962  0.00  0.00    +0.000 NA
ATOM     17  C   UNL     1       3.570   2.942  20.019  0.00  0.00    +0.000 C 
ATOM     18  C   UNL     1       4.403   1.705  19.594  0.00  0.00    +0.000 C 
ATOM     19  O   UNL     1       3.739   0.879  18.637  0.00  0.00    +0.000 OA
ATOM     20  C   UNL     1       3.311   1.643  17.508  0.00  0.00    +0.000 C 
ATOM     21  C   UNL     1       2.342   2.756  17.941  0.00  0.00    +0.000 C 
ENDBRANCH   1  16
BRANCH   1  22
ATOM     22  C   UNL     1       5.021   5.012  18.788  0.00  0.00    +0.000 A 
ATOM     23  N   UNL     1       5.626   5.559  19.832  0.00  0.00    +0.000 NA
ATOM     24  N   UNL     1       6.967   5.547  19.577  0.00  0.00    +0.000 NA
ATOM     25  N   UNL     1       7.220   4.975  18.415  0.00  0.00    +0.000 NA
ATOM     26  N   UNL     1       6.019   4.660  17.888  0.00  0.00    +0.000 N 
BRANCH  26  27
ATOM     27  C   UNL     1       5.993   3.860  16.682  0.00  0.00    +0.000 C 
BRANCH  27  28
ATOM     28  C   UNL     1       6.015   4.588  15.316  0.00  0.00    +0.000 C 
ATOM     29  C   UNL     1       5.781   3.800  14.023  0.00  0.00    +0.000 C 
ATOM     30  C   UNL     1       6.601   4.554  13.000  0.00  0.00    +0.000 C 
ATOM     31  C   UNL     1       7.727   5.146  13.818  0.00  0.00    +0.000 C 
ATOM     32  O   UNL     1       7.257   5.299  15.163  0.00  0.00    +0.000 OA
ENDBRANCH  27  28
ENDBRANCH  26  27
ENDBRANCH   1  22
TORSDOF 7
ENDMDL
MODEL 9
REMARK VINA RESULT:      -8.1      1.103      1.332
REMARK  Name = 
REMARK  8 active torsions:
REMARK  status: ('A' for Active; 'I' for Inactive)
REMARK    1  A    between atoms: C_1  and  O_2
REMARK    2  A    between atoms: O_2  and  C_3
REMARK    3  A    between atoms: C_8  and  C_9
REMARK    4  A    between atoms: C_9  and  C_10
REMARK    5  A    between atoms: C_9  and  N_21
REMARK    6  A    between atoms: N_14  and  C_15
REMARK    7  A    between atoms: C_15  and  C_16
REMARK    8  A    between atoms: C_27  and  O_28
REMARK                            x       y       z     vdW  Elec       q    Type
REMARK                         _______ _______ _______ _____ _____    ______ ____
ROOT
ATOM      1  C   UNL     1       4.066   4.954  17.468  0.00  0.00    +0.000 C 
ENDROOT
BRANCH   1   7
ATOM      2  C   UNL     1       0.675   9.662  20.573  0.00  0.00    +0.000 A 
ATOM      3  C   UNL     1       0.965   8.703  21.535  0.00  0.00    +0.000 A 
ATOM      4  C   UNL     1       1.653   7.532  21.176  0.00  0.00    +0.000 A 
ATOM      5  C   UNL     1       2.122   7.346  19.860  0.00  0.00    +0.000 A 
ATOM      6  C   UNL     1       2.817   6.194  19.403  0.00  0.00    +0.000 A 
ATOM      7  C   UNL     1       3.348   6.146  18.102  0.00  0.00    +0.000 A 
ATOM      8  C   UNL     1       3.198   7.317  17.386  0.00  0.00    +0.000 A 
ATOM      9  N   UNL     1       2.456   8.368  17.736  0.00  0.00    +0.000 NA
ATOM     10  C   UNL     1       1.901   8.377  18.936  0.00  0.00    +0.000 A 
ATOM     11  C   UNL     1       1.132   9.473  19.272  0.00  0.00    +0.000 A 
BRANCH   2  13
ATOM     12  C   UNL     1       0.738  12.019  20.863  0.00  0.00    +0.000 C 
ATOM     13  O   UNL     1      -0.016  10.826  20.744  0.00  0.00    +0.000 OA
ENDBRANCH   2  13
BRANCH   8  14
ATOM     14  O   UNL     1       3.920   7.572  16.268  0.00  0.00    +0.000 OA
ATOM     15  H   UNL     1       4.797   7.654  16.689  0.00  0.00    +0.000 HD
ENDBRANCH   8  14
ENDBRANCH   1   7
BRANCH   1  16
ATOM     16  N   UNL     1       3.330   3.662  17.538  0.00  0.00    +0.000 NA
ATOM     17  C   UNL     1       1.855   3.802  17.554  0.00  0.00    +0.000 C 
ATOM     18  C   UNL     1       1.123   3.643  18.911  0.00  0.00    +0.000 C 
ATOM     19  O   UNL     1       1.617   2.557  19.696  0.00  0.00    +0.000 OA
ATOM     20  C   UNL     1       3.033   2.648  19.865  0.00  0.00    +0.000 C 
ATOM     21  C   UNL     1       3.745   2.623  18.501  0.00  0.00    +0.000 C 
ENDBRANCH   1  16
BRANCH   1  22
ATOM     22  C   UNL     1       5.552   4.879  17.802  0.00  0.00    +0.000 A 
ATOM     23  N   UNL     1       6.070   4.492  18.959  0.00  0.00    +0.000 NA
ATOM     24  N   UNL     1       7.412   4.732  18.903  0.00  0.00    +0.000 NA
ATOM     25  N   UNL     1       7.753   5.227  17.728  0.00  0.00    +0.000 NA
ATOM     26  N   UNL     1       6.605   5.358  17.034  0.00  0.00    +0.000 N 
BRANCH  26  27
ATOM     27  C   UNL     1       6.692   5.721  15.635  0.00  0.00    +0.000 C 
BRANCH  27  28
ATOM     28  C   UNL     1       6.962   4.601  14.601  0.00  0.00    +0.000 C 
ATOM     29  C   UNL     1       7.534   4.951  13.224  0.00  0.00    +0.000 C 
ATOM     30  C   UNL     1       6.946   3.890  12.320  0.00  0.00    +0.000 C 
ATOM     31  C   UNL     1       5.631   3.551  12.985  0.00  0.00    +0.000 C 
ATOM     32  O   UNL     1       5.759   3.841  14.382  0.00  0.00    +0.000 OA
ENDBRANCH  27  28
ENDBRANCH  26  27
ENDBRANCH   1  22
TORSDOF 7
ENDMDL
