MODEL 1
REMARK VINA RESULT:      -8.9      0.000      0.000
REMARK  Name = 
REMARK  6 active torsions:
REMARK  status: ('A' for Active; 'I' for Inactive)
REMARK    1  A    between atoms: C_1  and  O_2
REMARK    2  A    between atoms: O_2  and  C_3
REMARK    3  A    between atoms: C_8  and  C_9
REMARK    4  A    between atoms: C_9  and  C_10
REMARK    5  A    between atoms: C_9  and  N_11
REMARK    6  A    between atoms: C_12  and  C_14
REMARK                            x       y       z     vdW  Elec       q    Type
REMARK                         _______ _______ _______ _____ _____    ______ ____
ROOT
ATOM      1  C   UNL     1       6.472   6.078  17.495  0.00  0.00    +0.000 C 
ATOM      2  C   UNL     1       7.797   6.034  18.255  0.00  0.00    +0.000 C 
ENDROOT
BRANCH   1   8
ATOM      3  C   UNL     1       6.194   3.290  12.195  0.00  0.00    +0.000 A 
ATOM      4  C   UNL     1       7.236   4.164  11.870  0.00  0.00    +0.000 A 
ATOM      5  C   UNL     1       7.778   5.037  12.822  0.00  0.00    +0.000 A 
ATOM      6  C   UNL     1       7.210   5.002  14.091  0.00  0.00    +0.000 A 
ATOM      7  N   UNL     1       7.474   5.706  15.229  0.00  0.00    +0.000 N 
ATOM      8  C   UNL     1       6.556   5.353  16.187  0.00  0.00    +0.000 A 
ATOM      9  N   UNL     1       5.776   4.382  15.750  0.00  0.00    +0.000 NA
ATOM     10  C   UNL     1       6.160   4.165  14.445  0.00  0.00    +0.000 A 
ATOM     11  C   UNL     1       5.645   3.282  13.486  0.00  0.00    +0.000 A 
ATOM     12  H   UNL     1       8.204   6.399  15.368  0.00  0.00    +0.000 HD
BRANCH   3  14
ATOM     13  C   UNL     1       6.302   1.190  11.109  0.00  0.00    +0.000 C 
ATOM     14  O   UNL     1       5.608   2.414  11.317  0.00  0.00    +0.000 OA
ENDBRANCH   3  14
ENDBRANCH   1   8
BRANCH   1  15
ATOM     15  N   UNL     1       5.356   5.594  18.294  0.00  0.00    +0.000 N 
ATOM     16  C   UNL     1       4.081   6.107  18.275  0.00  0.00    +0.000 C 
ATOM     17  O   UNL     1       3.774   7.122  17.654  0.00  0.00    +0.000 OA
ATOM     18  H   UNL     1       5.517   4.746  18.832  0.00  0.00    +0.000 HD
BRANCH  16  19
ATOM     19  C   UNL     1       3.043   5.373  19.047  0.00  0.00    +0.000 A 
ATOM     20  C   UNL     1       2.290   6.082  19.999  0.00  0.00    +0.000 A 
ATOM     21  C   UNL     1       1.253   5.456  20.709  0.00  0.00    +0.000 A 
ATOM     22  C   UNL     1       0.947   4.114  20.480  0.00  0.00    +0.000 A 
ATOM     23  C   UNL     1       1.708   3.415  19.559  0.00  0.00    +0.000 A 
ATOM     24  C   UNL     1       2.740   4.032  18.861  0.00  0.00    +0.000 A 
ATOM     25  O   UNL     1       3.360   3.179  17.975  0.00  0.00    +0.000 OA
ATOM     26  C   UNL     1       2.884   1.868  18.361  0.00  0.00    +0.000 C 
ATOM     27  C   UNL     1       1.548   2.023  19.078  0.00  0.00    +0.000 C 
ENDBRANCH  16  19
ENDBRANCH   1  15
TORSDOF 4
ENDMDL
MODEL 2
REMARK VINA RESULT:      -7.8      1.376      1.434
REMARK  Name = 
REMARK  6 active torsions:
REMARK  status: ('A' for Active; 'I' for Inactive)
REMARK    1  A    between atoms: C_1  and  O_2
REMARK    2  A    between atoms: O_2  and  C_3
REMARK    3  A    between atoms: C_8  and  C_9
REMARK    4  A    between atoms: C_9  and  C_10
REMARK    5  A    between atoms: C_9  and  N_11
REMARK    6  A    between atoms: C_12  and  C_14
REMARK                            x       y       z     vdW  Elec       q    Type
REMARK                         _______ _______ _______ _____ _____    ______ ____
ROOT
ATOM      1  C   UNL     1       6.616   6.162  17.390  0.00  0.00    +0.000 C 
ATOM      2  C   UNL     1       7.785   5.772  18.295  0.00  0.00    +0.000 C 
ENDROOT
BRANCH   1   8
ATOM      3  C   UNL     1       6.066   3.252  12.178  0.00  0.00    +0.000 A 
ATOM      4  C   UNL     1       7.157   4.045  11.813  0.00  0.00    +0.000 A 
ATOM      5  C   UNL     1       7.772   4.906  12.730  0.00  0.00    +0.000 A 
ATOM      6  C   UNL     1       7.224   4.944  14.008  0.00  0.00    +0.000 A 
ATOM      7  N   UNL     1       7.553   5.661  15.121  0.00  0.00    +0.000 N 
ATOM      8  C   UNL     1       6.630   5.397  16.103  0.00  0.00    +0.000 A 
ATOM      9  N   UNL     1       5.780   4.468  15.706  0.00  0.00    +0.000 NA
ATOM     10  C   UNL     1       6.127   4.190  14.402  0.00  0.00    +0.000 A 
ATOM     11  C   UNL     1       5.539   3.316  13.476  0.00  0.00    +0.000 A 
ATOM     12  H   UNL     1       8.330   6.307  15.229  0.00  0.00    +0.000 HD
BRANCH   3  14
ATOM     13  C   UNL     1       6.040   1.138  11.114  0.00  0.00    +0.000 C 
ATOM     14  O   UNL     1       5.408   2.393  11.334  0.00  0.00    +0.000 OA
ENDBRANCH   3  14
ENDBRANCH   1   8
BRANCH   1  15
ATOM     15  N   UNL     1       5.330   6.040  18.060  0.00  0.00    +0.000 N 
ATOM     16  C   UNL     1       4.977   5.033  18.926  0.00  0.00    +0.000 C 
ATOM     17  O   UNL     1       5.684   4.051  19.140  0.00  0.00    +0.000 OA
ATOM     18  H   UNL     1       4.684   6.817  17.949  0.00  0.00    +0.000 HD
BRANCH  16  19
ATOM     19  C   UNL     1       3.674   5.170  19.631  0.00  0.00    +0.000 A 
ATOM     20  C   UNL     1       3.010   6.407  19.576  0.00  0.00    +0.000 A 
ATOM     21  C   UNL     1       1.746   6.574  20.166  0.00  0.00    +0.000 A 
ATOM     22  C   UNL     1       1.123   5.509  20.818  0.00  0.00    +0.000 A 
ATOM     23  C   UNL     1       1.794   4.301  20.891  0.00  0.00    +0.000 A 
ATOM     24  C   UNL     1       3.047   4.137  20.313  0.00  0.00    +0.000 A 
ATOM     25  O   UNL     1       3.537   2.859  20.470  0.00  0.00    +0.000 OA
ATOM     26  C   UNL     1       2.667   2.273  21.468  0.00  0.00    +0.000 C 
ATOM     27  C   UNL     1       1.333   3.009  21.449  0.00  0.00    +0.000 C 
ENDBRANCH  16  19
ENDBRANCH   1  15
TORSDOF 4
ENDMDL
MODEL 3
REMARK VINA RESULT:      -7.8      5.940      9.179
REMARK  Name = 
REMARK  6 active torsions:
REMARK  status: ('A' for Active; 'I' for Inactive)
REMARK    1  A    between atoms: C_1  and  O_2
REMARK    2  A    between atoms: O_2  and  C_3
REMARK    3  A    between atoms: C_8  and  C_9
REMARK    4  A    between atoms: C_9  and  C_10
REMARK    5  A    between atoms: C_9  and  N_11
REMARK    6  A    between atoms: C_12  and  C_14
REMARK                            x       y       z     vdW  Elec       q    Type
REMARK                         _______ _______ _______ _____ _____    ______ ____
ROOT
ATOM      1  C   UNL     1       1.036  10.524  19.201  0.00  0.00    +0.000 C 
ATOM      2  C   UNL     1       1.954  11.545  18.529  0.00  0.00    +0.000 C 
ENDROOT
BRANCH   1   8
ATOM      3  C   UNL     1      -4.523  11.434  17.149  0.00  0.00    +0.000 A 
ATOM      4  C   UNL     1      -4.043  10.744  16.033  0.00  0.00    +0.000 A 
ATOM      5  C   UNL     1      -2.750  10.207  16.008  0.00  0.00    +0.000 A 
ATOM      6  C   UNL     1      -1.969  10.418  17.140  0.00  0.00    +0.000 A 
ATOM      7  N   UNL     1      -0.691  10.056  17.446  0.00  0.00    +0.000 N 
ATOM      8  C   UNL     1      -0.361  10.596  18.665  0.00  0.00    +0.000 A 
ATOM      9  N   UNL     1      -1.401  11.207  19.201  0.00  0.00    +0.000 NA
ATOM     10  C   UNL     1      -2.402  11.118  18.258  0.00  0.00    +0.000 A 
ATOM     11  C   UNL     1      -3.707  11.629  18.274  0.00  0.00    +0.000 A 
ATOM     12  H   UNL     1      -0.056   9.500  16.880  0.00  0.00    +0.000 HD
BRANCH   3  14
ATOM     13  C   UNL     1      -6.683  11.331  18.112  0.00  0.00    +0.000 C 
ATOM     14  O   UNL     1      -5.772  11.995  17.244  0.00  0.00    +0.000 OA
ENDBRANCH   3  14
ENDBRANCH   1   8
BRANCH   1  15
ATOM     15  N   UNL     1       1.560   9.169  19.122  0.00  0.00    +0.000 N 
ATOM     16  C   UNL     1       1.680   8.300  20.181  0.00  0.00    +0.000 C 
ATOM     17  O   UNL     1       1.460   8.624  21.345  0.00  0.00    +0.000 OA
ATOM     18  H   UNL     1       1.758   8.812  18.191  0.00  0.00    +0.000 HD
BRANCH  16  19
ATOM     19  C   UNL     1       2.091   6.905  19.869  0.00  0.00    +0.000 A 
ATOM     20  C   UNL     1       1.603   5.866  20.680  0.00  0.00    +0.000 A 
ATOM     21  C   UNL     1       1.906   4.525  20.393  0.00  0.00    +0.000 A 
ATOM     22  C   UNL     1       2.695   4.197  19.291  0.00  0.00    +0.000 A 
ATOM     23  C   UNL     1       3.194   5.226  18.511  0.00  0.00    +0.000 A 
ATOM     24  C   UNL     1       2.902   6.554  18.799  0.00  0.00    +0.000 A 
ATOM     25  O   UNL     1       3.467   7.426  17.894  0.00  0.00    +0.000 OA
ATOM     26  C   UNL     1       4.419   6.610  17.172  0.00  0.00    +0.000 C 
ATOM     27  C   UNL     1       3.982   5.153  17.259  0.00  0.00    +0.000 C 
ENDBRANCH  16  19
ENDBRANCH   1  15
TORSDOF 4
ENDMDL
MODEL 4
REMARK VINA RESULT:      -7.7      0.672      1.280
REMARK  Name = 
REMARK  6 active torsions:
REMARK  status: ('A' for Active; 'I' for Inactive)
REMARK    1  A    between atoms: C_1  and  O_2
REMARK    2  A    between atoms: O_2  and  C_3
REMARK    3  A    between atoms: C_8  and  C_9
REMARK    4  A    between atoms: C_9  and  C_10
REMARK    5  A    between atoms: C_9  and  N_11
REMARK    6  A    between atoms: C_12  and  C_14
REMARK                            x       y       z     vdW  Elec       q    Type
REMARK                         _______ _______ _______ _____ _____    ______ ____
ROOT
ATOM      1  C   UNL     1       6.357   6.356  17.518  0.00  0.00    +0.000 C 
ATOM      2  C   UNL     1       7.726   6.249  18.190  0.00  0.00    +0.000 C 
ENDROOT
BRANCH   1   8
ATOM      3  C   UNL     1       6.866   3.605  12.216  0.00  0.00    +0.000 A 
ATOM      4  C   UNL     1       5.510   3.333  12.417  0.00  0.00    +0.000 A 
ATOM      5  C   UNL     1       4.822   3.835  13.528  0.00  0.00    +0.000 A 
ATOM      6  C   UNL     1       5.565   4.595  14.426  0.00  0.00    +0.000 A 
ATOM      7  N   UNL     1       5.229   5.214  15.594  0.00  0.00    +0.000 N 
ATOM      8  C   UNL     1       6.363   5.758  16.145  0.00  0.00    +0.000 A 
ATOM      9  N   UNL     1       7.396   5.602  15.336  0.00  0.00    +0.000 NA
ATOM     10  C   UNL     1       6.918   4.869  14.273  0.00  0.00    +0.000 A 
ATOM     11  C   UNL     1       7.584   4.376  13.142  0.00  0.00    +0.000 A 
ATOM     12  H   UNL     1       4.309   5.263  16.022  0.00  0.00    +0.000 HD
BRANCH   3  14
ATOM     13  C   UNL     1       7.444   1.763  10.847  0.00  0.00    +0.000 C 
ATOM     14  O   UNL     1       7.607   3.142  11.159  0.00  0.00    +0.000 OA
ENDBRANCH   3  14
ENDBRANCH   1   8
BRANCH   1  15
ATOM     15  N   UNL     1       5.292   5.792  18.333  0.00  0.00    +0.000 N 
ATOM     16  C   UNL     1       3.973   6.179  18.298  0.00  0.00    +0.000 C 
ATOM     17  O   UNL     1       3.571   7.139  17.645  0.00  0.00    +0.000 OA
ATOM     18  H   UNL     1       5.533   4.981  18.897  0.00  0.00    +0.000 HD
BRANCH  16  19
ATOM     19  C   UNL     1       3.009   5.373  19.093  0.00  0.00    +0.000 A 
ATOM     20  C   UNL     1       2.232   6.026  20.066  0.00  0.00    +0.000 A 
ATOM     21  C   UNL     1       1.259   5.327  20.800  0.00  0.00    +0.000 A 
ATOM     22  C   UNL     1       1.043   3.968  20.575  0.00  0.00    +0.000 A 
ATOM     23  C   UNL     1       1.828   3.325  19.634  0.00  0.00    +0.000 A 
ATOM     24  C   UNL     1       2.796   4.014  18.912  0.00  0.00    +0.000 A 
ATOM     25  O   UNL     1       3.453   3.207  18.008  0.00  0.00    +0.000 OA
ATOM     26  C   UNL     1       3.079   1.866  18.403  0.00  0.00    +0.000 C 
ATOM     27  C   UNL     1       1.754   1.926  19.153  0.00  0.00    +0.000 C 
ENDBRANCH  16  19
ENDBRANCH   1  15
TORSDOF 4
ENDMDL
MODEL 5
REMARK VINA RESULT:      -7.7      1.124      2.234
REMARK  Name = 
REMARK  6 active torsions:
REMARK  status: ('A' for Active; 'I' for Inactive)
REMARK    1  A    between atoms: C_1  and  O_2
REMARK    2  A    between atoms: O_2  and  C_3
REMARK    3  A    between atoms: C_8  and  C_9
REMARK    4  A    between atoms: C_9  and  C_10
REMARK    5  A    between atoms: C_9  and  N_11
REMARK    6  A    between atoms: C_12  and  C_14
REMARK                            x       y       z     vdW  Elec       q    Type
REMARK                         _______ _______ _______ _____ _____    ______ ____
ROOT
ATOM      1  C   UNL     1       6.370   6.056  17.432  0.00  0.00    +0.000 C 
ATOM      2  C   UNL     1       7.617   5.889  18.301  0.00  0.00    +0.000 C 
ENDROOT
BRANCH   1   8
ATOM      3  C   UNL     1       6.295   3.289  12.114  0.00  0.00    +0.000 A 
ATOM      4  C   UNL     1       7.335   4.177  11.826  0.00  0.00    +0.000 A 
ATOM      5  C   UNL     1       7.837   5.052  12.798  0.00  0.00    +0.000 A 
ATOM      6  C   UNL     1       7.229   5.004  14.048  0.00  0.00    +0.000 A 
ATOM      7  N   UNL     1       7.448   5.706  15.197  0.00  0.00    +0.000 N 
ATOM      8  C   UNL     1       6.505   5.338  16.124  0.00  0.00    +0.000 A 
ATOM      9  N   UNL     1       5.751   4.359  15.659  0.00  0.00    +0.000 NA
ATOM     10  C   UNL     1       6.179   4.153  14.366  0.00  0.00    +0.000 A 
ATOM     11  C   UNL     1       5.705   3.268  13.387  0.00  0.00    +0.000 A 
ATOM     12  H   UNL     1       8.165   6.406  15.362  0.00  0.00    +0.000 HD
BRANCH   3  14
ATOM     13  C   UNL     1       6.417   1.161  11.084  0.00  0.00    +0.000 C 
ATOM     14  O   UNL     1       5.747   2.410  11.214  0.00  0.00    +0.000 OA
ENDBRANCH   3  14
ENDBRANCH   1   8
BRANCH   1  15
ATOM     15  N   UNL     1       5.153   5.662  18.125  0.00  0.00    +0.000 N 
ATOM     16  C   UNL     1       5.002   4.527  18.885  0.00  0.00    +0.000 C 
ATOM     17  O   UNL     1       5.860   3.652  18.965  0.00  0.00    +0.000 OA
ATOM     18  H   UNL     1       4.391   6.335  18.121  0.00  0.00    +0.000 HD
BRANCH  16  19
ATOM     19  C   UNL     1       3.729   4.382  19.641  0.00  0.00    +0.000 A 
ATOM     20  C   UNL     1       3.353   3.101  20.081  0.00  0.00    +0.000 A 
ATOM     21  C   UNL     1       2.196   2.915  20.855  0.00  0.00    +0.000 A 
ATOM     22  C   UNL     1       1.397   4.003  21.206  0.00  0.00    +0.000 A 
ATOM     23  C   UNL     1       1.758   5.258  20.748  0.00  0.00    +0.000 A 
ATOM     24  C   UNL     1       2.899   5.442  19.976  0.00  0.00    +0.000 A 
ATOM     25  O   UNL     1       3.101   6.763  19.642  0.00  0.00    +0.000 OA
ATOM     26  C   UNL     1       1.846   7.403  19.972  0.00  0.00    +0.000 C 
ATOM     27  C   UNL     1       1.137   6.572  21.035  0.00  0.00    +0.000 C 
ENDBRANCH  16  19
ENDBRANCH   1  15
TORSDOF 4
ENDMDL
MODEL 6
REMARK VINA RESULT:      -7.6      5.408      8.173
REMARK  Name = 
REMARK  6 active torsions:
REMARK  status: ('A' for Active; 'I' for Inactive)
REMARK    1  A    between atoms: C_1  and  O_2
REMARK    2  A    between atoms: O_2  and  C_3
REMARK    3  A    between atoms: C_8  and  C_9
REMARK    4  A    between atoms: C_9  and  C_10
REMARK    5  A    between atoms: C_9  and  N_11
REMARK    6  A    between atoms: C_12  and  C_14
REMARK                            x       y       z     vdW  Elec       q    Type
REMARK                         _______ _______ _______ _____ _____    ______ ____
ROOT
ATOM      1  C   UNL     1       0.992   9.335  21.003  0.00  0.00    +0.000 C 
ATOM      2  C   UNL     1       0.716   9.291  22.506  0.00  0.00    +0.000 C 
ENDROOT
BRANCH   1   8
ATOM      3  C   UNL     1       2.690   3.908  19.106  0.00  0.00    +0.000 A 
ATOM      4  C   UNL     1       3.096   4.617  17.972  0.00  0.00    +0.000 A 
ATOM      5  C   UNL     1       2.995   6.012  17.909  0.00  0.00    +0.000 A 
ATOM      6  C   UNL     1       2.449   6.645  19.021  0.00  0.00    +0.000 A 
ATOM      7  N   UNL     1       2.196   7.957  19.291  0.00  0.00    +0.000 N 
ATOM      8  C   UNL     1       1.558   8.041  20.505  0.00  0.00    +0.000 A 
ATOM      9  N   UNL     1       1.478   6.852  21.073  0.00  0.00    +0.000 NA
ATOM     10  C   UNL     1       2.013   5.974  20.156  0.00  0.00    +0.000 A 
ATOM     11  C   UNL     1       2.144   4.579  20.210  0.00  0.00    +0.000 A 
ATOM     12  H   UNL     1       2.410   8.758  18.705  0.00  0.00    +0.000 HD
BRANCH   3  14
ATOM     13  C   UNL     1       3.179   1.830  18.083  0.00  0.00    +0.000 C 
ATOM     14  O   UNL     1       2.750   2.544  19.237  0.00  0.00    +0.000 OA
ENDBRANCH   3  14
ENDBRANCH   1   8
BRANCH   1  15
ATOM     15  N   UNL     1      -0.180   9.727  20.234  0.00  0.00    +0.000 N 
ATOM     16  C   UNL     1      -0.155  10.370  19.020  0.00  0.00    +0.000 C 
ATOM     17  O   UNL     1       0.876  10.792  18.502  0.00  0.00    +0.000 OA
ATOM     18  H   UNL     1      -1.080   9.408  20.583  0.00  0.00    +0.000 HD
BRANCH  16  19
ATOM     19  C   UNL     1      -1.456  10.544  18.318  0.00  0.00    +0.000 A 
ATOM     20  C   UNL     1      -1.642   9.899  17.084  0.00  0.00    +0.000 A 
ATOM     21  C   UNL     1      -2.872   9.974  16.409  0.00  0.00    +0.000 A 
ATOM     22  C   UNL     1      -3.937  10.690  16.956  0.00  0.00    +0.000 A 
ATOM     23  C   UNL     1      -3.738  11.345  18.160  0.00  0.00    +0.000 A 
ATOM     24  C   UNL     1      -2.520  11.277  18.824  0.00  0.00    +0.000 A 
ATOM     25  O   UNL     1      -2.529  11.970  20.014  0.00  0.00    +0.000 OA
ATOM     26  C   UNL     1      -3.734  12.770  19.942  0.00  0.00    +0.000 C 
ATOM     27  C   UNL     1      -4.710  12.100  18.984  0.00  0.00    +0.000 C 
ENDBRANCH  16  19
ENDBRANCH   1  15
TORSDOF 4
ENDMDL
MODEL 7
REMARK VINA RESULT:      -7.6      6.011      9.173
REMARK  Name = 
REMARK  6 active torsions:
REMARK  status: ('A' for Active; 'I' for Inactive)
REMARK    1  A    between atoms: C_1  and  O_2
REMARK    2  A    between atoms: O_2  and  C_3
REMARK    3  A    between atoms: C_8  and  C_9
REMARK    4  A    between atoms: C_9  and  C_10
REMARK    5  A    between atoms: C_9  and  N_11
REMARK    6  A    between atoms: C_12  and  C_14
REMARK                            x       y       z     vdW  Elec       q    Type
REMARK                         _______ _______ _______ _____ _____    ______ ____
ROOT
ATOM      1  C   UNL     1       0.915  10.513  19.247  0.00  0.00    +0.000 C 
ATOM      2  C   UNL     1       1.735  11.754  18.894  0.00  0.00    +0.000 C 
ENDROOT
BRANCH   1   8
ATOM      3  C   UNL     1      -4.600  11.384  17.064  0.00  0.00    +0.000 A 
ATOM      4  C   UNL     1      -4.066  10.764  15.930  0.00  0.00    +0.000 A 
ATOM      5  C   UNL     1      -2.759  10.262  15.920  0.00  0.00    +0.000 A 
ATOM      6  C   UNL     1      -2.020  10.435  17.086  0.00  0.00    +0.000 A 
ATOM      7  N   UNL     1      -0.742  10.091  17.416  0.00  0.00    +0.000 N 
ATOM      8  C   UNL     1      -0.465  10.576  18.670  0.00  0.00    +0.000 A 
ATOM      9  N   UNL     1      -1.539  11.131  19.202  0.00  0.00    +0.000 NA
ATOM     10  C   UNL     1      -2.506  11.065  18.224  0.00  0.00    +0.000 A 
ATOM     11  C   UNL     1      -3.825  11.541  18.223  0.00  0.00    +0.000 A 
ATOM     12  H   UNL     1      -0.076   9.581  16.843  0.00  0.00    +0.000 HD
BRANCH   3  14
ATOM     13  C   UNL     1      -6.698  11.352  18.158  0.00  0.00    +0.000 C 
ATOM     14  O   UNL     1      -5.866  11.906  17.146  0.00  0.00    +0.000 OA
ENDBRANCH   3  14
ENDBRANCH   1   8
BRANCH   1  15
ATOM     15  N   UNL     1       1.586   9.278  18.869  0.00  0.00    +0.000 N 
ATOM     16  C   UNL     1       1.850   8.226  19.714  0.00  0.00    +0.000 C 
ATOM     17  O   UNL     1       1.645   8.267  20.924  0.00  0.00    +0.000 OA
ATOM     18  H   UNL     1       1.784   9.152  17.880  0.00  0.00    +0.000 HD
BRANCH  16  19
ATOM     19  C   UNL     1       2.404   6.988  19.102  0.00  0.00    +0.000 A 
ATOM     20  C   UNL     1       3.257   7.112  17.993  0.00  0.00    +0.000 A 
ATOM     21  C   UNL     1       3.860   5.982  17.417  0.00  0.00    +0.000 A 
ATOM     22  C   UNL     1       3.626   4.710  17.939  0.00  0.00    +0.000 A 
ATOM     23  C   UNL     1       2.764   4.592  19.015  0.00  0.00    +0.000 A 
ATOM     24  C   UNL     1       2.160   5.708  19.582  0.00  0.00    +0.000 A 
ATOM     25  O   UNL     1       1.361   5.387  20.656  0.00  0.00    +0.000 OA
ATOM     26  C   UNL     1       1.218   3.950  20.568  0.00  0.00    +0.000 C 
ATOM     27  C   UNL     1       2.407   3.386  19.798  0.00  0.00    +0.000 C 
ENDBRANCH  16  19
ENDBRANCH   1  15
TORSDOF 4
ENDMDL
MODEL 8
REMARK VINA RESULT:      -7.6      5.451      8.238
REMARK  Name = 
REMARK  6 active torsions:
REMARK  status: ('A' for Active; 'I' for Inactive)
REMARK    1  A    between atoms: C_1  and  O_2
REMARK    2  A    between atoms: O_2  and  C_3
REMARK    3  A    between atoms: C_8  and  C_9
REMARK    4  A    between atoms: C_9  and  C_10
REMARK    5  A    between atoms: C_9  and  N_11
REMARK    6  A    between atoms: C_12  and  C_14
REMARK                            x       y       z     vdW  Elec       q    Type
REMARK                         _______ _______ _______ _____ _____    ______ ____
ROOT
ATOM      1  C   UNL     1       1.054   9.301  20.940  0.00  0.00    +0.000 C 
ATOM      2  C   UNL     1       0.851   9.276  22.455  0.00  0.00    +0.000 C 
ENDROOT
BRANCH   1   8
ATOM      3  C   UNL     1       3.616   4.316  18.813  0.00  0.00    +0.000 A 
ATOM      4  C   UNL     1       3.101   3.754  19.984  0.00  0.00    +0.000 A 
ATOM      5  C   UNL     1       2.308   4.500  20.864  0.00  0.00    +0.000 A 
ATOM      6  C   UNL     1       2.082   5.829  20.520  0.00  0.00    +0.000 A 
ATOM      7  N   UNL     1       1.385   6.825  21.137  0.00  0.00    +0.000 N 
ATOM      8  C   UNL     1       1.553   7.987  20.424  0.00  0.00    +0.000 A 
ATOM      9  N   UNL     1       2.246   7.762  19.323  0.00  0.00    +0.000 NA
ATOM     10  C   UNL     1       2.594   6.430  19.378  0.00  0.00    +0.000 A 
ATOM     11  C   UNL     1       3.368   5.661  18.497  0.00  0.00    +0.000 A 
ATOM     12  H   UNL     1       0.841   6.757  21.993  0.00  0.00    +0.000 HD
BRANCH   3  14
ATOM     13  C   UNL     1       4.538   4.269  16.633  0.00  0.00    +0.000 C 
ATOM     14  O   UNL     1       4.406   3.652  17.909  0.00  0.00    +0.000 OA
ENDBRANCH   3  14
ENDBRANCH   1   8
BRANCH   1  15
ATOM     15  N   UNL     1      -0.141   9.726  20.226  0.00  0.00    +0.000 N 
ATOM     16  C   UNL     1      -0.154  10.435  19.049  0.00  0.00    +0.000 C 
ATOM     17  O   UNL     1       0.860  10.892  18.527  0.00  0.00    +0.000 OA
ATOM     18  H   UNL     1      -1.029   9.382  20.582  0.00  0.00    +0.000 HD
BRANCH  16  19
ATOM     19  C   UNL     1      -1.474  10.638  18.394  0.00  0.00    +0.000 A 
ATOM     20  C   UNL     1      -1.712  10.012  17.158  0.00  0.00    +0.000 A 
ATOM     21  C   UNL     1      -2.962  10.115  16.527  0.00  0.00    +0.000 A 
ATOM     22  C   UNL     1      -3.997  10.840  17.118  0.00  0.00    +0.000 A 
ATOM     23  C   UNL     1      -3.748  11.475  18.322  0.00  0.00    +0.000 A 
ATOM     24  C   UNL     1      -2.509  11.381  18.944  0.00  0.00    +0.000 A 
ATOM     25  O   UNL     1      -2.468  12.058  20.143  0.00  0.00    +0.000 OA
ATOM     26  C   UNL     1      -3.661  12.877  20.122  0.00  0.00    +0.000 C 
ATOM     27  C   UNL     1      -4.680  12.235  19.188  0.00  0.00    +0.000 C 
ENDBRANCH  16  19
ENDBRANCH   1  15
TORSDOF 4
ENDMDL
MODEL 9
REMARK VINA RESULT:      -7.5      3.293      5.513
REMARK  Name = 
REMARK  6 active torsions:
REMARK  status: ('A' for Active; 'I' for Inactive)
REMARK    1  A    between atoms: C_1  and  O_2
REMARK    2  A    between atoms: O_2  and  C_3
REMARK    3  A    between atoms: C_8  and  C_9
REMARK    4  A    between atoms: C_9  and  C_10
REMARK    5  A    between atoms: C_9  and  N_11
REMARK    6  A    between atoms: C_12  and  C_14
REMARK                            x       y       z     vdW  Elec       q    Type
REMARK                         _______ _______ _______ _____ _____    ______ ____
ROOT
ATOM      1  C   UNL     1       2.345   5.222  20.527  0.00  0.00    +0.000 C 
ATOM      2  C   UNL     1       1.123   4.341  20.267  0.00  0.00    +0.000 C 
ENDROOT
BRANCH   1   8
ATOM      3  C   UNL     1       6.347   4.299  16.160  0.00  0.00    +0.000 A 
ATOM      4  C   UNL     1       7.134   5.159  16.930  0.00  0.00    +0.000 A 
ATOM      5  C   UNL     1       6.690   5.644  18.166  0.00  0.00    +0.000 A 
ATOM      6  C   UNL     1       5.421   5.243  18.569  0.00  0.00    +0.000 A 
ATOM      7  N   UNL     1       4.684   5.528  19.682  0.00  0.00    +0.000 N 
ATOM      8  C   UNL     1       3.446   4.949  19.549  0.00  0.00    +0.000 A 
ATOM      9  N   UNL     1       3.386   4.222  18.448  0.00  0.00    +0.000 NA
ATOM     10  C   UNL     1       4.599   4.409  17.823  0.00  0.00    +0.000 A 
ATOM     11  C   UNL     1       5.071   3.915  16.598  0.00  0.00    +0.000 A 
ATOM     12  H   UNL     1       4.967   6.089  20.479  0.00  0.00    +0.000 HD
BRANCH   3  14
ATOM     13  C   UNL     1       5.804   4.041  13.871  0.00  0.00    +0.000 C 
ATOM     14  O   UNL     1       6.710   3.790  14.939  0.00  0.00    +0.000 OA
ENDBRANCH   3  14
ENDBRANCH   1   8
BRANCH   1  15
ATOM     15  N   UNL     1       2.012   6.638  20.562  0.00  0.00    +0.000 N 
ATOM     16  C   UNL     1       1.923   7.461  19.464  0.00  0.00    +0.000 C 
ATOM     17  O   UNL     1       2.234   7.106  18.330  0.00  0.00    +0.000 OA
ATOM     18  H   UNL     1       1.729   7.016  21.462  0.00  0.00    +0.000 HD
BRANCH  16  19
ATOM     19  C   UNL     1       1.416   8.841  19.691  0.00  0.00    +0.000 A 
ATOM     20  C   UNL     1       1.517   9.772  18.643  0.00  0.00    +0.000 A 
ATOM     21  C   UNL     1       0.995  11.069  18.779  0.00  0.00    +0.000 A 
ATOM     22  C   UNL     1       0.361  11.458  19.959  0.00  0.00    +0.000 A 
ATOM     23  C   UNL     1       0.288  10.544  20.996  0.00  0.00    +0.000 A 
ATOM     24  C   UNL     1       0.810   9.263  20.866  0.00  0.00    +0.000 A 
ATOM     25  O   UNL     1       0.616   8.497  21.994  0.00  0.00    +0.000 OA
ATOM     26  C   UNL     1       0.214   9.456  23.002  0.00  0.00    +0.000 C 
ATOM     27  C   UNL     1      -0.388  10.672  22.309  0.00  0.00    +0.000 C 
ENDBRANCH  16  19
ENDBRANCH   1  15
TORSDOF 4
ENDMDL
