MODEL 1
REMARK VINA RESULT:      -8.6      0.000      0.000
REMARK  Name = 
REMARK  2 active torsions:
REMARK  status: ('A' for Active; 'I' for Inactive)
REMARK    1  A    between atoms: C_11  and  C_12
REMARK    2  A    between atoms: C_13  and  C_14
REMARK                            x       y       z     vdW  Elec       q    Type
REMARK                         _______ _______ _______ _____ _____    ______ ____
ROOT
ATOM      1  O   UNL     1      -6.914  11.301  19.447  0.00  0.00    +0.000 OA
ATOM      2  C   UNL     1      -6.085  11.881  20.142  0.00  0.00    +0.000 A 
ATOM      3  C   UNL     1      -6.431  12.322  21.512  0.00  0.00    +0.000 A 
ATOM      4  C   UNL     1      -7.672  12.045  22.092  0.00  0.00    +0.000 A 
ATOM      5  C   UNL     1      -7.913  12.444  23.406  0.00  0.00    +0.000 A 
ATOM      6  C   UNL     1      -6.922  13.113  24.127  0.00  0.00    +0.000 A 
ATOM      7  C   UNL     1      -5.694  13.405  23.528  0.00  0.00    +0.000 A 
ATOM      8  C   UNL     1      -5.430  13.004  22.217  0.00  0.00    +0.000 A 
ATOM      9  N   UNL     1      -4.196  13.297  21.603  0.00  0.00    +0.000 N 
ATOM     10  C   UNL     1      -3.823  12.733  20.422  0.00  0.00    +0.000 A 
ATOM     11  C   UNL     1      -2.596  12.629  19.783  0.00  0.00    +0.000 A 
ATOM     12  C   UNL     1      -2.833  11.940  18.543  0.00  0.00    +0.000 A 
ATOM     13  C   UNL     1      -2.018  11.507  17.468  0.00  0.00    +0.000 A 
ATOM     14  C   UNL     1      -2.595  11.004  16.299  0.00  0.00    +0.000 A 
ATOM     15  C   UNL     1      -3.966  10.813  16.222  0.00  0.00    +0.000 A 
ATOM     16  C   UNL     1      -4.788  11.108  17.310  0.00  0.00    +0.000 A 
ATOM     17  C   UNL     1      -4.211  11.691  18.455  0.00  0.00    +0.000 A 
ATOM     18  N   UNL     1      -4.779  12.076  19.663  0.00  0.00    +0.000 N 
ATOM     19  H   UNL     1      -3.489  13.684  22.223  0.00  0.00    +0.000 HD
ENDROOT
BRANCH  11  20
ATOM     20  C   UNL     1      -1.282  13.122  20.263  0.00  0.00    +0.000 A 
ATOM     21  C   UNL     1      -0.201  12.361  20.721  0.00  0.00    +0.000 A 
ATOM     22  N   UNL     1       0.780  13.258  21.094  0.00  0.00    +0.000 N 
ATOM     23  C   UNL     1       0.391  14.553  20.851  0.00  0.00    +0.000 A 
ATOM     24  C   UNL     1       1.092  15.753  21.039  0.00  0.00    +0.000 A 
ATOM     25  C   UNL     1       0.461  16.947  20.678  0.00  0.00    +0.000 A 
ATOM     26  C   UNL     1      -0.846  16.943  20.209  0.00  0.00    +0.000 A 
ATOM     27  C   UNL     1      -1.552  15.742  20.096  0.00  0.00    +0.000 A 
ATOM     28  C   UNL     1      -0.914  14.507  20.362  0.00  0.00    +0.000 A 
ATOM     29  H   UNL     1       1.675  13.000  21.480  0.00  0.00    +0.000 HD
BRANCH  21  30
ATOM     30  C   UNL     1      -0.025  10.913  20.887  0.00  0.00    +0.000 A 
ATOM     31  C   UNL     1      -0.397  10.286  22.084  0.00  0.00    +0.000 A 
ATOM     32  C   UNL     1       0.038   8.991  22.376  0.00  0.00    +0.000 A 
ATOM     33  C   UNL     1       0.792   8.283  21.445  0.00  0.00    +0.000 A 
ATOM     34  C   UNL     1       1.089   8.858  20.211  0.00  0.00    +0.000 A 
ATOM     35  C   UNL     1       0.682  10.167  19.930  0.00  0.00    +0.000 A 
ENDBRANCH  21  30
ENDBRANCH  11  20
TORSDOF 2
ENDMDL
MODEL 2
REMARK VINA RESULT:      -8.5      2.077      2.619
REMARK  Name = 
REMARK  2 active torsions:
REMARK  status: ('A' for Active; 'I' for Inactive)
REMARK    1  A    between atoms: C_11  and  C_12
REMARK    2  A    between atoms: C_13  and  C_14
REMARK                            x       y       z     vdW  Elec       q    Type
REMARK                         _______ _______ _______ _____ _____    ______ ____
ROOT
ATOM      1  O   UNL     1      -5.243  12.161  20.985  0.00  0.00    +0.000 OA
ATOM      2  C   UNL     1      -4.116  12.630  21.112  0.00  0.00    +0.000 A 
ATOM      3  C   UNL     1      -3.711  13.275  22.381  0.00  0.00    +0.000 A 
ATOM      4  C   UNL     1      -4.554  13.322  23.495  0.00  0.00    +0.000 A 
ATOM      5  C   UNL     1      -4.090  13.899  24.675  0.00  0.00    +0.000 A 
ATOM      6  C   UNL     1      -2.797  14.424  24.737  0.00  0.00    +0.000 A 
ATOM      7  C   UNL     1      -1.972  14.393  23.609  0.00  0.00    +0.000 A 
ATOM      8  C   UNL     1      -2.416  13.809  22.421  0.00  0.00    +0.000 A 
ATOM      9  N   UNL     1      -1.593  13.776  21.277  0.00  0.00    +0.000 N 
ATOM     10  C   UNL     1      -1.901  13.025  20.185  0.00  0.00    +0.000 A 
ATOM     11  C   UNL     1      -1.149  12.605  19.098  0.00  0.00    +0.000 A 
ATOM     12  C   UNL     1      -2.032  11.850  18.251  0.00  0.00    +0.000 A 
ATOM     13  C   UNL     1      -1.888  11.148  17.028  0.00  0.00    +0.000 A 
ATOM     14  C   UNL     1      -3.010  10.653  16.359  0.00  0.00    +0.000 A 
ATOM     15  C   UNL     1      -4.266  10.739  16.940  0.00  0.00    +0.000 A 
ATOM     16  C   UNL     1      -4.428  11.310  18.203  0.00  0.00    +0.000 A 
ATOM     17  C   UNL     1      -3.307  11.881  18.836  0.00  0.00    +0.000 A 
ATOM     18  N   UNL     1      -3.179  12.501  20.073  0.00  0.00    +0.000 N 
ATOM     19  H   UNL     1      -0.632  14.073  21.431  0.00  0.00    +0.000 HD
ENDROOT
BRANCH  11  20
ATOM     20  C   UNL     1       0.288  12.866  18.838  0.00  0.00    +0.000 A 
ATOM     21  C   UNL     1       1.321  11.928  18.737  0.00  0.00    +0.000 A 
ATOM     22  N   UNL     1       2.483  12.645  18.529  0.00  0.00    +0.000 N 
ATOM     23  C   UNL     1       2.230  13.993  18.447  0.00  0.00    +0.000 A 
ATOM     24  C   UNL     1       3.107  15.060  18.203  0.00  0.00    +0.000 A 
ATOM     25  C   UNL     1       2.573  16.350  18.145  0.00  0.00    +0.000 A 
ATOM     26  C   UNL     1       1.224  16.570  18.387  0.00  0.00    +0.000 A 
ATOM     27  C   UNL     1       0.380  15.500  18.699  0.00  0.00    +0.000 A 
ATOM     28  C   UNL     1       0.866  14.172  18.673  0.00  0.00    +0.000 A 
ATOM     29  H   UNL     1       3.399  12.235  18.432  0.00  0.00    +0.000 HD
BRANCH  21  30
ATOM     30  C   UNL     1       1.331  10.465  18.864  0.00  0.00    +0.000 A 
ATOM     31  C   UNL     1       1.009   9.858  20.086  0.00  0.00    +0.000 A 
ATOM     32  C   UNL     1       1.306   8.513  20.313  0.00  0.00    +0.000 A 
ATOM     33  C   UNL     1       1.865   7.741  19.298  0.00  0.00    +0.000 A 
ATOM     34  C   UNL     1       2.101   8.307  18.046  0.00  0.00    +0.000 A 
ATOM     35  C   UNL     1       1.835   9.663  17.828  0.00  0.00    +0.000 A 
ENDBRANCH  21  30
ENDBRANCH  11  20
TORSDOF 2
ENDMDL
MODEL 3
REMARK VINA RESULT:      -8.5      1.102      1.437
REMARK  Name = 
REMARK  2 active torsions:
REMARK  status: ('A' for Active; 'I' for Inactive)
REMARK    1  A    between atoms: C_11  and  C_12
REMARK    2  A    between atoms: C_13  and  C_14
REMARK                            x       y       z     vdW  Elec       q    Type
REMARK                         _______ _______ _______ _____ _____    ______ ____
ROOT
ATOM      1  O   UNL     1      -6.436  11.853  19.638  0.00  0.00    +0.000 OA
ATOM      2  C   UNL     1      -5.522  12.484  20.161  0.00  0.00    +0.000 A 
ATOM      3  C   UNL     1      -5.771  13.303  21.368  0.00  0.00    +0.000 A 
ATOM      4  C   UNL     1      -7.018  13.342  21.997  0.00  0.00    +0.000 A 
ATOM      5  C   UNL     1      -7.169  14.094  23.162  0.00  0.00    +0.000 A 
ATOM      6  C   UNL     1      -6.083  14.797  23.687  0.00  0.00    +0.000 A 
ATOM      7  C   UNL     1      -4.847  14.769  23.036  0.00  0.00    +0.000 A 
ATOM      8  C   UNL     1      -4.674  14.014  21.874  0.00  0.00    +0.000 A 
ATOM      9  N   UNL     1      -3.432  13.982  21.207  0.00  0.00    +0.000 N 
ATOM     10  C   UNL     1      -3.166  13.091  20.215  0.00  0.00    +0.000 A 
ATOM     11  C   UNL     1      -1.981  12.673  19.627  0.00  0.00    +0.000 A 
ATOM     12  C   UNL     1      -2.336  11.722  18.609  0.00  0.00    +0.000 A 
ATOM     13  C   UNL     1      -1.613  10.929  17.684  0.00  0.00    +0.000 A 
ATOM     14  C   UNL     1      -2.282  10.217  16.685  0.00  0.00    +0.000 A 
ATOM     15  C   UNL     1      -3.667  10.185  16.657  0.00  0.00    +0.000 A 
ATOM     16  C   UNL     1      -4.414  10.851  17.630  0.00  0.00    +0.000 A 
ATOM     17  C   UNL     1      -3.736  11.633  18.585  0.00  0.00    +0.000 A 
ATOM     18  N   UNL     1      -4.217  12.385  19.650  0.00  0.00    +0.000 N 
ATOM     19  H   UNL     1      -2.665  14.424  21.708  0.00  0.00    +0.000 HD
ENDROOT
BRANCH  11  20
ATOM     20  C   UNL     1      -0.603  13.105  19.966  0.00  0.00    +0.000 A 
ATOM     21  C   UNL     1       0.352  12.405  20.711  0.00  0.00    +0.000 A 
ATOM     22  N   UNL     1       1.462  13.222  20.792  0.00  0.00    +0.000 N 
ATOM     23  C   UNL     1       1.275  14.390  20.095  0.00  0.00    +0.000 A 
ATOM     24  C   UNL     1       2.153  15.463  19.885  0.00  0.00    +0.000 A 
ATOM     25  C   UNL     1       1.710  16.532  19.101  0.00  0.00    +0.000 A 
ATOM     26  C   UNL     1       0.414  16.555  18.602  0.00  0.00    +0.000 A 
ATOM     27  C   UNL     1      -0.469  15.509  18.883  0.00  0.00    +0.000 A 
ATOM     28  C   UNL     1      -0.025  14.367  19.593  0.00  0.00    +0.000 A 
ATOM     29  H   UNL     1       2.311  12.988  21.285  0.00  0.00    +0.000 HD
BRANCH  21  30
ATOM     30  C   UNL     1       0.306  11.098  21.380  0.00  0.00    +0.000 A 
ATOM     31  C   UNL     1       0.811   9.957  20.742  0.00  0.00    +0.000 A 
ATOM     32  C   UNL     1       0.505   8.681  21.218  0.00  0.00    +0.000 A 
ATOM     33  C   UNL     1      -0.253   8.532  22.376  0.00  0.00    +0.000 A 
ATOM     34  C   UNL     1      -0.681   9.659  23.075  0.00  0.00    +0.000 A 
ATOM     35  C   UNL     1      -0.403  10.938  22.582  0.00  0.00    +0.000 A 
ENDBRANCH  21  30
ENDBRANCH  11  20
TORSDOF 2
ENDMDL
MODEL 4
REMARK VINA RESULT:      -8.5      0.983      1.024
REMARK  Name = 
REMARK  2 active torsions:
REMARK  status: ('A' for Active; 'I' for Inactive)
REMARK    1  A    between atoms: C_11  and  C_12
REMARK    2  A    between atoms: C_13  and  C_14
REMARK                            x       y       z     vdW  Elec       q    Type
REMARK                         _______ _______ _______ _____ _____    ______ ____
ROOT
ATOM      1  O   UNL     1      -6.506  11.615  19.474  0.00  0.00    +0.000 OA
ATOM      2  C   UNL     1      -5.538  12.116  20.039  0.00  0.00    +0.000 A 
ATOM      3  C   UNL     1      -5.662  12.634  21.420  0.00  0.00    +0.000 A 
ATOM      4  C   UNL     1      -6.844  12.520  22.155  0.00  0.00    +0.000 A 
ATOM      5  C   UNL     1      -6.875  12.983  23.470  0.00  0.00    +0.000 A 
ATOM      6  C   UNL     1      -5.735  13.554  24.038  0.00  0.00    +0.000 A 
ATOM      7  C   UNL     1      -4.565  13.684  23.285  0.00  0.00    +0.000 A 
ATOM      8  C   UNL     1      -4.511  13.216  21.970  0.00  0.00    +0.000 A 
ATOM      9  N   UNL     1      -3.338  13.346  21.201  0.00  0.00    +0.000 N 
ATOM     10  C   UNL     1      -3.178  12.708  20.010  0.00  0.00    +0.000 A 
ATOM     11  C   UNL     1      -2.059  12.444  19.234  0.00  0.00    +0.000 A 
ATOM     12  C   UNL     1      -2.522  11.750  18.063  0.00  0.00    +0.000 A 
ATOM     13  C   UNL     1      -1.900  11.194  16.917  0.00  0.00    +0.000 A 
ATOM     14  C   UNL     1      -2.670  10.727  15.849  0.00  0.00    +0.000 A 
ATOM     15  C   UNL     1      -4.052  10.694  15.944  0.00  0.00    +0.000 A 
ATOM     16  C   UNL     1      -4.696  11.113  17.109  0.00  0.00    +0.000 A 
ATOM     17  C   UNL     1      -3.920  11.660  18.150  0.00  0.00    +0.000 A 
ATOM     18  N   UNL     1      -4.288  12.144  19.400  0.00  0.00    +0.000 N 
ATOM     19  H   UNL     1      -2.520  13.666  21.715  0.00  0.00    +0.000 HD
ENDROOT
BRANCH  11  20
ATOM     20  C   UNL     1      -0.649  12.794  19.532  0.00  0.00    +0.000 A 
ATOM     21  C   UNL     1       0.348  11.959  20.046  0.00  0.00    +0.000 A 
ATOM     22  N   UNL     1       1.478  12.739  20.189  0.00  0.00    +0.000 N 
ATOM     23  C   UNL     1       1.260  14.021  19.746  0.00  0.00    +0.000 A 
ATOM     24  C   UNL     1       2.141  15.109  19.672  0.00  0.00    +0.000 A 
ATOM     25  C   UNL     1       1.658  16.312  19.147  0.00  0.00    +0.000 A 
ATOM     26  C   UNL     1       0.327  16.437  18.774  0.00  0.00    +0.000 A 
ATOM     27  C   UNL     1      -0.552  15.361  18.922  0.00  0.00    +0.000 A 
ATOM     28  C   UNL     1      -0.077  14.102  19.360  0.00  0.00    +0.000 A 
ATOM     29  H   UNL     1       2.359  12.410  20.554  0.00  0.00    +0.000 HD
BRANCH  21  30
ATOM     30  C   UNL     1       0.328  10.548  20.454  0.00  0.00    +0.000 A 
ATOM     31  C   UNL     1      -0.341  10.158  21.621  0.00  0.00    +0.000 A 
ATOM     32  C   UNL     1      -0.118   8.899  22.184  0.00  0.00    +0.000 A 
ATOM     33  C   UNL     1       0.725   7.991  21.548  0.00  0.00    +0.000 A 
ATOM     34  C   UNL     1       1.322   8.330  20.336  0.00  0.00    +0.000 A 
ATOM     35  C   UNL     1       1.125   9.603  19.788  0.00  0.00    +0.000 A 
ENDBRANCH  21  30
ENDBRANCH  11  20
TORSDOF 2
ENDMDL
MODEL 5
REMARK VINA RESULT:      -8.1      2.842      6.706
REMARK  Name = 
REMARK  2 active torsions:
REMARK  status: ('A' for Active; 'I' for Inactive)
REMARK    1  A    between atoms: C_11  and  C_12
REMARK    2  A    between atoms: C_13  and  C_14
REMARK                            x       y       z     vdW  Elec       q    Type
REMARK                         _______ _______ _______ _____ _____    ______ ____
ROOT
ATOM      1  O   UNL     1      -0.692  10.678  19.540  0.00  0.00    +0.000 OA
ATOM      2  C   UNL     1      -1.757  11.113  19.109  0.00  0.00    +0.000 A 
ATOM      3  C   UNL     1      -2.254  10.695  17.779  0.00  0.00    +0.000 A 
ATOM      4  C   UNL     1      -1.582   9.753  16.995  0.00  0.00    +0.000 A 
ATOM      5  C   UNL     1      -2.134   9.365  15.775  0.00  0.00    +0.000 A 
ATOM      6  C   UNL     1      -3.343   9.917  15.347  0.00  0.00    +0.000 A 
ATOM      7  C   UNL     1      -3.994  10.876  16.129  0.00  0.00    +0.000 A 
ATOM      8  C   UNL     1      -3.462  11.268  17.359  0.00  0.00    +0.000 A 
ATOM      9  N   UNL     1      -4.107  12.237  18.153  0.00  0.00    +0.000 N 
ATOM     10  C   UNL     1      -3.744  12.476  19.442  0.00  0.00    +0.000 A 
ATOM     11  C   UNL     1      -4.379  13.135  20.484  0.00  0.00    +0.000 A 
ATOM     12  C   UNL     1      -3.488  13.082  21.611  0.00  0.00    +0.000 A 
ATOM     13  C   UNL     1      -3.542  13.536  22.953  0.00  0.00    +0.000 A 
ATOM     14  C   UNL     1      -2.408  13.478  23.767  0.00  0.00    +0.000 A 
ATOM     15  C   UNL     1      -1.249  12.869  23.311  0.00  0.00    +0.000 A 
ATOM     16  C   UNL     1      -1.199  12.296  22.040  0.00  0.00    +0.000 A 
ATOM     17  C   UNL     1      -2.317  12.430  21.194  0.00  0.00    +0.000 A 
ATOM     18  N   UNL     1      -2.541  11.965  19.903  0.00  0.00    +0.000 N 
ATOM     19  H   UNL     1      -5.034  12.508  17.831  0.00  0.00    +0.000 HD
ENDROOT
BRANCH  11  20
ATOM     20  C   UNL     1      -5.717  13.774  20.469  0.00  0.00    +0.000 A 
ATOM     21  C   UNL     1      -6.964  13.144  20.404  0.00  0.00    +0.000 A 
ATOM     22  N   UNL     1      -7.911  14.148  20.374  0.00  0.00    +0.000 N 
ATOM     23  C   UNL     1      -7.326  15.389  20.464  0.00  0.00    +0.000 A 
ATOM     24  C   UNL     1      -7.917  16.660  20.512  0.00  0.00    +0.000 A 
ATOM     25  C   UNL     1      -7.077  17.771  20.632  0.00  0.00    +0.000 A 
ATOM     26  C   UNL     1      -5.697  17.618  20.636  0.00  0.00    +0.000 A 
ATOM     27  C   UNL     1      -5.127  16.347  20.516  0.00  0.00    +0.000 A 
ATOM     28  C   UNL     1      -5.947  15.193  20.488  0.00  0.00    +0.000 A 
ATOM     29  H   UNL     1      -8.906  13.996  20.312  0.00  0.00    +0.000 HD
BRANCH  21  30
ATOM     30  C   UNL     1      -7.341  11.727  20.317  0.00  0.00    +0.000 A 
ATOM     31  C   UNL     1      -7.844  11.058  21.441  0.00  0.00    +0.000 A 
ATOM     32  C   UNL     1      -7.916   9.663  21.466  0.00  0.00    +0.000 A 
ATOM     33  C   UNL     1      -7.551   8.926  20.343  0.00  0.00    +0.000 A 
ATOM     34  C   UNL     1      -7.140   9.583  19.185  0.00  0.00    +0.000 A 
ATOM     35  C   UNL     1      -7.036  10.978  19.169  0.00  0.00    +0.000 A 
ENDBRANCH  21  30
ENDBRANCH  11  20
TORSDOF 2
ENDMDL
MODEL 6
REMARK VINA RESULT:      -8.1      8.096     11.069
REMARK  Name = 
REMARK  2 active torsions:
REMARK  status: ('A' for Active; 'I' for Inactive)
REMARK    1  A    between atoms: C_11  and  C_12
REMARK    2  A    between atoms: C_13  and  C_14
REMARK                            x       y       z     vdW  Elec       q    Type
REMARK                         _______ _______ _______ _____ _____    ______ ____
ROOT
ATOM      1  O   UNL     1       4.139  14.093  22.737  0.00  0.00    +0.000 OA
ATOM      2  C   UNL     1       5.349  14.205  22.563  0.00  0.00    +0.000 A 
ATOM      3  C   UNL     1       6.296  13.886  23.654  0.00  0.00    +0.000 A 
ATOM      4  C   UNL     1       5.871  13.389  24.889  0.00  0.00    +0.000 A 
ATOM      5  C   UNL     1       6.821  13.061  25.854  0.00  0.00    +0.000 A 
ATOM      6  C   UNL     1       8.181  13.230  25.584  0.00  0.00    +0.000 A 
ATOM      7  C   UNL     1       8.593  13.751  24.354  0.00  0.00    +0.000 A 
ATOM      8  C   UNL     1       7.656  14.075  23.371  0.00  0.00    +0.000 A 
ATOM      9  N   UNL     1       8.061  14.604  22.129  0.00  0.00    +0.000 N 
ATOM     10  C   UNL     1       7.206  14.719  21.077  0.00  0.00    +0.000 A 
ATOM     11  C   UNL     1       7.415  14.921  19.721  0.00  0.00    +0.000 A 
ATOM     12  C   UNL     1       6.116  14.977  19.106  0.00  0.00    +0.000 A 
ATOM     13  C   UNL     1       5.643  15.136  17.779  0.00  0.00    +0.000 A 
ATOM     14  C   UNL     1       4.281  15.327  17.531  0.00  0.00    +0.000 A 
ATOM     15  C   UNL     1       3.363  15.246  18.566  0.00  0.00    +0.000 A 
ATOM     16  C   UNL     1       3.780  14.962  19.867  0.00  0.00    +0.000 A 
ATOM     17  C   UNL     1       5.160  14.853  20.125  0.00  0.00    +0.000 A 
ATOM     18  N   UNL     1       5.845  14.578  21.303  0.00  0.00    +0.000 N 
ATOM     19  H   UNL     1       9.065  14.593  21.964  0.00  0.00    +0.000 HD
ENDROOT
BRANCH  11  20
ATOM     20  C   UNL     1       8.713  15.053  19.016  0.00  0.00    +0.000 A 
ATOM     21  C   UNL     1       9.622  14.037  18.702  0.00  0.00    +0.000 A 
ATOM     22  N   UNL     1      10.695  14.648  18.085  0.00  0.00    +0.000 N 
ATOM     23  C   UNL     1      10.491  16.000  17.950  0.00  0.00    +0.000 A 
ATOM     24  C   UNL     1      11.300  16.976  17.349  0.00  0.00    +0.000 A 
ATOM     25  C   UNL     1      10.833  18.293  17.327  0.00  0.00    +0.000 A 
ATOM     26  C   UNL     1       9.634  18.630  17.941  0.00  0.00    +0.000 A 
ATOM     27  C   UNL     1       8.878  17.655  18.596  0.00  0.00    +0.000 A 
ATOM     28  C   UNL     1       9.272  16.296  18.557  0.00  0.00    +0.000 A 
ATOM     29  H   UNL     1      11.518  14.165  17.757  0.00  0.00    +0.000 HD
BRANCH  21  30
ATOM     30  C   UNL     1       9.603  12.593  18.965  0.00  0.00    +0.000 A 
ATOM     31  C   UNL     1       9.323  11.688  17.932  0.00  0.00    +0.000 A 
ATOM     32  C   UNL     1       9.001  10.359  18.216  0.00  0.00    +0.000 A 
ATOM     33  C   UNL     1       9.023   9.903  19.531  0.00  0.00    +0.000 A 
ATOM     34  C   UNL     1       9.395  10.767  20.559  0.00  0.00    +0.000 A 
ATOM     35  C   UNL     1       9.685  12.107  20.280  0.00  0.00    +0.000 A 
ENDBRANCH  21  30
ENDBRANCH  11  20
TORSDOF 2
ENDMDL
MODEL 7
REMARK VINA RESULT:      -7.9      2.348      6.715
REMARK  Name = 
REMARK  2 active torsions:
REMARK  status: ('A' for Active; 'I' for Inactive)
REMARK    1  A    between atoms: C_11  and  C_12
REMARK    2  A    between atoms: C_13  and  C_14
REMARK                            x       y       z     vdW  Elec       q    Type
REMARK                         _______ _______ _______ _____ _____    ______ ____
ROOT
ATOM      1  O   UNL     1       2.613  13.554  19.603  0.00  0.00    +0.000 OA
ATOM      2  C   UNL     1       1.459  13.957  19.484  0.00  0.00    +0.000 A 
ATOM      3  C   UNL     1       1.185  15.276  18.873  0.00  0.00    +0.000 A 
ATOM      4  C   UNL     1       2.202  16.081  18.352  0.00  0.00    +0.000 A 
ATOM      5  C   UNL     1       1.868  17.290  17.744  0.00  0.00    +0.000 A 
ATOM      6  C   UNL     1       0.531  17.686  17.660  0.00  0.00    +0.000 A 
ATOM      7  C   UNL     1      -0.474  16.884  18.206  0.00  0.00    +0.000 A 
ATOM      8  C   UNL     1      -0.160  15.664  18.810  0.00  0.00    +0.000 A 
ATOM      9  N   UNL     1      -1.166  14.850  19.367  0.00  0.00    +0.000 N 
ATOM     10  C   UNL     1      -0.928  13.568  19.757  0.00  0.00    +0.000 A 
ATOM     11  C   UNL     1      -1.772  12.507  20.046  0.00  0.00    +0.000 A 
ATOM     12  C   UNL     1      -0.934  11.402  20.426  0.00  0.00    +0.000 A 
ATOM     13  C   UNL     1      -1.163  10.057  20.809  0.00  0.00    +0.000 A 
ATOM     14  C   UNL     1      -0.116   9.270  21.295  0.00  0.00    +0.000 A 
ATOM     15  C   UNL     1       1.182   9.758  21.299  0.00  0.00    +0.000 A 
ATOM     16  C   UNL     1       1.465  11.033  20.808  0.00  0.00    +0.000 A 
ATOM     17  C   UNL     1       0.395  11.851  20.397  0.00  0.00    +0.000 A 
ATOM     18  N   UNL     1       0.385  13.139  19.873  0.00  0.00    +0.000 N 
ATOM     19  H   UNL     1      -2.118  15.148  19.169  0.00  0.00    +0.000 HD
ENDROOT
BRANCH  11  20
ATOM     20  C   UNL     1      -3.254  12.488  19.983  0.00  0.00    +0.000 A 
ATOM     21  C   UNL     1      -4.059  11.882  19.012  0.00  0.00    +0.000 A 
ATOM     22  N   UNL     1      -5.366  12.166  19.354  0.00  0.00    +0.000 N 
ATOM     23  C   UNL     1      -5.432  12.886  20.522  0.00  0.00    +0.000 A 
ATOM     24  C   UNL     1      -6.550  13.339  21.237  0.00  0.00    +0.000 A 
ATOM     25  C   UNL     1      -6.330  14.036  22.429  0.00  0.00    +0.000 A 
ATOM     26  C   UNL     1      -5.040  14.325  22.852  0.00  0.00    +0.000 A 
ATOM     27  C   UNL     1      -3.940  13.927  22.087  0.00  0.00    +0.000 A 
ATOM     28  C   UNL     1      -4.123  13.137  20.926  0.00  0.00    +0.000 A 
ATOM     29  H   UNL     1      -6.173  11.870  18.825  0.00  0.00    +0.000 HD
BRANCH  21  30
ATOM     30  C   UNL     1      -3.726  11.125  17.798  0.00  0.00    +0.000 A 
ATOM     31  C   UNL     1      -2.737  10.133  17.830  0.00  0.00    +0.000 A 
ATOM     32  C   UNL     1      -2.197   9.626  16.646  0.00  0.00    +0.000 A 
ATOM     33  C   UNL     1      -2.690  10.055  15.417  0.00  0.00    +0.000 A 
ATOM     34  C   UNL     1      -3.740  10.970  15.370  0.00  0.00    +0.000 A 
ATOM     35  C   UNL     1      -4.259  11.504  16.555  0.00  0.00    +0.000 A 
ENDBRANCH  21  30
ENDBRANCH  11  20
TORSDOF 2
ENDMDL
MODEL 8
REMARK VINA RESULT:      -7.9      2.972      6.923
REMARK  Name = 
REMARK  2 active torsions:
REMARK  status: ('A' for Active; 'I' for Inactive)
REMARK    1  A    between atoms: C_11  and  C_12
REMARK    2  A    between atoms: C_13  and  C_14
REMARK                            x       y       z     vdW  Elec       q    Type
REMARK                         _______ _______ _______ _____ _____    ______ ____
ROOT
ATOM      1  O   UNL     1      -0.403  11.981  22.242  0.00  0.00    +0.000 OA
ATOM      2  C   UNL     1      -1.211  12.075  21.323  0.00  0.00    +0.000 A 
ATOM      3  C   UNL     1      -1.029  11.291  20.082  0.00  0.00    +0.000 A 
ATOM      4  C   UNL     1       0.014  10.373  19.927  0.00  0.00    +0.000 A 
ATOM      5  C   UNL     1       0.096   9.629  18.751  0.00  0.00    +0.000 A 
ATOM      6  C   UNL     1      -0.855   9.804  17.743  0.00  0.00    +0.000 A 
ATOM      7  C   UNL     1      -1.879  10.742  17.900  0.00  0.00    +0.000 A 
ATOM      8  C   UNL     1      -1.984  11.489  19.075  0.00  0.00    +0.000 A 
ATOM      9  N   UNL     1      -3.011  12.440  19.241  0.00  0.00    +0.000 N 
ATOM     10  C   UNL     1      -3.276  13.017  20.445  0.00  0.00    +0.000 A 
ATOM     11  C   UNL     1      -4.369  13.726  20.920  0.00  0.00    +0.000 A 
ATOM     12  C   UNL     1      -4.060  14.104  22.272  0.00  0.00    +0.000 A 
ATOM     13  C   UNL     1      -4.744  14.806  23.296  0.00  0.00    +0.000 A 
ATOM     14  C   UNL     1      -4.082  15.166  24.473  0.00  0.00    +0.000 A 
ATOM     15  C   UNL     1      -2.783  14.740  24.703  0.00  0.00    +0.000 A 
ATOM     16  C   UNL     1      -2.121  13.938  23.773  0.00  0.00    +0.000 A 
ATOM     17  C   UNL     1      -2.763  13.647  22.553  0.00  0.00    +0.000 A 
ATOM     18  N   UNL     1      -2.350  12.885  21.468  0.00  0.00    +0.000 N 
ATOM     19  H   UNL     1      -3.726  12.431  18.518  0.00  0.00    +0.000 HD
ENDROOT
BRANCH  11  20
ATOM     20  C   UNL     1      -5.624  14.044  20.197  0.00  0.00    +0.000 A 
ATOM     21  C   UNL     1      -6.640  13.159  19.820  0.00  0.00    +0.000 A 
ATOM     22  N   UNL     1      -7.580  13.907  19.139  0.00  0.00    +0.000 N 
ATOM     23  C   UNL     1      -7.232  15.236  19.106  0.00  0.00    +0.000 A 
ATOM     24  C   UNL     1      -7.917  16.332  18.562  0.00  0.00    +0.000 A 
ATOM     25  C   UNL     1      -7.340  17.599  18.693  0.00  0.00    +0.000 A 
ATOM     26  C   UNL     1      -6.095  17.752  19.287  0.00  0.00    +0.000 A 
ATOM     27  C   UNL     1      -5.397  16.637  19.760  0.00  0.00    +0.000 A 
ATOM     28  C   UNL     1      -5.991  15.353  19.730  0.00  0.00    +0.000 A 
ATOM     29  H   UNL     1      -8.424  13.534  18.732  0.00  0.00    +0.000 HD
BRANCH  21  30
ATOM     30  C   UNL     1      -6.784  11.707  19.987  0.00  0.00    +0.000 A 
ATOM     31  C   UNL     1      -6.317  10.830  18.999  0.00  0.00    +0.000 A 
ATOM     32  C   UNL     1      -6.712   9.491  18.990  0.00  0.00    +0.000 A 
ATOM     33  C   UNL     1      -7.523   8.997  20.008  0.00  0.00    +0.000 A 
ATOM     34  C   UNL     1      -7.916   9.834  21.050  0.00  0.00    +0.000 A 
ATOM     35  C   UNL     1      -7.549  11.184  21.043  0.00  0.00    +0.000 A 
ENDBRANCH  21  30
ENDBRANCH  11  20
TORSDOF 2
ENDMDL
MODEL 9
REMARK VINA RESULT:      -7.9      8.112     11.710
REMARK  Name = 
REMARK  2 active torsions:
REMARK  status: ('A' for Active; 'I' for Inactive)
REMARK    1  A    between atoms: C_11  and  C_12
REMARK    2  A    between atoms: C_13  and  C_14
REMARK                            x       y       z     vdW  Elec       q    Type
REMARK                         _______ _______ _______ _____ _____    ______ ____
ROOT
ATOM      1  O   UNL     1       6.810  17.768  18.499  0.00  0.00    +0.000 OA
ATOM      2  C   UNL     1       6.468  16.787  19.153  0.00  0.00    +0.000 A 
ATOM      3  C   UNL     1       5.112  16.217  18.995  0.00  0.00    +0.000 A 
ATOM      4  C   UNL     1       4.197  16.717  18.065  0.00  0.00    +0.000 A 
ATOM      5  C   UNL     1       2.954  16.099  17.933  0.00  0.00    +0.000 A 
ATOM      6  C   UNL     1       2.634  14.995  18.725  0.00  0.00    +0.000 A 
ATOM      7  C   UNL     1       3.548  14.518  19.668  0.00  0.00    +0.000 A 
ATOM      8  C   UNL     1       4.802  15.117  19.808  0.00  0.00    +0.000 A 
ATOM      9  N   UNL     1       5.729  14.647  20.759  0.00  0.00    +0.000 N 
ATOM     10  C   UNL     1       7.027  15.055  20.768  0.00  0.00    +0.000 A 
ATOM     11  C   UNL     1       8.162  14.545  21.382  0.00  0.00    +0.000 A 
ATOM     12  C   UNL     1       9.247  15.425  21.040  0.00  0.00    +0.000 A 
ATOM     13  C   UNL     1      10.636  15.457  21.320  0.00  0.00    +0.000 A 
ATOM     14  C   UNL     1      11.404  16.572  20.974  0.00  0.00    +0.000 A 
ATOM     15  C   UNL     1      10.841  17.610  20.249  0.00  0.00    +0.000 A 
ATOM     16  C   UNL     1       9.507  17.555  19.843  0.00  0.00    +0.000 A 
ATOM     17  C   UNL     1       8.717  16.468  20.265  0.00  0.00    +0.000 A 
ATOM     18  N   UNL     1       7.386  16.160  20.012  0.00  0.00    +0.000 N 
ATOM     19  H   UNL     1       5.471  13.775  21.216  0.00  0.00    +0.000 HD
ENDROOT
BRANCH  11  20
ATOM     20  C   UNL     1       8.265  13.332  22.228  0.00  0.00    +0.000 A 
ATOM     21  C   UNL     1       8.955  12.149  21.943  0.00  0.00    +0.000 A 
ATOM     22  N   UNL     1       8.728  11.296  23.005  0.00  0.00    +0.000 N 
ATOM     23  C   UNL     1       7.964  11.899  23.975  0.00  0.00    +0.000 A 
ATOM     24  C   UNL     1       7.542  11.411  25.220  0.00  0.00    +0.000 A 
ATOM     25  C   UNL     1       6.783  12.257  26.035  0.00  0.00    +0.000 A 
ATOM     26  C   UNL     1       6.406  13.517  25.590  0.00  0.00    +0.000 A 
ATOM     27  C   UNL     1       6.777  13.956  24.317  0.00  0.00    +0.000 A 
ATOM     28  C   UNL     1       7.624  13.166  23.504  0.00  0.00    +0.000 A 
ATOM     29  H   UNL     1       9.090  10.357  23.074  0.00  0.00    +0.000 HD
BRANCH  21  30
ATOM     30  C   UNL     1       9.744  11.733  20.776  0.00  0.00    +0.000 A 
ATOM     31  C   UNL     1      11.107  12.047  20.694  0.00  0.00    +0.000 A 
ATOM     32  C   UNL     1      11.792  11.936  19.482  0.00  0.00    +0.000 A 
ATOM     33  C   UNL     1      11.139  11.445  18.355  0.00  0.00    +0.000 A 
ATOM     34  C   UNL     1       9.810  11.037  18.446  0.00  0.00    +0.000 A 
ATOM     35  C   UNL     1       9.113  11.178  19.650  0.00  0.00    +0.000 A 
ENDBRANCH  21  30
ENDBRANCH  11  20
TORSDOF 2
ENDMDL
