MODEL 1
REMARK VINA RESULT:      -9.8      0.000      0.000
REMARK  Name = 
REMARK  10 active torsions:
REMARK  status: ('A' for Active; 'I' for Inactive)
REMARK    1  A    between atoms: C_1  and  O_2
REMARK    2  A    between atoms: O_2  and  C_3
REMARK    3  A    between atoms: C_5  and  C_6
REMARK    4  A    between atoms: N_10  and  C_11
REMARK    5  A    between atoms: C_11  and  C_12
REMARK    6  A    between atoms: C_11  and  C_13
REMARK    7  A    between atoms: C_21  and  C_22
REMARK    8  A    between atoms: C_22  and  C_23
REMARK    9  A    between atoms: C_30  and  N_31
REMARK   10  A    between atoms: C_34  and  C_35
REMARK                            x       y       z     vdW  Elec       q    Type
REMARK                         _______ _______ _______ _____ _____    ______ ____
ROOT
ATOM      1  C   UNL     1       0.761   9.762  20.352  0.00  0.00    +0.000 A 
ATOM      2  N   UNL     1       1.060  10.316  21.501  0.00  0.00    +0.000 NA
ATOM      3  N   UNL     1       0.116  11.393  21.746  0.00  0.00    +0.000 NA
ATOM      4  C   UNL     1      -0.731  11.453  20.745  0.00  0.00    +0.000 A 
ATOM      5  N   UNL     1      -1.782  12.332  20.517  0.00  0.00    +0.000 N 
ATOM      6  C   UNL     1      -2.552  12.134  19.366  0.00  0.00    +0.000 A 
ATOM      7  C   UNL     1      -2.358  11.116  18.499  0.00  0.00    +0.000 A 
ATOM      8  C   UNL     1      -1.241  10.195  18.733  0.00  0.00    +0.000 A 
ATOM      9  C   UNL     1      -0.426  10.377  19.779  0.00  0.00    +0.000 A 
ENDROOT
BRANCH   1  12
ATOM     10  C   UNL     1       2.493   6.460  19.707  0.00  0.00    +0.000 A 
ATOM     11  C   UNL     1       1.800   7.496  20.348  0.00  0.00    +0.000 A 
ATOM     12  C   UNL     1       1.549   8.711  19.701  0.00  0.00    +0.000 A 
ATOM     13  C   UNL     1       1.977   8.900  18.391  0.00  0.00    +0.000 A 
ATOM     14  C   UNL     1       2.696   7.891  17.749  0.00  0.00    +0.000 A 
ATOM     15  C   UNL     1       2.963   6.669  18.397  0.00  0.00    +0.000 A 
BRANCH  15  16
ATOM     16  N   UNL     1       3.690   5.679  17.674  0.00  0.00    +0.000 N 
ATOM     17  C   UNL     1       3.362   4.360  17.449  0.00  0.00    +0.000 A 
ATOM     18  N   UNL     1       4.265   3.728  16.728  0.00  0.00    +0.000 NA
ATOM     19  C   UNL     1       5.233   4.659  16.467  0.00  0.00    +0.000 A 
ATOM     20  C   UNL     1       6.456   4.316  15.712  0.00  0.00    +0.000 C 
ATOM     21  C   UNL     1       4.889   5.873  17.016  0.00  0.00    +0.000 A 
ENDBRANCH  15  16
BRANCH  10  23
ATOM     22  C   UNL     1       1.711   4.512  20.835  0.00  0.00    +0.000 C 
ATOM     23  O   UNL     1       2.805   5.296  20.359  0.00  0.00    +0.000 OA
ENDBRANCH  10  23
ENDBRANCH   1  12
BRANCH   7  24
ATOM     24  C   UNL     1      -3.219  10.895  17.283  0.00  0.00    +0.000 C 
ATOM     25  C   UNL     1      -4.560  11.593  17.411  0.00  0.00    +0.000 C 
ATOM     26  F   UNL     1      -2.603  11.348  16.157  0.00  0.00    +0.000 F 
ATOM     27  F   UNL     1      -3.438   9.565  17.074  0.00  0.00    +0.000 F 
ENDBRANCH   7  24
BRANCH   5  28
ATOM     28  C   UNL     1      -2.016  13.425  21.480  0.00  0.00    +0.000 C 
ATOM     29  C   UNL     1      -1.953  14.787  20.778  0.00  0.00    +0.000 C 
BRANCH  28  30
ATOM     30  C   UNL     1      -3.293  13.188  22.281  0.00  0.00    +0.000 A 
ATOM     31  C   UNL     1      -3.196  12.617  23.565  0.00  0.00    +0.000 A 
ATOM     32  C   UNL     1      -4.332  12.458  24.360  0.00  0.00    +0.000 A 
ATOM     33  C   UNL     1      -5.572  12.852  23.872  0.00  0.00    +0.000 A 
ATOM     34  F   UNL     1      -6.658  12.727  24.645  0.00  0.00    +0.000 F 
ATOM     35  C   UNL     1      -5.699  13.379  22.595  0.00  0.00    +0.000 A 
ATOM     36  C   UNL     1      -4.565  13.542  21.798  0.00  0.00    +0.000 A 
ENDBRANCH  28  30
ENDBRANCH   5  28
TORSDOF 6
ENDMDL
MODEL 2
REMARK VINA RESULT:      -9.2      1.128      1.229
REMARK  Name = 
REMARK  10 active torsions:
REMARK  status: ('A' for Active; 'I' for Inactive)
REMARK    1  A    between atoms: C_1  and  O_2
REMARK    2  A    between atoms: O_2  and  C_3
REMARK    3  A    between atoms: C_5  and  C_6
REMARK    4  A    between atoms: N_10  and  C_11
REMARK    5  A    between atoms: C_11  and  C_12
REMARK    6  A    between atoms: C_11  and  C_13
REMARK    7  A    between atoms: C_21  and  C_22
REMARK    8  A    between atoms: C_22  and  C_23
REMARK    9  A    between atoms: C_30  and  N_31
REMARK   10  A    between atoms: C_34  and  C_35
REMARK                            x       y       z     vdW  Elec       q    Type
REMARK                         _______ _______ _______ _____ _____    ______ ____
ROOT
ATOM      1  C   UNL     1       0.949   9.079  21.066  0.00  0.00    +0.000 A 
ATOM      2  N   UNL     1       1.202   9.315  22.330  0.00  0.00    +0.000 NA
ATOM      3  N   UNL     1       0.373  10.428  22.758  0.00  0.00    +0.000 NA
ATOM      4  C   UNL     1      -0.362  10.827  21.747  0.00  0.00    +0.000 A 
ATOM      5  N   UNL     1      -1.276  11.870  21.665  0.00  0.00    +0.000 N 
ATOM      6  C   UNL     1      -1.952  12.042  20.452  0.00  0.00    +0.000 A 
ATOM      7  C   UNL     1      -1.798  11.228  19.384  0.00  0.00    +0.000 A 
ATOM      8  C   UNL     1      -0.826  10.134  19.469  0.00  0.00    +0.000 A 
ATOM      9  C   UNL     1      -0.098   9.964  20.578  0.00  0.00    +0.000 A 
ENDROOT
BRANCH   1  12
ATOM     10  C   UNL     1       2.513   5.841  19.888  0.00  0.00    +0.000 A 
ATOM     11  C   UNL     1       1.891   6.801  20.698  0.00  0.00    +0.000 A 
ATOM     12  C   UNL     1       1.665   8.103  20.239  0.00  0.00    +0.000 A 
ATOM     13  C   UNL     1       2.046   8.459  18.950  0.00  0.00    +0.000 A 
ATOM     14  C   UNL     1       2.695   7.525  18.141  0.00  0.00    +0.000 A 
ATOM     15  C   UNL     1       2.937   6.215  18.599  0.00  0.00    +0.000 A 
BRANCH  15  16
ATOM     16  N   UNL     1       3.592   5.312  17.712  0.00  0.00    +0.000 N 
ATOM     17  C   UNL     1       3.289   3.995  17.444  0.00  0.00    +0.000 A 
ATOM     18  N   UNL     1       4.103   3.457  16.559  0.00  0.00    +0.000 NA
ATOM     19  C   UNL     1       4.984   4.451  16.230  0.00  0.00    +0.000 A 
ATOM     20  C   UNL     1       6.098   4.219  15.287  0.00  0.00    +0.000 C 
ATOM     21  C   UNL     1       4.674   5.609  16.906  0.00  0.00    +0.000 A 
ENDBRANCH  15  16
BRANCH  10  23
ATOM     22  C   UNL     1       1.877   4.015  21.281  0.00  0.00    +0.000 C 
ATOM     23  O   UNL     1       2.803   4.586  20.356  0.00  0.00    +0.000 OA
ENDBRANCH  10  23
ENDBRANCH   1  12
BRANCH   7  24
ATOM     24  C   UNL     1      -2.562  11.405  18.098  0.00  0.00    +0.000 C 
ATOM     25  C   UNL     1      -2.903  10.071  17.460  0.00  0.00    +0.000 C 
ATOM     26  F   UNL     1      -3.718  12.092  18.305  0.00  0.00    +0.000 F 
ATOM     27  F   UNL     1      -1.848  12.146  17.204  0.00  0.00    +0.000 F 
ENDBRANCH   7  24
BRANCH   5  28
ATOM     28  C   UNL     1      -1.469  12.741  22.839  0.00  0.00    +0.000 C 
ATOM     29  C   UNL     1      -0.617  14.010  22.718  0.00  0.00    +0.000 C 
BRANCH  28  30
ATOM     30  C   UNL     1      -2.950  13.000  23.095  0.00  0.00    +0.000 A 
ATOM     31  C   UNL     1      -3.625  12.215  24.050  0.00  0.00    +0.000 A 
ATOM     32  C   UNL     1      -4.959  12.473  24.370  0.00  0.00    +0.000 A 
ATOM     33  C   UNL     1      -5.631  13.504  23.726  0.00  0.00    +0.000 A 
ATOM     34  F   UNL     1      -6.902  13.771  24.052  0.00  0.00    +0.000 F 
ATOM     35  C   UNL     1      -5.002  14.265  22.751  0.00  0.00    +0.000 A 
ATOM     36  C   UNL     1      -3.667  14.012  22.432  0.00  0.00    +0.000 A 
ENDBRANCH  28  30
ENDBRANCH   5  28
TORSDOF 6
ENDMDL
MODEL 3
REMARK VINA RESULT:      -9.1      0.880      1.053
REMARK  Name = 
REMARK  10 active torsions:
REMARK  status: ('A' for Active; 'I' for Inactive)
REMARK    1  A    between atoms: C_1  and  O_2
REMARK    2  A    between atoms: O_2  and  C_3
REMARK    3  A    between atoms: C_5  and  C_6
REMARK    4  A    between atoms: N_10  and  C_11
REMARK    5  A    between atoms: C_11  and  C_12
REMARK    6  A    between atoms: C_11  and  C_13
REMARK    7  A    between atoms: C_21  and  C_22
REMARK    8  A    between atoms: C_22  and  C_23
REMARK    9  A    between atoms: C_30  and  N_31
REMARK   10  A    between atoms: C_34  and  C_35
REMARK                            x       y       z     vdW  Elec       q    Type
REMARK                         _______ _______ _______ _____ _____    ______ ____
ROOT
ATOM      1  C   UNL     1       0.632   9.857  20.218  0.00  0.00    +0.000 A 
ATOM      2  N   UNL     1       0.856  10.442  21.370  0.00  0.00    +0.000 NA
ATOM      3  N   UNL     1      -0.125  11.499  21.541  0.00  0.00    +0.000 NA
ATOM      4  C   UNL     1      -0.919  11.517  20.496  0.00  0.00    +0.000 A 
ATOM      5  N   UNL     1      -1.978  12.365  20.195  0.00  0.00    +0.000 N 
ATOM      6  C   UNL     1      -2.681  12.123  19.009  0.00  0.00    +0.000 A 
ATOM      7  C   UNL     1      -2.416  11.093  18.176  0.00  0.00    +0.000 A 
ATOM      8  C   UNL     1      -1.292  10.206  18.489  0.00  0.00    +0.000 A 
ATOM      9  C   UNL     1      -0.538  10.430  19.572  0.00  0.00    +0.000 A 
ENDROOT
BRANCH   1  12
ATOM     10  C   UNL     1       2.463   6.582  19.730  0.00  0.00    +0.000 A 
ATOM     11  C   UNL     1       1.712   7.612  20.312  0.00  0.00    +0.000 A 
ATOM     12  C   UNL     1       1.479   8.813  19.633  0.00  0.00    +0.000 A 
ATOM     13  C   UNL     1       1.983   8.993  18.349  0.00  0.00    +0.000 A 
ATOM     14  C   UNL     1       2.758   7.990  17.767  0.00  0.00    +0.000 A 
ATOM     15  C   UNL     1       3.009   6.782  18.448  0.00  0.00    +0.000 A 
BRANCH  15  16
ATOM     16  N   UNL     1       3.797   5.797  17.786  0.00  0.00    +0.000 N 
ATOM     17  C   UNL     1       3.431   4.537  17.366  0.00  0.00    +0.000 A 
ATOM     18  N   UNL     1       4.416   3.892  16.777  0.00  0.00    +0.000 NA
ATOM     19  C   UNL     1       5.480   4.751  16.810  0.00  0.00    +0.000 A 
ATOM     20  C   UNL     1       6.805   4.366  16.281  0.00  0.00    +0.000 C 
ATOM     21  C   UNL     1       5.117   5.939  17.401  0.00  0.00    +0.000 A 
ENDBRANCH  15  16
BRANCH  10  23
ATOM     22  C   UNL     1       1.668   4.550  20.688  0.00  0.00    +0.000 C 
ATOM     23  O   UNL     1       2.756   5.433  20.417  0.00  0.00    +0.000 OA
ENDBRANCH  10  23
ENDBRANCH   1  12
BRANCH   7  24
ATOM     24  C   UNL     1      -3.207  10.825  16.922  0.00  0.00    +0.000 C 
ATOM     25  C   UNL     1      -4.571  11.488  16.967  0.00  0.00    +0.000 C 
ATOM     26  F   UNL     1      -2.545  11.275  15.821  0.00  0.00    +0.000 F 
ATOM     27  F   UNL     1      -3.379   9.487  16.728  0.00  0.00    +0.000 F 
ENDBRANCH   7  24
BRANCH   5  28
ATOM     28  C   UNL     1      -2.289  13.470  21.120  0.00  0.00    +0.000 C 
ATOM     29  C   UNL     1      -1.546  14.747  20.706  0.00  0.00    +0.000 C 
BRANCH  28  30
ATOM     30  C   UNL     1      -3.796  13.644  21.283  0.00  0.00    +0.000 A 
ATOM     31  C   UNL     1      -4.510  12.711  22.060  0.00  0.00    +0.000 A 
ATOM     32  C   UNL     1      -5.875  12.880  22.299  0.00  0.00    +0.000 A 
ATOM     33  C   UNL     1      -6.537  13.970  21.749  0.00  0.00    +0.000 A 
ATOM     34  F   UNL     1      -7.840  14.149  22.000  0.00  0.00    +0.000 F 
ATOM     35  C   UNL     1      -5.865  14.881  20.946  0.00  0.00    +0.000 A 
ATOM     36  C   UNL     1      -4.500  14.717  20.708  0.00  0.00    +0.000 A 
ENDBRANCH  28  30
ENDBRANCH   5  28
TORSDOF 6
ENDMDL
MODEL 4
REMARK VINA RESULT:      -8.6      1.347      2.123
REMARK  Name = 
REMARK  10 active torsions:
REMARK  status: ('A' for Active; 'I' for Inactive)
REMARK    1  A    between atoms: C_1  and  O_2
REMARK    2  A    between atoms: O_2  and  C_3
REMARK    3  A    between atoms: C_5  and  C_6
REMARK    4  A    between atoms: N_10  and  C_11
REMARK    5  A    between atoms: C_11  and  C_12
REMARK    6  A    between atoms: C_11  and  C_13
REMARK    7  A    between atoms: C_21  and  C_22
REMARK    8  A    between atoms: C_22  and  C_23
REMARK    9  A    between atoms: C_30  and  N_31
REMARK   10  A    between atoms: C_34  and  C_35
REMARK                            x       y       z     vdW  Elec       q    Type
REMARK                         _______ _______ _______ _____ _____    ______ ____
ROOT
ATOM      1  C   UNL     1       0.660   9.606  20.750  0.00  0.00    +0.000 A 
ATOM      2  N   UNL     1       0.970  10.284  21.829  0.00  0.00    +0.000 NA
ATOM      3  N   UNL     1       0.190  11.509  21.835  0.00  0.00    +0.000 NA
ATOM      4  C   UNL     1      -0.574  11.534  20.768  0.00  0.00    +0.000 A 
ATOM      5  N   UNL     1      -1.462  12.508  20.328  0.00  0.00    +0.000 N 
ATOM      6  C   UNL     1      -2.180  12.245  19.157  0.00  0.00    +0.000 A 
ATOM      7  C   UNL     1      -2.093  11.087  18.466  0.00  0.00    +0.000 A 
ATOM      8  C   UNL     1      -1.148  10.065  18.924  0.00  0.00    +0.000 A 
ATOM      9  C   UNL     1      -0.381  10.289  19.998  0.00  0.00    +0.000 A 
ENDROOT
BRANCH   1  12
ATOM     10  C   UNL     1       2.659   7.123  18.711  0.00  0.00    +0.000 A 
ATOM     11  C   UNL     1       1.971   8.283  19.093  0.00  0.00    +0.000 A 
ATOM     12  C   UNL     1       1.316   8.365  20.327  0.00  0.00    +0.000 A 
ATOM     13  C   UNL     1       1.355   7.288  21.206  0.00  0.00    +0.000 A 
ATOM     14  C   UNL     1       2.009   6.115  20.828  0.00  0.00    +0.000 A 
ATOM     15  C   UNL     1       2.661   6.018  19.582  0.00  0.00    +0.000 A 
BRANCH  15  16
ATOM     16  N   UNL     1       3.320   4.794  19.271  0.00  0.00    +0.000 N 
ATOM     17  C   UNL     1       4.653   4.473  19.407  0.00  0.00    +0.000 A 
ATOM     18  N   UNL     1       4.919   3.240  19.027  0.00  0.00    +0.000 NA
ATOM     19  C   UNL     1       3.721   2.722  18.619  0.00  0.00    +0.000 A 
ATOM     20  C   UNL     1       3.613   1.355  18.068  0.00  0.00    +0.000 C 
ATOM     21  C   UNL     1       2.718   3.650  18.784  0.00  0.00    +0.000 A 
ENDBRANCH  15  16
BRANCH  10  23
ATOM     22  C   UNL     1       4.624   7.350  17.382  0.00  0.00    +0.000 C 
ATOM     23  O   UNL     1       3.240   7.009  17.475  0.00  0.00    +0.000 OA
ENDBRANCH  10  23
ENDBRANCH   1  12
BRANCH   7  24
ATOM     24  C   UNL     1      -2.902  10.805  17.227  0.00  0.00    +0.000 C 
ATOM     25  C   UNL     1      -4.247  11.508  17.263  0.00  0.00    +0.000 C 
ATOM     26  F   UNL     1      -2.238  11.203  16.107  0.00  0.00    +0.000 F 
ATOM     27  F   UNL     1      -3.113   9.467  17.075  0.00  0.00    +0.000 F 
ENDBRANCH   7  24
BRANCH   5  28
ATOM     28  C   UNL     1      -1.583  13.759  21.100  0.00  0.00    +0.000 C 
ATOM     29  C   UNL     1      -1.477  14.978  20.174  0.00  0.00    +0.000 C 
BRANCH  28  30
ATOM     30  C   UNL     1      -2.828  13.744  21.981  0.00  0.00    +0.000 A 
ATOM     31  C   UNL     1      -3.979  14.430  21.546  0.00  0.00    +0.000 A 
ATOM     32  C   UNL     1      -5.162  14.374  22.284  0.00  0.00    +0.000 A 
ATOM     33  C   UNL     1      -5.198  13.650  23.469  0.00  0.00    +0.000 A 
ATOM     34  F   UNL     1      -6.340  13.572  24.164  0.00  0.00    +0.000 F 
ATOM     35  C   UNL     1      -4.066  13.000  23.941  0.00  0.00    +0.000 A 
ATOM     36  C   UNL     1      -2.882  13.051  23.203  0.00  0.00    +0.000 A 
ENDBRANCH  28  30
ENDBRANCH   5  28
TORSDOF 6
ENDMDL
MODEL 5
REMARK VINA RESULT:      -8.6      1.889      2.923
REMARK  Name = 
REMARK  10 active torsions:
REMARK  status: ('A' for Active; 'I' for Inactive)
REMARK    1  A    between atoms: C_1  and  O_2
REMARK    2  A    between atoms: O_2  and  C_3
REMARK    3  A    between atoms: C_5  and  C_6
REMARK    4  A    between atoms: N_10  and  C_11
REMARK    5  A    between atoms: C_11  and  C_12
REMARK    6  A    between atoms: C_11  and  C_13
REMARK    7  A    between atoms: C_21  and  C_22
REMARK    8  A    between atoms: C_22  and  C_23
REMARK    9  A    between atoms: C_30  and  N_31
REMARK   10  A    between atoms: C_34  and  C_35
REMARK                            x       y       z     vdW  Elec       q    Type
REMARK                         _______ _______ _______ _____ _____    ______ ____
ROOT
ATOM      1  C   UNL     1       0.643   9.682  20.112  0.00  0.00    +0.000 A 
ATOM      2  N   UNL     1       0.812  10.225  21.294  0.00  0.00    +0.000 NA
ATOM      3  N   UNL     1      -0.193  11.259  21.466  0.00  0.00    +0.000 NA
ATOM      4  C   UNL     1      -0.945  11.307  20.391  0.00  0.00    +0.000 A 
ATOM      5  N   UNL     1      -2.006  12.148  20.081  0.00  0.00    +0.000 N 
ATOM      6  C   UNL     1      -2.657  11.943  18.859  0.00  0.00    +0.000 A 
ATOM      7  C   UNL     1      -2.342  10.950  17.998  0.00  0.00    +0.000 A 
ATOM      8  C   UNL     1      -1.216  10.069  18.322  0.00  0.00    +0.000 A 
ATOM      9  C   UNL     1      -0.510  10.262  19.441  0.00  0.00    +0.000 A 
ENDROOT
BRANCH   1  12
ATOM     10  C   UNL     1       2.605   6.486  19.609  0.00  0.00    +0.000 A 
ATOM     11  C   UNL     1       1.815   7.483  20.196  0.00  0.00    +0.000 A 
ATOM     12  C   UNL     1       1.530   8.676  19.521  0.00  0.00    +0.000 A 
ATOM     13  C   UNL     1       2.023   8.879  18.236  0.00  0.00    +0.000 A 
ATOM     14  C   UNL     1       2.837   7.910  17.650  0.00  0.00    +0.000 A 
ATOM     15  C   UNL     1       3.139   6.711  18.327  0.00  0.00    +0.000 A 
BRANCH  15  16
ATOM     16  N   UNL     1       3.965   5.762  17.659  0.00  0.00    +0.000 N 
ATOM     17  C   UNL     1       3.654   4.482  17.253  0.00  0.00    +0.000 A 
ATOM     18  N   UNL     1       4.661   3.881  16.654  0.00  0.00    +0.000 NA
ATOM     19  C   UNL     1       5.682   4.791  16.666  0.00  0.00    +0.000 A 
ATOM     20  C   UNL     1       7.017   4.467  16.121  0.00  0.00    +0.000 C 
ATOM     21  C   UNL     1       5.270   5.965  17.255  0.00  0.00    +0.000 A 
ENDBRANCH  15  16
BRANCH  10  23
ATOM     22  C   UNL     1       1.874   4.529  20.757  0.00  0.00    +0.000 C 
ATOM     23  O   UNL     1       2.947   5.348  20.292  0.00  0.00    +0.000 OA
ENDBRANCH  10  23
ENDBRANCH   1  12
BRANCH   7  24
ATOM     24  C   UNL     1      -3.078  10.720  16.704  0.00  0.00    +0.000 C 
ATOM     25  C   UNL     1      -4.472  11.318  16.737  0.00  0.00    +0.000 C 
ATOM     26  F   UNL     1      -2.402  11.261  15.653  0.00  0.00    +0.000 F 
ATOM     27  F   UNL     1      -3.181   9.388  16.431  0.00  0.00    +0.000 F 
ENDBRANCH   7  24
BRANCH   5  28
ATOM     28  C   UNL     1      -2.371  13.212  21.034  0.00  0.00    +0.000 C 
ATOM     29  C   UNL     1      -2.825  12.609  22.369  0.00  0.00    +0.000 C 
BRANCH  28  30
ATOM     30  C   UNL     1      -1.257  14.247  21.158  0.00  0.00    +0.000 A 
ATOM     31  C   UNL     1      -0.783  14.881  19.994  0.00  0.00    +0.000 A 
ATOM     32  C   UNL     1       0.179  15.890  20.074  0.00  0.00    +0.000 A 
ATOM     33  C   UNL     1       0.686  16.256  21.314  0.00  0.00    +0.000 A 
ATOM     34  F   UNL     1       1.588  17.243  21.395  0.00  0.00    +0.000 F 
ATOM     35  C   UNL     1       0.267  15.617  22.472  0.00  0.00    +0.000 A 
ATOM     36  C   UNL     1      -0.697  14.612  22.396  0.00  0.00    +0.000 A 
ENDBRANCH  28  30
ENDBRANCH   5  28
TORSDOF 6
ENDMDL
MODEL 6
REMARK VINA RESULT:      -8.6      1.877      2.304
REMARK  Name = 
REMARK  10 active torsions:
REMARK  status: ('A' for Active; 'I' for Inactive)
REMARK    1  A    between atoms: C_1  and  O_2
REMARK    2  A    between atoms: O_2  and  C_3
REMARK    3  A    between atoms: C_5  and  C_6
REMARK    4  A    between atoms: N_10  and  C_11
REMARK    5  A    between atoms: C_11  and  C_12
REMARK    6  A    between atoms: C_11  and  C_13
REMARK    7  A    between atoms: C_21  and  C_22
REMARK    8  A    between atoms: C_22  and  C_23
REMARK    9  A    between atoms: C_30  and  N_31
REMARK   10  A    between atoms: C_34  and  C_35
REMARK                            x       y       z     vdW  Elec       q    Type
REMARK                         _______ _______ _______ _____ _____    ______ ____
ROOT
ATOM      1  C   UNL     1       0.490   9.149  21.095  0.00  0.00    +0.000 A 
ATOM      2  N   UNL     1      -0.098   8.830  22.222  0.00  0.00    +0.000 NA
ATOM      3  N   UNL     1      -0.751  10.017  22.745  0.00  0.00    +0.000 NA
ATOM      4  C   UNL     1      -0.549  11.016  21.917  0.00  0.00    +0.000 A 
ATOM      5  N   UNL     1      -0.946  12.344  22.006  0.00  0.00    +0.000 N 
ATOM      6  C   UNL     1      -0.616  13.189  20.942  0.00  0.00    +0.000 A 
ATOM      7  C   UNL     1       0.020  12.776  19.823  0.00  0.00    +0.000 A 
ATOM      8  C   UNL     1       0.450  11.377  19.735  0.00  0.00    +0.000 A 
ATOM      9  C   UNL     1       0.225  10.537  20.753  0.00  0.00    +0.000 A 
ENDROOT
BRANCH   1  12
ATOM     10  C   UNL     1       2.452   6.090  20.038  0.00  0.00    +0.000 A 
ATOM     11  C   UNL     1       1.690   6.983  20.804  0.00  0.00    +0.000 A 
ATOM     12  C   UNL     1       1.348   8.250  20.317  0.00  0.00    +0.000 A 
ATOM     13  C   UNL     1       1.752   8.634  19.043  0.00  0.00    +0.000 A 
ATOM     14  C   UNL     1       2.537   7.771  18.279  0.00  0.00    +0.000 A 
ATOM     15  C   UNL     1       2.897   6.498  18.767  0.00  0.00    +0.000 A 
BRANCH  15  16
ATOM     16  N   UNL     1       3.689   5.665  17.925  0.00  0.00    +0.000 N 
ATOM     17  C   UNL     1       3.353   4.465  17.336  0.00  0.00    +0.000 A 
ATOM     18  N   UNL     1       4.330   3.965  16.609  0.00  0.00    +0.000 NA
ATOM     19  C   UNL     1       5.358   4.861  16.722  0.00  0.00    +0.000 A 
ATOM     20  C   UNL     1       6.667   4.626  16.078  0.00  0.00    +0.000 C 
ATOM     21  C   UNL     1       4.978   5.928  17.504  0.00  0.00    +0.000 A 
ENDBRANCH  15  16
BRANCH  10  23
ATOM     22  C   UNL     1       1.836   4.049  21.102  0.00  0.00    +0.000 C 
ATOM     23  O   UNL     1       2.852   4.878  20.537  0.00  0.00    +0.000 OA
ENDBRANCH  10  23
ENDBRANCH   1  12
BRANCH   7  24
ATOM     24  C   UNL     1       0.336  13.692  18.669  0.00  0.00    +0.000 C 
ATOM     25  C   UNL     1       1.751  13.488  18.162  0.00  0.00    +0.000 C 
ATOM     26  F   UNL     1      -0.526  13.490  17.635  0.00  0.00    +0.000 F 
ATOM     27  F   UNL     1       0.184  14.998  19.027  0.00  0.00    +0.000 F 
ENDBRANCH   7  24
BRANCH   5  28
ATOM     28  C   UNL     1      -1.670  12.789  23.211  0.00  0.00    +0.000 C 
ATOM     29  C   UNL     1      -1.132  14.141  23.696  0.00  0.00    +0.000 C 
BRANCH  28  30
ATOM     30  C   UNL     1      -3.179  12.755  22.991  0.00  0.00    +0.000 A 
ATOM     31  C   UNL     1      -4.032  12.791  24.112  0.00  0.00    +0.000 A 
ATOM     32  C   UNL     1      -5.418  12.841  23.950  0.00  0.00    +0.000 A 
ATOM     33  C   UNL     1      -5.959  12.838  22.671  0.00  0.00    +0.000 A 
ATOM     34  F   UNL     1      -7.286  12.915  22.513  0.00  0.00    +0.000 F 
ATOM     35  C   UNL     1      -5.142  12.761  21.551  0.00  0.00    +0.000 A 
ATOM     36  C   UNL     1      -3.756  12.714  21.710  0.00  0.00    +0.000 A 
ENDBRANCH  28  30
ENDBRANCH   5  28
TORSDOF 6
ENDMDL
MODEL 7
REMARK VINA RESULT:      -8.4      1.501      2.180
REMARK  Name = 
REMARK  10 active torsions:
REMARK  status: ('A' for Active; 'I' for Inactive)
REMARK    1  A    between atoms: C_1  and  O_2
REMARK    2  A    between atoms: O_2  and  C_3
REMARK    3  A    between atoms: C_5  and  C_6
REMARK    4  A    between atoms: N_10  and  C_11
REMARK    5  A    between atoms: C_11  and  C_12
REMARK    6  A    between atoms: C_11  and  C_13
REMARK    7  A    between atoms: C_21  and  C_22
REMARK    8  A    between atoms: C_22  and  C_23
REMARK    9  A    between atoms: C_30  and  N_31
REMARK   10  A    between atoms: C_34  and  C_35
REMARK                            x       y       z     vdW  Elec       q    Type
REMARK                         _______ _______ _______ _____ _____    ______ ____
ROOT
ATOM      1  C   UNL     1       0.741   9.742  20.632  0.00  0.00    +0.000 A 
ATOM      2  N   UNL     1       1.150  10.508  21.614  0.00  0.00    +0.000 NA
ATOM      3  N   UNL     1       0.356  11.724  21.602  0.00  0.00    +0.000 NA
ATOM      4  C   UNL     1      -0.515  11.656  20.622  0.00  0.00    +0.000 A 
ATOM      5  N   UNL     1      -1.458  12.585  20.200  0.00  0.00    +0.000 N 
ATOM      6  C   UNL     1      -2.289  12.222  19.135  0.00  0.00    +0.000 A 
ATOM      7  C   UNL     1      -2.256  11.012  18.535  0.00  0.00    +0.000 A 
ATOM      8  C   UNL     1      -1.253  10.036  18.973  0.00  0.00    +0.000 A 
ATOM      9  C   UNL     1      -0.383  10.353  19.939  0.00  0.00    +0.000 A 
ENDROOT
BRANCH   1  12
ATOM     10  C   UNL     1       2.684   7.158  18.667  0.00  0.00    +0.000 A 
ATOM     11  C   UNL     1       2.022   8.343  19.016  0.00  0.00    +0.000 A 
ATOM     12  C   UNL     1       1.368   8.475  20.245  0.00  0.00    +0.000 A 
ATOM     13  C   UNL     1       1.382   7.422  21.154  0.00  0.00    +0.000 A 
ATOM     14  C   UNL     1       2.009   6.224  20.811  0.00  0.00    +0.000 A 
ATOM     15  C   UNL     1       2.659   6.078  19.569  0.00  0.00    +0.000 A 
BRANCH  15  16
ATOM     16  N   UNL     1       3.290   4.830  19.293  0.00  0.00    +0.000 N 
ATOM     17  C   UNL     1       4.605   4.466  19.490  0.00  0.00    +0.000 A 
ATOM     18  N   UNL     1       4.846   3.223  19.128  0.00  0.00    +0.000 NA
ATOM     19  C   UNL     1       3.651   2.742  18.669  0.00  0.00    +0.000 A 
ATOM     20  C   UNL     1       3.522   1.376  18.121  0.00  0.00    +0.000 C 
ATOM     21  C   UNL     1       2.673   3.704  18.785  0.00  0.00    +0.000 A 
ENDBRANCH  15  16
BRANCH  10  23
ATOM     22  C   UNL     1       4.653   7.311  17.333  0.00  0.00    +0.000 C 
ATOM     23  O   UNL     1       3.264   6.996  17.436  0.00  0.00    +0.000 OA
ENDBRANCH  10  23
ENDBRANCH   1  12
BRANCH   7  24
ATOM     24  C   UNL     1      -3.184  10.623  17.413  0.00  0.00    +0.000 C 
ATOM     25  C   UNL     1      -2.603  10.975  16.057  0.00  0.00    +0.000 C 
ATOM     26  F   UNL     1      -3.448   9.288  17.436  0.00  0.00    +0.000 F 
ATOM     27  F   UNL     1      -4.393  11.240  17.544  0.00  0.00    +0.000 F 
ENDBRANCH   7  24
BRANCH   5  28
ATOM     28  C   UNL     1      -1.518  13.894  20.876  0.00  0.00    +0.000 C 
ATOM     29  C   UNL     1      -1.195  15.026  19.892  0.00  0.00    +0.000 C 
BRANCH  28  30
ATOM     30  C   UNL     1      -2.836  14.068  21.624  0.00  0.00    +0.000 A 
ATOM     31  C   UNL     1      -3.131  13.202  22.695  0.00  0.00    +0.000 A 
ATOM     32  C   UNL     1      -4.289  13.378  23.454  0.00  0.00    +0.000 A 
ATOM     33  C   UNL     1      -5.167  14.407  23.137  0.00  0.00    +0.000 A 
ATOM     34  F   UNL     1      -6.264  14.595  23.882  0.00  0.00    +0.000 F 
ATOM     35  C   UNL     1      -4.920  15.248  22.060  0.00  0.00    +0.000 A 
ATOM     36  C   UNL     1      -3.762  15.076  21.302  0.00  0.00    +0.000 A 
ENDBRANCH  28  30
ENDBRANCH   5  28
TORSDOF 6
ENDMDL
MODEL 8
REMARK VINA RESULT:      -8.4      3.637     10.546
REMARK  Name = 
REMARK  10 active torsions:
REMARK  status: ('A' for Active; 'I' for Inactive)
REMARK    1  A    between atoms: C_1  and  O_2
REMARK    2  A    between atoms: O_2  and  C_3
REMARK    3  A    between atoms: C_5  and  C_6
REMARK    4  A    between atoms: N_10  and  C_11
REMARK    5  A    between atoms: C_11  and  C_12
REMARK    6  A    between atoms: C_11  and  C_13
REMARK    7  A    between atoms: C_21  and  C_22
REMARK    8  A    between atoms: C_22  and  C_23
REMARK    9  A    between atoms: C_30  and  N_31
REMARK   10  A    between atoms: C_34  and  C_35
REMARK                            x       y       z     vdW  Elec       q    Type
REMARK                         _______ _______ _______ _____ _____    ______ ____
ROOT
ATOM      1  C   UNL     1       2.089   8.542  18.240  0.00  0.00    +0.000 A 
ATOM      2  N   UNL     1       3.044   8.987  17.460  0.00  0.00    +0.000 NA
ATOM      3  N   UNL     1       4.129   8.021  17.474  0.00  0.00    +0.000 NA
ATOM      4  C   UNL     1       3.797   7.018  18.252  0.00  0.00    +0.000 A 
ATOM      5  N   UNL     1       4.518   5.882  18.600  0.00  0.00    +0.000 N 
ATOM      6  C   UNL     1       3.889   4.949  19.431  0.00  0.00    +0.000 A 
ATOM      7  C   UNL     1       2.616   5.069  19.869  0.00  0.00    +0.000 A 
ATOM      8  C   UNL     1       1.861   6.273  19.510  0.00  0.00    +0.000 A 
ATOM      9  C   UNL     1       2.433   7.235  18.777  0.00  0.00    +0.000 A 
ENDROOT
BRANCH   1  12
ATOM     10  C   UNL     1      -0.487  10.504  20.197  0.00  0.00    +0.000 A 
ATOM     11  C   UNL     1       0.640   9.733  19.882  0.00  0.00    +0.000 A 
ATOM     12  C   UNL     1       0.872   9.285  18.576  0.00  0.00    +0.000 A 
ATOM     13  C   UNL     1      -0.019   9.620  17.561  0.00  0.00    +0.000 A 
ATOM     14  C   UNL     1      -1.162  10.360  17.864  0.00  0.00    +0.000 A 
ATOM     15  C   UNL     1      -1.410  10.804  19.178  0.00  0.00    +0.000 A 
BRANCH  15  16
ATOM     16  N   UNL     1      -2.590  11.567  19.409  0.00  0.00    +0.000 N 
ATOM     17  C   UNL     1      -2.806  12.563  20.336  0.00  0.00    +0.000 A 
ATOM     18  N   UNL     1      -4.022  13.065  20.269  0.00  0.00    +0.000 NA
ATOM     19  C   UNL     1      -4.641  12.374  19.263  0.00  0.00    +0.000 A 
ATOM     20  C   UNL     1      -6.056  12.617  18.911  0.00  0.00    +0.000 C 
ATOM     21  C   UNL     1      -3.773  11.466  18.702  0.00  0.00    +0.000 A 
ENDBRANCH  15  16
BRANCH  10  23
ATOM     22  C   UNL     1      -0.407   9.958  22.516  0.00  0.00    +0.000 C 
ATOM     23  O   UNL     1      -0.758  10.883  21.486  0.00  0.00    +0.000 OA
ENDBRANCH  10  23
ENDBRANCH   1  12
BRANCH   7  24
ATOM     24  C   UNL     1       1.942   4.036  20.733  0.00  0.00    +0.000 C 
ATOM     25  C   UNL     1       2.246   2.626  20.263  0.00  0.00    +0.000 C 
ATOM     26  F   UNL     1       2.335   4.152  22.031  0.00  0.00    +0.000 F 
ATOM     27  F   UNL     1       0.590   4.211  20.740  0.00  0.00    +0.000 F 
ENDBRANCH   7  24
BRANCH   5  28
ATOM     28  C   UNL     1       5.896   5.733  18.097  0.00  0.00    +0.000 C 
ATOM     29  C   UNL     1       6.764   4.980  19.112  0.00  0.00    +0.000 C 
BRANCH  28  30
ATOM     30  C   UNL     1       5.907   5.135  16.694  0.00  0.00    +0.000 A 
ATOM     31  C   UNL     1       6.968   5.456  15.824  0.00  0.00    +0.000 A 
ATOM     32  C   UNL     1       7.056   4.867  14.562  0.00  0.00    +0.000 A 
ATOM     33  C   UNL     1       6.078   3.970  14.154  0.00  0.00    +0.000 A 
ATOM     34  F   UNL     1       6.177   3.382  12.954  0.00  0.00    +0.000 F 
ATOM     35  C   UNL     1       5.001   3.668  14.975  0.00  0.00    +0.000 A 
ATOM     36  C   UNL     1       4.911   4.252  16.239  0.00  0.00    +0.000 A 
ENDBRANCH  28  30
ENDBRANCH   5  28
TORSDOF 6
ENDMDL
MODEL 9
REMARK VINA RESULT:      -8.4      0.838      1.460
REMARK  Name = 
REMARK  10 active torsions:
REMARK  status: ('A' for Active; 'I' for Inactive)
REMARK    1  A    between atoms: C_1  and  O_2
REMARK    2  A    between atoms: O_2  and  C_3
REMARK    3  A    between atoms: C_5  and  C_6
REMARK    4  A    between atoms: N_10  and  C_11
REMARK    5  A    between atoms: C_11  and  C_12
REMARK    6  A    between atoms: C_11  and  C_13
REMARK    7  A    between atoms: C_21  and  C_22
REMARK    8  A    between atoms: C_22  and  C_23
REMARK    9  A    between atoms: C_30  and  N_31
REMARK   10  A    between atoms: C_34  and  C_35
REMARK                            x       y       z     vdW  Elec       q    Type
REMARK                         _______ _______ _______ _____ _____    ______ ____
ROOT
ATOM      1  C   UNL     1       0.754   9.707  20.570  0.00  0.00    +0.000 A 
ATOM      2  N   UNL     1       1.120  10.347  21.654  0.00  0.00    +0.000 NA
ATOM      3  N   UNL     1       0.248  11.497  21.817  0.00  0.00    +0.000 NA
ATOM      4  C   UNL     1      -0.624  11.515  20.836  0.00  0.00    +0.000 A 
ATOM      5  N   UNL     1      -1.629  12.431  20.552  0.00  0.00    +0.000 N 
ATOM      6  C   UNL     1      -2.443  12.173  19.443  0.00  0.00    +0.000 A 
ATOM      7  C   UNL     1      -2.334  11.068  18.673  0.00  0.00    +0.000 A 
ATOM      8  C   UNL     1      -1.267  10.107  18.967  0.00  0.00    +0.000 A 
ATOM      9  C   UNL     1      -0.412  10.337  19.970  0.00  0.00    +0.000 A 
ENDROOT
BRANCH   1  12
ATOM     10  C   UNL     1       2.204   6.234  20.168  0.00  0.00    +0.000 A 
ATOM     11  C   UNL     1       1.592   7.364  20.728  0.00  0.00    +0.000 A 
ATOM     12  C   UNL     1       1.460   8.553  20.003  0.00  0.00    +0.000 A 
ATOM     13  C   UNL     1       1.927   8.622  18.695  0.00  0.00    +0.000 A 
ATOM     14  C   UNL     1       2.567   7.518  18.133  0.00  0.00    +0.000 A 
ATOM     15  C   UNL     1       2.715   6.319  18.860  0.00  0.00    +0.000 A 
BRANCH  15  16
ATOM     16  N   UNL     1       3.366   5.228  18.216  0.00  0.00    +0.000 N 
ATOM     17  C   UNL     1       4.360   5.258  17.261  0.00  0.00    +0.000 A 
ATOM     18  N   UNL     1       4.740   4.054  16.887  0.00  0.00    +0.000 NA
ATOM     19  C   UNL     1       3.968   3.190  17.615  0.00  0.00    +0.000 A 
ATOM     20  C   UNL     1       4.066   1.726  17.439  0.00  0.00    +0.000 C 
ATOM     21  C   UNL     1       3.135   3.888  18.458  0.00  0.00    +0.000 A 
ENDBRANCH  15  16
BRANCH  10  23
ATOM     22  C   UNL     1       1.299   4.186  20.985  0.00  0.00    +0.000 C 
ATOM     23  O   UNL     1       2.401   5.090  20.897  0.00  0.00    +0.000 OA
ENDBRANCH  10  23
ENDBRANCH   1  12
BRANCH   7  24
ATOM     24  C   UNL     1      -3.244  10.787  17.505  0.00  0.00    +0.000 C 
ATOM     25  C   UNL     1      -2.570  11.098  16.182  0.00  0.00    +0.000 C 
ATOM     26  F   UNL     1      -3.636   9.483  17.493  0.00  0.00    +0.000 F 
ATOM     27  F   UNL     1      -4.392  11.516  17.593  0.00  0.00    +0.000 F 
ENDBRANCH   7  24
BRANCH   5  28
ATOM     28  C   UNL     1      -1.769  13.621  21.411  0.00  0.00    +0.000 C 
ATOM     29  C   UNL     1      -1.724  14.903  20.571  0.00  0.00    +0.000 C 
BRANCH  28  30
ATOM     30  C   UNL     1      -2.992  13.505  22.316  0.00  0.00    +0.000 A 
ATOM     31  C   UNL     1      -4.156  14.226  21.985  0.00  0.00    +0.000 A 
ATOM     32  C   UNL     1      -5.320  14.084  22.742  0.00  0.00    +0.000 A 
ATOM     33  C   UNL     1      -5.323  13.238  23.844  0.00  0.00    +0.000 A 
ATOM     34  F   UNL     1      -6.447  13.080  24.554  0.00  0.00    +0.000 F 
ATOM     35  C   UNL     1      -4.177  12.549  24.216  0.00  0.00    +0.000 A 
ATOM     36  C   UNL     1      -3.013  12.686  23.459  0.00  0.00    +0.000 A 
ENDBRANCH  28  30
ENDBRANCH   5  28
TORSDOF 6
ENDMDL
