MODEL 1
REMARK VINA RESULT:      -8.8      0.000      0.000
REMARK  Name = 
REMARK  10 active torsions:
REMARK  status: ('A' for Active; 'I' for Inactive)
REMARK    1  A    between atoms: C_1  and  C_2
REMARK    2  A    between atoms: C_2  and  C_3
REMARK    3  A    between atoms: C_4  and  C_5
REMARK    4  A    between atoms: C_5  and  C_6
REMARK    5  A    between atoms: C_6  and  C_7
REMARK    6  A    between atoms: C_7  and  C_8
REMARK    7  A    between atoms: C_9  and  C_10
REMARK    8  A    between atoms: C_17  and  O_18
REMARK    9  A    between atoms: O_18  and  C_19
REMARK   10  A    between atoms: C_19  and  C_21
REMARK                            x       y       z     vdW  Elec       q    Type
REMARK                         _______ _______ _______ _____ _____    ______ ____
ROOT
ATOM      1  C   UNL     1       6.802   4.655  17.256  0.00  0.00    +0.000 C 
ATOM      2  O   UNL     1       7.901   4.645  18.171  0.00  0.00    +0.000 OA
ATOM      3  C   UNL     1       7.539   5.195  19.349  0.00  0.00    +0.000 C 
ATOM      4  O   UNL     1       8.219   5.154  20.362  0.00  0.00    +0.000 OA
ATOM      5  C   UNL     1       6.201   5.851  19.257  0.00  0.00    +0.000 C 
ATOM      6  C   UNL     1       5.762   5.643  17.809  0.00  0.00    +0.000 C 
ATOM      7  C   UNL     1       4.363   5.006  17.711  0.00  0.00    +0.000 C 
ATOM      8  C   UNL     1       3.268   5.874  18.331  0.00  0.00    +0.000 C 
ATOM      9  C   UNL     1       3.357   7.285  17.835  0.00  0.00    +0.000 C 
ATOM     10  C   UNL     1       4.448   7.809  17.259  0.00  0.00    +0.000 C 
ATOM     11  C   UNL     1       5.708   7.022  17.139  0.00  0.00    +0.000 C 
ATOM     12  O   UNL     1       6.676   7.573  16.625  0.00  0.00    +0.000 OA
ENDROOT
BRANCH   1  15
ATOM     13  C   UNL     1       6.790   4.684  14.689  0.00  0.00    +0.000 C 
ATOM     14  C   UNL     1       5.351   4.260  14.577  0.00  0.00    +0.000 C 
ATOM     15  C   UNL     1       7.384   4.870  15.887  0.00  0.00    +0.000 C 
BRANCH  13  16
ATOM     16  C   UNL     1       7.642   4.810  13.431  0.00  0.00    +0.000 C 
BRANCH  16  17
ATOM     17  C   UNL     1       6.963   4.461  12.099  0.00  0.00    +0.000 C 
BRANCH  17  21
ATOM     18  C   UNL     1       6.040   0.806  11.075  0.00  0.00    +0.000 C 
ATOM     19  C   UNL     1       5.890   2.260  11.430  0.00  0.00    +0.000 C 
ATOM     20  C   UNL     1       4.505   2.842  11.346  0.00  0.00    +0.000 C 
ATOM     21  C   UNL     1       6.965   2.982  11.811  0.00  0.00    +0.000 C 
ENDBRANCH  17  21
ENDBRANCH  16  17
ENDBRANCH  13  16
ENDBRANCH   1  15
BRANCH   8  22
ATOM     22  O   UNL     1       2.003   5.339  17.929  0.00  0.00    +0.000 OA
BRANCH  22  23
ATOM     23  C   UNL     1       1.931   3.986  17.907  0.00  0.00    +0.000 C 
ATOM     24  O   UNL     1       1.662   3.306  16.933  0.00  0.00    +0.000 OA
BRANCH  23  25
ATOM     25  C   UNL     1       2.177   3.449  19.263  0.00  0.00    +0.000 A 
ATOM     26  C   UNL     1       1.575   4.015  20.403  0.00  0.00    +0.000 A 
ATOM     27 CL   UNL     1       0.566   5.423  20.361  0.00  0.00    +0.000 Cl
ATOM     28  C   UNL     1       1.816   3.477  21.672  0.00  0.00    +0.000 A 
ATOM     29  C   UNL     1       2.678   2.397  21.833  0.00  0.00    +0.000 A 
ATOM     30  C   UNL     1       3.300   1.846  20.716  0.00  0.00    +0.000 A 
ATOM     31  C   UNL     1       3.049   2.360  19.435  0.00  0.00    +0.000 A 
ATOM     32 CL   UNL     1       3.849   1.554  18.128  0.00  0.00    +0.000 Cl
ENDBRANCH  23  25
ENDBRANCH  22  23
ENDBRANCH   8  22
TORSDOF 7
ENDMDL
MODEL 2
REMARK VINA RESULT:      -8.3      5.788      9.454
REMARK  Name = 
REMARK  10 active torsions:
REMARK  status: ('A' for Active; 'I' for Inactive)
REMARK    1  A    between atoms: C_1  and  C_2
REMARK    2  A    between atoms: C_2  and  C_3
REMARK    3  A    between atoms: C_4  and  C_5
REMARK    4  A    between atoms: C_5  and  C_6
REMARK    5  A    between atoms: C_6  and  C_7
REMARK    6  A    between atoms: C_7  and  C_8
REMARK    7  A    between atoms: C_9  and  C_10
REMARK    8  A    between atoms: C_17  and  O_18
REMARK    9  A    between atoms: O_18  and  C_19
REMARK   10  A    between atoms: C_19  and  C_21
REMARK                            x       y       z     vdW  Elec       q    Type
REMARK                         _______ _______ _______ _____ _____    ______ ____
ROOT
ATOM      1  C   UNL     1      -0.406  10.740  18.074  0.00  0.00    +0.000 C 
ATOM      2  O   UNL     1      -0.107  12.136  18.167  0.00  0.00    +0.000 OA
ATOM      3  C   UNL     1       1.146  12.319  18.634  0.00  0.00    +0.000 C 
ATOM      4  O   UNL     1       1.724  13.394  18.644  0.00  0.00    +0.000 OA
ATOM      5  C   UNL     1       1.737  11.040  19.128  0.00  0.00    +0.000 C 
ATOM      6  C   UNL     1       0.644   9.995  18.912  0.00  0.00    +0.000 C 
ATOM      7  C   UNL     1       1.151   8.778  18.116  0.00  0.00    +0.000 C 
ATOM      8  C   UNL     1       2.275   8.026  18.828  0.00  0.00    +0.000 C 
ATOM      9  C   UNL     1       1.913   7.743  20.254  0.00  0.00    +0.000 C 
ATOM     10  C   UNL     1       0.943   8.384  20.922  0.00  0.00    +0.000 C 
ATOM     11  C   UNL     1       0.191   9.507  20.295  0.00  0.00    +0.000 C 
ATOM     12  O   UNL     1      -0.665  10.067  20.973  0.00  0.00    +0.000 OA
ENDROOT
BRANCH   1  15
ATOM     13  C   UNL     1      -2.906  10.505  17.540  0.00  0.00    +0.000 C 
ATOM     14  C   UNL     1      -2.704  10.491  16.050  0.00  0.00    +0.000 C 
ATOM     15  C   UNL     1      -1.866  10.592  18.397  0.00  0.00    +0.000 C 
BRANCH  13  16
ATOM     16  C   UNL     1      -4.319  10.526  18.112  0.00  0.00    +0.000 C 
BRANCH  16  17
ATOM     17  C   UNL     1      -5.001  11.897  18.217  0.00  0.00    +0.000 C 
BRANCH  17  21
ATOM     18  C   UNL     1      -5.946  12.850  21.886  0.00  0.00    +0.000 C 
ATOM     19  C   UNL     1      -5.120  12.595  20.655  0.00  0.00    +0.000 C 
ATOM     20  C   UNL     1      -3.649  12.902  20.746  0.00  0.00    +0.000 C 
ATOM     21  C   UNL     1      -5.697  12.106  19.537  0.00  0.00    +0.000 C 
ENDBRANCH  17  21
ENDBRANCH  16  17
ENDBRANCH  13  16
ENDBRANCH   1  15
BRANCH   8  22
ATOM     22  O   UNL     1       2.460   6.775  18.158  0.00  0.00    +0.000 OA
BRANCH  22  23
ATOM     23  C   UNL     1       3.287   5.903  18.783  0.00  0.00    +0.000 C 
ATOM     24  O   UNL     1       4.301   6.199  19.390  0.00  0.00    +0.000 OA
BRANCH  23  25
ATOM     25  C   UNL     1       2.806   4.520  18.577  0.00  0.00    +0.000 A 
ATOM     26  C   UNL     1       1.795   3.961  19.383  0.00  0.00    +0.000 A 
ATOM     27 CL   UNL     1       1.074   4.778  20.730  0.00  0.00    +0.000 Cl
ATOM     28  C   UNL     1       1.351   2.654  19.155  0.00  0.00    +0.000 A 
ATOM     29  C   UNL     1       1.920   1.874  18.154  0.00  0.00    +0.000 A 
ATOM     30  C   UNL     1       2.938   2.407  17.368  0.00  0.00    +0.000 A 
ATOM     31  C   UNL     1       3.378   3.724  17.569  0.00  0.00    +0.000 A 
ATOM     32 CL   UNL     1       4.616   4.279  16.494  0.00  0.00    +0.000 Cl
ENDBRANCH  23  25
ENDBRANCH  22  23
ENDBRANCH   8  22
TORSDOF 7
ENDMDL
MODEL 3
REMARK VINA RESULT:      -8.2      6.189      9.739
REMARK  Name = 
REMARK  10 active torsions:
REMARK  status: ('A' for Active; 'I' for Inactive)
REMARK    1  A    between atoms: C_1  and  C_2
REMARK    2  A    between atoms: C_2  and  C_3
REMARK    3  A    between atoms: C_4  and  C_5
REMARK    4  A    between atoms: C_5  and  C_6
REMARK    5  A    between atoms: C_6  and  C_7
REMARK    6  A    between atoms: C_7  and  C_8
REMARK    7  A    between atoms: C_9  and  C_10
REMARK    8  A    between atoms: C_17  and  O_18
REMARK    9  A    between atoms: O_18  and  C_19
REMARK   10  A    between atoms: C_19  and  C_21
REMARK                            x       y       z     vdW  Elec       q    Type
REMARK                         _______ _______ _______ _____ _____    ______ ____
ROOT
ATOM      1  C   UNL     1      -0.448  11.188  18.156  0.00  0.00    +0.000 C 
ATOM      2  O   UNL     1      -0.057  12.561  18.245  0.00  0.00    +0.000 OA
ATOM      3  C   UNL     1       1.200  12.664  18.727  0.00  0.00    +0.000 C 
ATOM      4  O   UNL     1       1.847  13.698  18.738  0.00  0.00    +0.000 OA
ATOM      5  C   UNL     1       1.698  11.352  19.236  0.00  0.00    +0.000 C 
ATOM      6  C   UNL     1       0.540  10.381  19.013  0.00  0.00    +0.000 C 
ATOM      7  C   UNL     1       0.975   9.127  18.232  0.00  0.00    +0.000 C 
ATOM      8  C   UNL     1       2.038   8.307  18.963  0.00  0.00    +0.000 C 
ATOM      9  C   UNL     1       1.639   8.058  20.385  0.00  0.00    +0.000 C 
ATOM     10  C   UNL     1       0.706   8.767  21.036  0.00  0.00    +0.000 C 
ATOM     11  C   UNL     1       0.038   9.934  20.393  0.00  0.00    +0.000 C 
ATOM     12  O   UNL     1      -0.786  10.554  21.057  0.00  0.00    +0.000 OA
ENDROOT
BRANCH   1  15
ATOM     13  C   UNL     1      -2.944  10.960  17.602  0.00  0.00    +0.000 C 
ATOM     14  C   UNL     1      -2.712  10.717  16.136  0.00  0.00    +0.000 C 
ATOM     15  C   UNL     1      -1.918  11.139  18.462  0.00  0.00    +0.000 C 
BRANCH  13  16
ATOM     16  C   UNL     1      -4.366  11.115  18.129  0.00  0.00    +0.000 C 
BRANCH  16  17
ATOM     17  C   UNL     1      -4.616  12.266  19.112  0.00  0.00    +0.000 C 
BRANCH  17  21
ATOM     18  C   UNL     1      -7.815  11.535  21.231  0.00  0.00    +0.000 C 
ATOM     19  C   UNL     1      -6.936  12.023  20.113  0.00  0.00    +0.000 C 
ATOM     20  C   UNL     1      -7.625  12.642  18.926  0.00  0.00    +0.000 C 
ATOM     21  C   UNL     1      -5.595  11.905  20.200  0.00  0.00    +0.000 C 
ENDBRANCH  17  21
ENDBRANCH  16  17
ENDBRANCH  13  16
ENDBRANCH   1  15
BRANCH   8  22
ATOM     22  O   UNL     1       2.147   7.042  18.303  0.00  0.00    +0.000 OA
BRANCH  22  23
ATOM     23  C   UNL     1       3.129   6.232  18.768  0.00  0.00    +0.000 C 
ATOM     24  O   UNL     1       4.149   6.601  19.322  0.00  0.00    +0.000 OA
BRANCH  23  25
ATOM     25  C   UNL     1       2.806   4.822  18.457  0.00  0.00    +0.000 A 
ATOM     26  C   UNL     1       1.850   4.102  19.199  0.00  0.00    +0.000 A 
ATOM     27 CL   UNL     1       1.022   4.740  20.581  0.00  0.00    +0.000 Cl
ATOM     28  C   UNL     1       1.556   2.773  18.873  0.00  0.00    +0.000 A 
ATOM     29  C   UNL     1       2.224   2.133  17.835  0.00  0.00    +0.000 A 
ATOM     30  C   UNL     1       3.189   2.827  17.110  0.00  0.00    +0.000 A 
ATOM     31  C   UNL     1       3.478   4.167  17.411  0.00  0.00    +0.000 A 
ATOM     32 CL   UNL     1       4.664   4.927  16.405  0.00  0.00    +0.000 Cl
ENDBRANCH  23  25
ENDBRANCH  22  23
ENDBRANCH   8  22
TORSDOF 7
ENDMDL
MODEL 4
REMARK VINA RESULT:      -8.2      6.384      9.771
REMARK  Name = 
REMARK  10 active torsions:
REMARK  status: ('A' for Active; 'I' for Inactive)
REMARK    1  A    between atoms: C_1  and  C_2
REMARK    2  A    between atoms: C_2  and  C_3
REMARK    3  A    between atoms: C_4  and  C_5
REMARK    4  A    between atoms: C_5  and  C_6
REMARK    5  A    between atoms: C_6  and  C_7
REMARK    6  A    between atoms: C_7  and  C_8
REMARK    7  A    between atoms: C_9  and  C_10
REMARK    8  A    between atoms: C_17  and  O_18
REMARK    9  A    between atoms: O_18  and  C_19
REMARK   10  A    between atoms: C_19  and  C_21
REMARK                            x       y       z     vdW  Elec       q    Type
REMARK                         _______ _______ _______ _____ _____    ______ ____
ROOT
ATOM      1  C   UNL     1      -0.549  11.261  18.112  0.00  0.00    +0.000 C 
ATOM      2  O   UNL     1      -0.192  12.641  18.235  0.00  0.00    +0.000 OA
ATOM      3  C   UNL     1       1.041  12.763  18.771  0.00  0.00    +0.000 C 
ATOM      4  O   UNL     1       1.665  13.810  18.823  0.00  0.00    +0.000 OA
ATOM      5  C   UNL     1       1.545  11.455  19.282  0.00  0.00    +0.000 C 
ATOM      6  C   UNL     1       0.419  10.463  18.998  0.00  0.00    +0.000 C 
ATOM      7  C   UNL     1       0.913   9.230  18.218  0.00  0.00    +0.000 C 
ATOM      8  C   UNL     1       1.962   8.422  18.982  0.00  0.00    +0.000 C 
ATOM      9  C   UNL     1       1.511   8.145  20.383  0.00  0.00    +0.000 C 
ATOM     10  C   UNL     1       0.536   8.824  21.004  0.00  0.00    +0.000 C 
ATOM     11  C   UNL     1      -0.130   9.986  20.350  0.00  0.00    +0.000 C 
ATOM     12  O   UNL     1      -0.994  10.579  20.987  0.00  0.00    +0.000 OA
ENDROOT
BRANCH   1  15
ATOM     13  C   UNL     1      -2.973  10.608  17.575  0.00  0.00    +0.000 C 
ATOM     14  C   UNL     1      -2.617   9.890  16.302  0.00  0.00    +0.000 C 
ATOM     15  C   UNL     1      -2.030  11.178  18.356  0.00  0.00    +0.000 C 
BRANCH  13  16
ATOM     16  C   UNL     1      -4.437  10.795  17.955  0.00  0.00    +0.000 C 
BRANCH  16  17
ATOM     17  C   UNL     1      -5.179  11.962  17.288  0.00  0.00    +0.000 C 
BRANCH  17  21
ATOM     18  C   UNL     1      -7.899  14.250  18.908  0.00  0.00    +0.000 C 
ATOM     19  C   UNL     1      -6.959  13.669  17.888  0.00  0.00    +0.000 C 
ATOM     20  C   UNL     1      -7.027  14.240  16.497  0.00  0.00    +0.000 C 
ATOM     21  C   UNL     1      -6.100  12.688  18.234  0.00  0.00    +0.000 C 
ENDBRANCH  17  21
ENDBRANCH  16  17
ENDBRANCH  13  16
ENDBRANCH   1  15
BRANCH   8  22
ATOM     22  O   UNL     1       2.126   7.169  18.310  0.00  0.00    +0.000 OA
BRANCH  22  23
ATOM     23  C   UNL     1       3.119   6.383  18.790  0.00  0.00    +0.000 C 
ATOM     24  O   UNL     1       4.104   6.774  19.391  0.00  0.00    +0.000 OA
BRANCH  23  25
ATOM     25  C   UNL     1       2.860   4.972  18.431  0.00  0.00    +0.000 A 
ATOM     26  C   UNL     1       1.934   4.186  19.143  0.00  0.00    +0.000 A 
ATOM     27 CL   UNL     1       1.072   4.740  20.540  0.00  0.00    +0.000 Cl
ATOM     28  C   UNL     1       1.701   2.857  18.771  0.00  0.00    +0.000 A 
ATOM     29  C   UNL     1       2.401   2.281  17.717  0.00  0.00    +0.000 A 
ATOM     30  C   UNL     1       3.338   3.041  17.022  0.00  0.00    +0.000 A 
ATOM     31  C   UNL     1       3.566   4.381  17.368  0.00  0.00    +0.000 A 
ATOM     32 CL   UNL     1       4.722   5.226  16.395  0.00  0.00    +0.000 Cl
ENDBRANCH  23  25
ENDBRANCH  22  23
ENDBRANCH   8  22
TORSDOF 7
ENDMDL
MODEL 5
REMARK VINA RESULT:      -8.1      7.687     11.329
REMARK  Name = 
REMARK  10 active torsions:
REMARK  status: ('A' for Active; 'I' for Inactive)
REMARK    1  A    between atoms: C_1  and  C_2
REMARK    2  A    between atoms: C_2  and  C_3
REMARK    3  A    between atoms: C_4  and  C_5
REMARK    4  A    between atoms: C_5  and  C_6
REMARK    5  A    between atoms: C_6  and  C_7
REMARK    6  A    between atoms: C_7  and  C_8
REMARK    7  A    between atoms: C_9  and  C_10
REMARK    8  A    between atoms: C_17  and  O_18
REMARK    9  A    between atoms: O_18  and  C_19
REMARK   10  A    between atoms: C_19  and  C_21
REMARK                            x       y       z     vdW  Elec       q    Type
REMARK                         _______ _______ _______ _____ _____    ______ ____
ROOT
ATOM      1  C   UNL     1       0.309  10.480  18.622  0.00  0.00    +0.000 C 
ATOM      2  O   UNL     1      -0.791   9.927  17.892  0.00  0.00    +0.000 OA
ATOM      3  C   UNL     1      -1.770  10.845  17.747  0.00  0.00    +0.000 C 
ATOM      4  O   UNL     1      -2.738  10.705  17.019  0.00  0.00    +0.000 OA
ATOM      5  C   UNL     1      -1.512  12.055  18.584  0.00  0.00    +0.000 C 
ATOM      6  C   UNL     1      -0.201  11.757  19.308  0.00  0.00    +0.000 C 
ATOM      7  C   UNL     1       0.838  12.879  19.116  0.00  0.00    +0.000 C 
ATOM      8  C   UNL     1       0.376  14.222  19.680  0.00  0.00    +0.000 C 
ATOM      9  C   UNL     1      -0.138  14.069  21.078  0.00  0.00    +0.000 C 
ATOM     10  C   UNL     1      -0.512  12.899  21.615  0.00  0.00    +0.000 C 
ATOM     11  C   UNL     1      -0.514  11.647  20.807  0.00  0.00    +0.000 C 
ATOM     12  O   UNL     1      -0.894  10.617  21.354  0.00  0.00    +0.000 OA
ENDROOT
BRANCH   1  15
ATOM     13  C   UNL     1       1.815   8.455  19.092  0.00  0.00    +0.000 C 
ATOM     14  C   UNL     1       2.480   8.493  17.744  0.00  0.00    +0.000 C 
ATOM     15  C   UNL     1       0.881   9.363  19.448  0.00  0.00    +0.000 C 
BRANCH  13  16
ATOM     16  C   UNL     1       2.115   7.310  20.052  0.00  0.00    +0.000 C 
BRANCH  16  17
ATOM     17  C   UNL     1       2.347   5.927  19.427  0.00  0.00    +0.000 C 
BRANCH  17  21
ATOM     18  C   UNL     1       2.388   2.688  21.610  0.00  0.00    +0.000 C 
ATOM     19  C   UNL     1       1.937   3.722  20.615  0.00  0.00    +0.000 C 
ATOM     20  C   UNL     1       0.683   3.419  19.839  0.00  0.00    +0.000 C 
ATOM     21  C   UNL     1       2.639   4.863  20.453  0.00  0.00    +0.000 C 
ENDBRANCH  17  21
ENDBRANCH  16  17
ENDBRANCH  13  16
ENDBRANCH   1  15
BRANCH   8  22
ATOM     22  O   UNL     1       1.508  15.097  19.714  0.00  0.00    +0.000 OA
BRANCH  22  23
ATOM     23  C   UNL     1       1.229  16.389  20.008  0.00  0.00    +0.000 C 
ATOM     24  O   UNL     1       1.226  16.878  21.123  0.00  0.00    +0.000 OA
BRANCH  23  25
ATOM     25  C   UNL     1       0.872  17.119  18.771  0.00  0.00    +0.000 A 
ATOM     26  C   UNL     1      -0.440  17.572  18.534  0.00  0.00    +0.000 A 
ATOM     27 CL   UNL     1      -1.774  17.265  19.596  0.00  0.00    +0.000 Cl
ATOM     28  C   UNL     1      -0.745  18.272  17.360  0.00  0.00    +0.000 A 
ATOM     29  C   UNL     1       0.231  18.501  16.397  0.00  0.00    +0.000 A 
ATOM     30  C   UNL     1       1.525  18.034  16.609  0.00  0.00    +0.000 A 
ATOM     31  C   UNL     1       1.851  17.352  17.790  0.00  0.00    +0.000 A 
ATOM     32 CL   UNL     1       3.505  16.867  17.950  0.00  0.00    +0.000 Cl
ENDBRANCH  23  25
ENDBRANCH  22  23
ENDBRANCH   8  22
TORSDOF 7
ENDMDL
MODEL 6
REMARK VINA RESULT:      -8.1      7.574     11.249
REMARK  Name = 
REMARK  10 active torsions:
REMARK  status: ('A' for Active; 'I' for Inactive)
REMARK    1  A    between atoms: C_1  and  C_2
REMARK    2  A    between atoms: C_2  and  C_3
REMARK    3  A    between atoms: C_4  and  C_5
REMARK    4  A    between atoms: C_5  and  C_6
REMARK    5  A    between atoms: C_6  and  C_7
REMARK    6  A    between atoms: C_7  and  C_8
REMARK    7  A    between atoms: C_9  and  C_10
REMARK    8  A    between atoms: C_17  and  O_18
REMARK    9  A    between atoms: O_18  and  C_19
REMARK   10  A    between atoms: C_19  and  C_21
REMARK                            x       y       z     vdW  Elec       q    Type
REMARK                         _______ _______ _______ _____ _____    ______ ____
ROOT
ATOM      1  C   UNL     1       0.475  10.375  18.538  0.00  0.00    +0.000 C 
ATOM      2  O   UNL     1      -0.609   9.833  17.777  0.00  0.00    +0.000 OA
ATOM      3  C   UNL     1      -1.576  10.759  17.609  0.00  0.00    +0.000 C 
ATOM      4  O   UNL     1      -2.527  10.628  16.855  0.00  0.00    +0.000 OA
ATOM      5  C   UNL     1      -1.331  11.965  18.456  0.00  0.00    +0.000 C 
ATOM      6  C   UNL     1      -0.042  11.655  19.214  0.00  0.00    +0.000 C 
ATOM      7  C   UNL     1       1.009  12.768  19.053  0.00  0.00    +0.000 C 
ATOM      8  C   UNL     1       0.543  14.114  19.608  0.00  0.00    +0.000 C 
ATOM      9  C   UNL     1      -0.008  13.961  20.992  0.00  0.00    +0.000 C 
ATOM     10  C   UNL     1      -0.406  12.792  21.515  0.00  0.00    +0.000 C 
ATOM     11  C   UNL     1      -0.396  11.543  20.703  0.00  0.00    +0.000 C 
ATOM     12  O   UNL     1      -0.799  10.515  21.237  0.00  0.00    +0.000 OA
ENDROOT
BRANCH   1  15
ATOM     13  C   UNL     1       1.927   8.316  19.028  0.00  0.00    +0.000 C 
ATOM     14  C   UNL     1       2.593   8.323  17.681  0.00  0.00    +0.000 C 
ATOM     15  C   UNL     1       1.016   9.252  19.375  0.00  0.00    +0.000 C 
BRANCH  13  16
ATOM     16  C   UNL     1       2.195   7.172  20.000  0.00  0.00    +0.000 C 
BRANCH  16  17
ATOM     17  C   UNL     1       3.002   5.983  19.461  0.00  0.00    +0.000 C 
BRANCH  17  21
ATOM     18  C   UNL     1       0.732   2.806  19.377  0.00  0.00    +0.000 C 
ATOM     19  C   UNL     1       1.676   3.861  19.884  0.00  0.00    +0.000 C 
ATOM     20  C   UNL     1       2.075   3.777  21.333  0.00  0.00    +0.000 C 
ATOM     21  C   UNL     1       2.133   4.822  19.054  0.00  0.00    +0.000 C 
ENDBRANCH  17  21
ENDBRANCH  16  17
ENDBRANCH  13  16
ENDBRANCH   1  15
BRANCH   8  22
ATOM     22  O   UNL     1       1.681  14.980  19.674  0.00  0.00    +0.000 OA
BRANCH  22  23
ATOM     23  C   UNL     1       1.408  16.265  20.002  0.00  0.00    +0.000 C 
ATOM     24  O   UNL     1       1.458  16.737  21.123  0.00  0.00    +0.000 OA
BRANCH  23  25
ATOM     25  C   UNL     1       0.985  17.011  18.795  0.00  0.00    +0.000 A 
ATOM     26  C   UNL     1       1.880  17.280  17.742  0.00  0.00    +0.000 A 
ATOM     27 CL   UNL     1       3.559  16.854  17.770  0.00  0.00    +0.000 Cl
ATOM     28  C   UNL     1       1.447  17.976  16.607  0.00  0.00    +0.000 A 
ATOM     29  C   UNL     1       0.140  18.440  16.515  0.00  0.00    +0.000 A 
ATOM     30  C   UNL     1      -0.746  18.203  17.562  0.00  0.00    +0.000 A 
ATOM     31  C   UNL     1      -0.333  17.487  18.695  0.00  0.00    +0.000 A 
ATOM     32 CL   UNL     1      -1.545  17.219  19.902  0.00  0.00    +0.000 Cl
ENDBRANCH  23  25
ENDBRANCH  22  23
ENDBRANCH   8  22
TORSDOF 7
ENDMDL
MODEL 7
REMARK VINA RESULT:      -8.1      6.694     10.296
REMARK  Name = 
REMARK  10 active torsions:
REMARK  status: ('A' for Active; 'I' for Inactive)
REMARK    1  A    between atoms: C_1  and  C_2
REMARK    2  A    between atoms: C_2  and  C_3
REMARK    3  A    between atoms: C_4  and  C_5
REMARK    4  A    between atoms: C_5  and  C_6
REMARK    5  A    between atoms: C_6  and  C_7
REMARK    6  A    between atoms: C_7  and  C_8
REMARK    7  A    between atoms: C_9  and  C_10
REMARK    8  A    between atoms: C_17  and  O_18
REMARK    9  A    between atoms: O_18  and  C_19
REMARK   10  A    between atoms: C_19  and  C_21
REMARK                            x       y       z     vdW  Elec       q    Type
REMARK                         _______ _______ _______ _____ _____    ______ ____
ROOT
ATOM      1  C   UNL     1       0.994   9.711  19.086  0.00  0.00    +0.000 C 
ATOM      2  O   UNL     1       0.159   9.315  17.994  0.00  0.00    +0.000 OA
ATOM      3  C   UNL     1      -0.961  10.068  17.960  0.00  0.00    +0.000 C 
ATOM      4  O   UNL     1      -1.758  10.068  17.037  0.00  0.00    +0.000 OA
ATOM      5  C   UNL     1      -1.094  10.904  19.190  0.00  0.00    +0.000 C 
ATOM      6  C   UNL     1       0.128  10.553  20.036  0.00  0.00    +0.000 C 
ATOM      7  C   UNL     1       0.920  11.804  20.461  0.00  0.00    +0.000 C 
ATOM      8  C   UNL     1       0.104  12.760  21.331  0.00  0.00    +0.000 C 
ATOM      9  C   UNL     1      -0.567  12.025  22.451  0.00  0.00    +0.000 C 
ATOM     10  C   UNL     1      -0.758  10.699  22.468  0.00  0.00    +0.000 C 
ATOM     11  C   UNL     1      -0.373   9.850  21.305  0.00  0.00    +0.000 C 
ATOM     12  O   UNL     1      -0.602   8.648  21.378  0.00  0.00    +0.000 OA
ENDROOT
BRANCH   1  15
ATOM     13  C   UNL     1       2.557   7.679  18.951  0.00  0.00    +0.000 C 
ATOM     14  C   UNL     1       3.066   8.019  17.577  0.00  0.00    +0.000 C 
ATOM     15  C   UNL     1       1.663   8.463  19.590  0.00  0.00    +0.000 C 
BRANCH  13  16
ATOM     16  C   UNL     1       2.971   6.367  19.608  0.00  0.00    +0.000 C 
BRANCH  16  17
ATOM     17  C   UNL     1       1.855   5.540  20.261  0.00  0.00    +0.000 C 
BRANCH  17  21
ATOM     18  C   UNL     1       0.642   2.066  18.951  0.00  0.00    +0.000 C 
ATOM     19  C   UNL     1       1.159   3.129  19.880  0.00  0.00    +0.000 C 
ATOM     20  C   UNL     1       1.367   2.733  21.317  0.00  0.00    +0.000 C 
ATOM     21  C   UNL     1       1.424   4.368  19.417  0.00  0.00    +0.000 C 
ENDBRANCH  17  21
ENDBRANCH  16  17
ENDBRANCH  13  16
ENDBRANCH   1  15
BRANCH   8  22
ATOM     22  O   UNL     1       1.005  13.714  21.900  0.00  0.00    +0.000 OA
BRANCH  22  23
ATOM     23  C   UNL     1       0.716  15.010  21.635  0.00  0.00    +0.000 C 
ATOM     24  O   UNL     1      -0.221  15.637  22.098  0.00  0.00    +0.000 OA
BRANCH  23  25
ATOM     25  C   UNL     1       1.679  15.548  20.649  0.00  0.00    +0.000 A 
ATOM     26  C   UNL     1       2.963  15.980  21.031  0.00  0.00    +0.000 A 
ATOM     27 CL   UNL     1       3.523  16.011  22.670  0.00  0.00    +0.000 Cl
ATOM     28  C   UNL     1       3.858  16.471  20.073  0.00  0.00    +0.000 A 
ATOM     29  C   UNL     1       3.484  16.572  18.738  0.00  0.00    +0.000 A 
ATOM     30  C   UNL     1       2.207  16.172  18.353  0.00  0.00    +0.000 A 
ATOM     31  C   UNL     1       1.308  15.656  19.297  0.00  0.00    +0.000 A 
ATOM     32 CL   UNL     1      -0.229  15.151  18.680  0.00  0.00    +0.000 Cl
ENDBRANCH  23  25
ENDBRANCH  22  23
ENDBRANCH   8  22
TORSDOF 7
ENDMDL
MODEL 8
REMARK VINA RESULT:      -8.0      8.354     11.093
REMARK  Name = 
REMARK  10 active torsions:
REMARK  status: ('A' for Active; 'I' for Inactive)
REMARK    1  A    between atoms: C_1  and  C_2
REMARK    2  A    between atoms: C_2  and  C_3
REMARK    3  A    between atoms: C_4  and  C_5
REMARK    4  A    between atoms: C_5  and  C_6
REMARK    5  A    between atoms: C_6  and  C_7
REMARK    6  A    between atoms: C_7  and  C_8
REMARK    7  A    between atoms: C_9  and  C_10
REMARK    8  A    between atoms: C_17  and  O_18
REMARK    9  A    between atoms: O_18  and  C_19
REMARK   10  A    between atoms: C_19  and  C_21
REMARK                            x       y       z     vdW  Elec       q    Type
REMARK                         _______ _______ _______ _____ _____    ______ ____
ROOT
ATOM      1  C   UNL     1       0.069  11.671  20.262  0.00  0.00    +0.000 C 
ATOM      2  O   UNL     1       1.098  12.559  19.815  0.00  0.00    +0.000 OA
ATOM      3  C   UNL     1       0.611  13.423  18.900  0.00  0.00    +0.000 C 
ATOM      4  O   UNL     1       1.217  14.397  18.486  0.00  0.00    +0.000 OA
ATOM      5  C   UNL     1      -0.765  13.039  18.465  0.00  0.00    +0.000 C 
ATOM      6  C   UNL     1      -1.082  11.767  19.249  0.00  0.00    +0.000 C 
ATOM      7  C   UNL     1      -2.415  11.870  20.012  0.00  0.00    +0.000 C 
ATOM      8  C   UNL     1      -3.618  12.071  19.090  0.00  0.00    +0.000 C 
ATOM      9  C   UNL     1      -3.606  11.076  17.970  0.00  0.00    +0.000 C 
ATOM     10  C   UNL     1      -2.522  10.382  17.595  0.00  0.00    +0.000 C 
ATOM     11  C   UNL     1      -1.198  10.617  18.238  0.00  0.00    +0.000 C 
ATOM     12  O   UNL     1      -0.243   9.966  17.827  0.00  0.00    +0.000 OA
ENDROOT
BRANCH   1  15
ATOM     13  C   UNL     1       0.531   9.505  21.561  0.00  0.00    +0.000 C 
ATOM     14  C   UNL     1      -0.489   9.794  22.628  0.00  0.00    +0.000 C 
ATOM     15  C   UNL     1       0.729  10.346  20.523  0.00  0.00    +0.000 C 
BRANCH  13  16
ATOM     16  C   UNL     1       1.443   8.291  21.694  0.00  0.00    +0.000 C 
BRANCH  16  17
ATOM     17  C   UNL     1       1.767   7.526  20.404  0.00  0.00    +0.000 C 
BRANCH  17  21
ATOM     18  C   UNL     1       2.025   3.654  19.955  0.00  0.00    +0.000 C 
ATOM     19  C   UNL     1       2.004   5.122  19.626  0.00  0.00    +0.000 C 
ATOM     20  C   UNL     1       2.295   5.503  18.199  0.00  0.00    +0.000 C 
ATOM     21  C   UNL     1       1.726   6.031  20.584  0.00  0.00    +0.000 C 
ENDBRANCH  17  21
ENDBRANCH  16  17
ENDBRANCH  13  16
ENDBRANCH   1  15
BRANCH   8  22
ATOM     22  O   UNL     1      -4.804  11.859  19.862  0.00  0.00    +0.000 OA
BRANCH  22  23
ATOM     23  C   UNL     1      -5.621  12.935  19.969  0.00  0.00    +0.000 C 
ATOM     24  O   UNL     1      -5.882  13.718  19.074  0.00  0.00    +0.000 OA
BRANCH  23  25
ATOM     25  C   UNL     1      -6.115  13.053  21.358  0.00  0.00    +0.000 A 
ATOM     26  C   UNL     1      -7.112  12.197  21.863  0.00  0.00    +0.000 A 
ATOM     27 CL   UNL     1      -7.916  10.989  20.917  0.00  0.00    +0.000 Cl
ATOM     28  C   UNL     1      -7.549  12.324  23.187  0.00  0.00    +0.000 A 
ATOM     29  C   UNL     1      -7.033  13.316  24.013  0.00  0.00    +0.000 A 
ATOM     30  C   UNL     1      -6.065  14.186  23.516  0.00  0.00    +0.000 A 
ATOM     31  C   UNL     1      -5.600  14.055  22.199  0.00  0.00    +0.000 A 
ATOM     32 CL   UNL     1      -4.363  15.168  21.722  0.00  0.00    +0.000 Cl
ENDBRANCH  23  25
ENDBRANCH  22  23
ENDBRANCH   8  22
TORSDOF 7
ENDMDL
MODEL 9
REMARK VINA RESULT:      -8.0      6.937     10.847
REMARK  Name = 
REMARK  10 active torsions:
REMARK  status: ('A' for Active; 'I' for Inactive)
REMARK    1  A    between atoms: C_1  and  C_2
REMARK    2  A    between atoms: C_2  and  C_3
REMARK    3  A    between atoms: C_4  and  C_5
REMARK    4  A    between atoms: C_5  and  C_6
REMARK    5  A    between atoms: C_6  and  C_7
REMARK    6  A    between atoms: C_7  and  C_8
REMARK    7  A    between atoms: C_9  and  C_10
REMARK    8  A    between atoms: C_17  and  O_18
REMARK    9  A    between atoms: O_18  and  C_19
REMARK   10  A    between atoms: C_19  and  C_21
REMARK                            x       y       z     vdW  Elec       q    Type
REMARK                         _______ _______ _______ _____ _____    ______ ____
ROOT
ATOM      1  C   UNL     1       0.739  10.466  18.557  0.00  0.00    +0.000 C 
ATOM      2  O   UNL     1      -0.667  10.370  18.313  0.00  0.00    +0.000 OA
ATOM      3  C   UNL     1      -1.222  11.599  18.260  0.00  0.00    +0.000 C 
ATOM      4  O   UNL     1      -2.364  11.821  17.890  0.00  0.00    +0.000 OA
ATOM      5  C   UNL     1      -0.260  12.652  18.703  0.00  0.00    +0.000 C 
ATOM      6  C   UNL     1       1.013  11.890  19.066  0.00  0.00    +0.000 C 
ATOM      7  C   UNL     1       2.252  12.452  18.345  0.00  0.00    +0.000 C 
ATOM      8  C   UNL     1       2.548  13.906  18.712  0.00  0.00    +0.000 C 
ATOM      9  C   UNL     1       2.541  14.096  20.198  0.00  0.00    +0.000 C 
ATOM     10  C   UNL     1       1.976  13.239  21.060  0.00  0.00    +0.000 C 
ATOM     11  C   UNL     1       1.229  12.043  20.578  0.00  0.00    +0.000 C 
ATOM     12  O   UNL     1       0.714  11.316  21.422  0.00  0.00    +0.000 OA
ENDROOT
BRANCH   1  15
ATOM     13  C   UNL     1       1.952   8.271  19.105  0.00  0.00    +0.000 C 
ATOM     14  C   UNL     1       2.716   8.238  17.810  0.00  0.00    +0.000 C 
ATOM     15  C   UNL     1       1.109   9.283  19.406  0.00  0.00    +0.000 C 
BRANCH  13  16
ATOM     16  C   UNL     1       2.040   7.092  20.067  0.00  0.00    +0.000 C 
BRANCH  16  17
ATOM     17  C   UNL     1       2.508   5.754  19.478  0.00  0.00    +0.000 C 
BRANCH  17  21
ATOM     18  C   UNL     1       2.218   2.563  21.711  0.00  0.00    +0.000 C 
ATOM     19  C   UNL     1       1.879   3.617  20.694  0.00  0.00    +0.000 C 
ATOM     20  C   UNL     1       0.612   3.418  19.904  0.00  0.00    +0.000 C 
ATOM     21  C   UNL     1       2.686   4.684  20.523  0.00  0.00    +0.000 C 
ENDBRANCH  17  21
ENDBRANCH  16  17
ENDBRANCH  13  16
ENDBRANCH   1  15
BRANCH   8  22
ATOM     22  O   UNL     1       3.857  14.223  18.228  0.00  0.00    +0.000 OA
BRANCH  22  23
ATOM     23  C   UNL     1       4.016  15.494  17.788  0.00  0.00    +0.000 C 
ATOM     24  O   UNL     1       3.481  15.977  16.806  0.00  0.00    +0.000 OA
BRANCH  23  25
ATOM     25  C   UNL     1       4.985  16.206  18.651  0.00  0.00    +0.000 A 
ATOM     26  C   UNL     1       6.370  15.972  18.556  0.00  0.00    +0.000 A 
ATOM     27 CL   UNL     1       7.079  14.794  17.502  0.00  0.00    +0.000 Cl
ATOM     28  C   UNL     1       7.263  16.671  19.376  0.00  0.00    +0.000 A 
ATOM     29  C   UNL     1       6.798  17.580  20.320  0.00  0.00    +0.000 A 
ATOM     30  C   UNL     1       5.428  17.800  20.441  0.00  0.00    +0.000 A 
ATOM     31  C   UNL     1       4.523  17.124  19.610  0.00  0.00    +0.000 A 
ATOM     32 CL   UNL     1       2.853  17.523  19.831  0.00  0.00    +0.000 Cl
ENDBRANCH  23  25
ENDBRANCH  22  23
ENDBRANCH   8  22
TORSDOF 7
ENDMDL
