MODEL 1
REMARK VINA RESULT:      -7.7      0.000      0.000
REMARK  Name = 
REMARK  13 active torsions:
REMARK  status: ('A' for Active; 'I' for Inactive)
REMARK    1  A    between atoms: C_1  and  C_2
REMARK    2  A    between atoms: C_2  and  O_3
REMARK    3  A    between atoms: O_3  and  C_4
REMARK    4  A    between atoms: C_4  and  C_6
REMARK    5  A    between atoms: C_6  and  C_7
REMARK    6  A    between atoms: C_7  and  C_8
REMARK    7  A    between atoms: C_8  and  O_9
REMARK    8  A    between atoms: O_9  and  C_10
REMARK    9  A    between atoms: C_13  and  O_14
REMARK   10  A    between atoms: O_14  and  C_15
REMARK   11  A    between atoms: C_17  and  C_18
REMARK   12  A    between atoms: C_18  and  C_19
REMARK   13  A    between atoms: C_30  and  C_31
REMARK                            x       y       z     vdW  Elec       q    Type
REMARK                         _______ _______ _______ _____ _____    ______ ____
ROOT
ATOM      1  C   UNL     1       3.079   6.478  17.795  0.00  0.00    +0.000 C 
ENDROOT
BRANCH   1   2
ATOM      2  C   UNL     1       2.280   7.670  18.304  0.00  0.00    +0.000 A 
ATOM      3  C   UNL     1       2.213   8.753  17.434  0.00  0.00    +0.000 A 
ATOM      4  N   UNL     1       1.852  10.002  17.781  0.00  0.00    +0.000 NA
ATOM      5  C   UNL     1       1.501  10.251  19.034  0.00  0.00    +0.000 A 
ATOM      6  N   UNL     1       1.382  11.537  19.323  0.00  0.00    +0.000 NA
ATOM      7  C   UNL     1       1.100  11.863  20.570  0.00  0.00    +0.000 A 
ATOM      8  N   UNL     1       1.195  13.186  20.941  0.00  0.00    +0.000 N 
ATOM      9  N   UNL     1       0.700  10.998  21.490  0.00  0.00    +0.000 NA
ATOM     10  C   UNL     1       0.759   9.697  21.169  0.00  0.00    +0.000 A 
ATOM     11  N   UNL     1       0.030   8.911  22.050  0.00  0.00    +0.000 N 
ATOM     12  C   UNL     1       1.330   9.224  19.969  0.00  0.00    +0.000 A 
ATOM     13  C   UNL     1       1.800   7.895  19.607  0.00  0.00    +0.000 A 
ATOM     14  C   UNL     1       1.937   6.797  20.625  0.00  0.00    +0.000 C 
ATOM     15  H   UNL     1       1.073  13.796  20.147  0.00  0.00    +0.000 HD
ATOM     16  H   UNL     1       0.663  13.369  21.778  0.00  0.00    +0.000 HD
ATOM     17  H   UNL     1      -0.206   9.477  22.862  0.00  0.00    +0.000 HD
ATOM     18  H   UNL     1       0.369   7.999  22.292  0.00  0.00    +0.000 HD
ENDBRANCH   1   2
BRANCH   1  24
ATOM     19  C   UNL     1       5.104   5.219  18.883  0.00  0.00    +0.000 A 
ATOM     20  C   UNL     1       6.498   5.247  19.118  0.00  0.00    +0.000 A 
ATOM     21  C   UNL     1       7.352   6.190  18.507  0.00  0.00    +0.000 A 
ATOM     22  C   UNL     1       6.823   7.116  17.635  0.00  0.00    +0.000 A 
ATOM     23  C   UNL     1       5.441   7.145  17.449  0.00  0.00    +0.000 A 
ATOM     24  C   UNL     1       4.548   6.235  18.098  0.00  0.00    +0.000 A 
BRANCH  22  25
ATOM     25  O   UNL     1       7.737   7.947  17.049  0.00  0.00    +0.000 OA
ATOM     26  C   UNL     1       8.229   9.035  17.827  0.00  0.00    +0.000 C 
ENDBRANCH  22  25
BRANCH  19  27
ATOM     27  O   UNL     1       4.482   4.212  19.570  0.00  0.00    +0.000 OA
BRANCH  27  28
ATOM     28  C   UNL     1       4.438   2.861  19.092  0.00  0.00    +0.000 C 
BRANCH  28  29
ATOM     29  C   UNL     1       3.832   2.770  17.691  0.00  0.00    +0.000 C 
BRANCH  29  30
ATOM     30  C   UNL     1       2.354   3.194  17.566  0.00  0.00    +0.000 C 
BRANCH  30  31
ATOM     31  C   UNL     1       1.350   2.731  18.619  0.00  0.00    +0.000 C 
ATOM     32  O   UNL     1       0.692   1.704  18.568  0.00  0.00    +0.000 OA
BRANCH  31  33
ATOM     33  O   UNL     1       1.248   3.695  19.593  0.00  0.00    +0.000 OA
BRANCH  33  35
ATOM     34  C   UNL     1       2.120   2.657  21.662  0.00  0.00    +0.000 C 
ATOM     35  C   UNL     1       0.937   3.290  20.944  0.00  0.00    +0.000 C 
ENDBRANCH  33  35
ENDBRANCH  31  33
ENDBRANCH  30  31
ENDBRANCH  29  30
ENDBRANCH  28  29
ENDBRANCH  27  28
ENDBRANCH  19  27
ENDBRANCH   1  24
TORSDOF 10
ENDMDL
MODEL 2
REMARK VINA RESULT:      -7.5      2.085      5.084
REMARK  Name = 
REMARK  13 active torsions:
REMARK  status: ('A' for Active; 'I' for Inactive)
REMARK    1  A    between atoms: C_1  and  C_2
REMARK    2  A    between atoms: C_2  and  O_3
REMARK    3  A    between atoms: O_3  and  C_4
REMARK    4  A    between atoms: C_4  and  C_6
REMARK    5  A    between atoms: C_6  and  C_7
REMARK    6  A    between atoms: C_7  and  C_8
REMARK    7  A    between atoms: C_8  and  O_9
REMARK    8  A    between atoms: O_9  and  C_10
REMARK    9  A    between atoms: C_13  and  O_14
REMARK   10  A    between atoms: O_14  and  C_15
REMARK   11  A    between atoms: C_17  and  C_18
REMARK   12  A    between atoms: C_18  and  C_19
REMARK   13  A    between atoms: C_30  and  C_31
REMARK                            x       y       z     vdW  Elec       q    Type
REMARK                         _______ _______ _______ _____ _____    ______ ____
ROOT
ATOM      1  C   UNL     1       2.179   7.873  20.318  0.00  0.00    +0.000 C 
ENDROOT
BRANCH   1   2
ATOM      2  C   UNL     1       1.113   8.951  20.185  0.00  0.00    +0.000 A 
ATOM      3  C   UNL     1       0.905   9.423  18.893  0.00  0.00    +0.000 A 
ATOM      4  N   UNL     1       0.268  10.566  18.580  0.00  0.00    +0.000 NA
ATOM      5  C   UNL     1      -0.235  11.314  19.550  0.00  0.00    +0.000 A 
ATOM      6  N   UNL     1      -0.638  12.514  19.163  0.00  0.00    +0.000 NA
ATOM      7  C   UNL     1      -1.090  13.339  20.089  0.00  0.00    +0.000 A 
ATOM      8  N   UNL     1      -1.299  14.657  19.748  0.00  0.00    +0.000 N 
ATOM      9  N   UNL     1      -1.386  12.973  21.327  0.00  0.00    +0.000 NA
ATOM     10  C   UNL     1      -1.036  11.732  21.695  0.00  0.00    +0.000 A 
ATOM     11  N   UNL     1      -1.665  11.342  22.869  0.00  0.00    +0.000 N 
ATOM     12  C   UNL     1      -0.276  10.870  20.877  0.00  0.00    +0.000 A 
ATOM     13  C   UNL     1       0.484   9.676  21.213  0.00  0.00    +0.000 A 
ATOM     14  C   UNL     1       0.750   9.280  22.640  0.00  0.00    +0.000 C 
ATOM     15  H   UNL     1      -1.471  14.754  18.759  0.00  0.00    +0.000 HD
ATOM     16  H   UNL     1      -1.929  15.105  20.396  0.00  0.00    +0.000 HD
ATOM     17  H   UNL     1      -2.082  12.165  23.296  0.00  0.00    +0.000 HD
ATOM     18  H   UNL     1      -1.171  10.766  23.525  0.00  0.00    +0.000 HD
ENDBRANCH   1   2
BRANCH   1  24
ATOM     19  C   UNL     1       2.587   6.203  18.339  0.00  0.00    +0.000 A 
ATOM     20  C   UNL     1       2.340   4.899  17.851  0.00  0.00    +0.000 A 
ATOM     21  C   UNL     1       1.753   3.890  18.644  0.00  0.00    +0.000 A 
ATOM     22  C   UNL     1       1.415   4.168  19.950  0.00  0.00    +0.000 A 
ATOM     23  C   UNL     1       1.587   5.469  20.423  0.00  0.00    +0.000 A 
ATOM     24  C   UNL     1       2.130   6.523  19.622  0.00  0.00    +0.000 A 
BRANCH  22  25
ATOM     25  O   UNL     1       0.909   3.110  20.654  0.00  0.00    +0.000 OA
ATOM     26  C   UNL     1       1.735   2.539  21.665  0.00  0.00    +0.000 C 
ENDBRANCH  22  25
BRANCH  19  27
ATOM     27  O   UNL     1       3.175   7.006  17.400  0.00  0.00    +0.000 OA
BRANCH  27  28
ATOM     28  C   UNL     1       4.450   6.709  16.816  0.00  0.00    +0.000 C 
BRANCH  28  29
ATOM     29  C   UNL     1       5.586   6.828  17.832  0.00  0.00    +0.000 C 
BRANCH  29  30
ATOM     30  C   UNL     1       6.988   6.428  17.328  0.00  0.00    +0.000 C 
BRANCH  30  31
ATOM     31  C   UNL     1       7.446   4.978  17.460  0.00  0.00    +0.000 C 
ATOM     32  O   UNL     1       7.491   4.341  18.500  0.00  0.00    +0.000 OA
BRANCH  31  33
ATOM     33  O   UNL     1       7.874   4.531  16.233  0.00  0.00    +0.000 OA
BRANCH  33  35
ATOM     34  C   UNL     1       5.957   3.928  14.790  0.00  0.00    +0.000 C 
ATOM     35  C   UNL     1       7.110   4.883  15.059  0.00  0.00    +0.000 C 
ENDBRANCH  33  35
ENDBRANCH  31  33
ENDBRANCH  30  31
ENDBRANCH  29  30
ENDBRANCH  28  29
ENDBRANCH  27  28
ENDBRANCH  19  27
ENDBRANCH   1  24
TORSDOF 10
ENDMDL
MODEL 3
REMARK VINA RESULT:      -7.5      2.712      5.377
REMARK  Name = 
REMARK  13 active torsions:
REMARK  status: ('A' for Active; 'I' for Inactive)
REMARK    1  A    between atoms: C_1  and  C_2
REMARK    2  A    between atoms: C_2  and  O_3
REMARK    3  A    between atoms: O_3  and  C_4
REMARK    4  A    between atoms: C_4  and  C_6
REMARK    5  A    between atoms: C_6  and  C_7
REMARK    6  A    between atoms: C_7  and  C_8
REMARK    7  A    between atoms: C_8  and  O_9
REMARK    8  A    between atoms: O_9  and  C_10
REMARK    9  A    between atoms: C_13  and  O_14
REMARK   10  A    between atoms: O_14  and  C_15
REMARK   11  A    between atoms: C_17  and  C_18
REMARK   12  A    between atoms: C_18  and  C_19
REMARK   13  A    between atoms: C_30  and  C_31
REMARK                            x       y       z     vdW  Elec       q    Type
REMARK                         _______ _______ _______ _____ _____    ______ ____
ROOT
ATOM      1  C   UNL     1       2.136   8.108  20.359  0.00  0.00    +0.000 C 
ENDROOT
BRANCH   1   2
ATOM      2  C   UNL     1       0.988   9.104  20.269  0.00  0.00    +0.000 A 
ATOM      3  C   UNL     1       0.691   9.551  18.985  0.00  0.00    +0.000 A 
ATOM      4  N   UNL     1      -0.042  10.641  18.696  0.00  0.00    +0.000 NA
ATOM      5  C   UNL     1      -0.557  11.357  19.685  0.00  0.00    +0.000 A 
ATOM      6  N   UNL     1      -1.063  12.522  19.311  0.00  0.00    +0.000 NA
ATOM      7  C   UNL     1      -1.535  13.317  20.252  0.00  0.00    +0.000 A 
ATOM      8  N   UNL     1      -1.856  14.613  19.917  0.00  0.00    +0.000 N 
ATOM      9  N   UNL     1      -1.750  12.939  21.504  0.00  0.00    +0.000 NA
ATOM     10  C   UNL     1      -1.294  11.729  21.861  0.00  0.00    +0.000 A 
ATOM     11  N   UNL     1      -1.841  11.302  23.062  0.00  0.00    +0.000 N 
ATOM     12  C   UNL     1      -0.508  10.920  21.013  0.00  0.00    +0.000 A 
ATOM     13  C   UNL     1       0.351   9.787  21.321  0.00  0.00    +0.000 A 
ATOM     14  C   UNL     1       0.707   9.422  22.736  0.00  0.00    +0.000 C 
ATOM     15  H   UNL     1      -2.077  14.691  18.935  0.00  0.00    +0.000 HD
ATOM     16  H   UNL     1      -2.489  15.018  20.590  0.00  0.00    +0.000 HD
ATOM     17  H   UNL     1      -2.299  12.095  23.504  0.00  0.00    +0.000 HD
ATOM     18  H   UNL     1      -1.279  10.768  23.698  0.00  0.00    +0.000 HD
ENDBRANCH   1   2
BRANCH   1  24
ATOM     19  C   UNL     1       2.716   6.373  18.482  0.00  0.00    +0.000 A 
ATOM     20  C   UNL     1       2.504   5.056  18.013  0.00  0.00    +0.000 A 
ATOM     21  C   UNL     1       1.832   4.077  18.776  0.00  0.00    +0.000 A 
ATOM     22  C   UNL     1       1.370   4.399  20.034  0.00  0.00    +0.000 A 
ATOM     23  C   UNL     1       1.510   5.714  20.480  0.00  0.00    +0.000 A 
ATOM     24  C   UNL     1       2.140   6.738  19.704  0.00  0.00    +0.000 A 
BRANCH  22  25
ATOM     25  O   UNL     1       0.787   3.369  20.717  0.00  0.00    +0.000 OA
ATOM     26  C   UNL     1       1.597   2.657  21.648  0.00  0.00    +0.000 C 
ENDBRANCH  22  25
BRANCH  19  27
ATOM     27  O   UNL     1       3.402   7.141  17.582  0.00  0.00    +0.000 OA
BRANCH  27  28
ATOM     28  C   UNL     1       4.801   6.969  17.323  0.00  0.00    +0.000 C 
BRANCH  28  29
ATOM     29  C   UNL     1       5.056   6.342  15.952  0.00  0.00    +0.000 C 
BRANCH  29  30
ATOM     30  C   UNL     1       5.845   5.016  15.951  0.00  0.00    +0.000 C 
BRANCH  30  31
ATOM     31  C   UNL     1       6.818   4.723  14.813  0.00  0.00    +0.000 C 
ATOM     32  O   UNL     1       7.818   5.372  14.550  0.00  0.00    +0.000 OA
BRANCH  31  33
ATOM     33  O   UNL     1       6.346   3.658  14.084  0.00  0.00    +0.000 OA
BRANCH  33  35
ATOM     34  C   UNL     1       5.108   3.345  11.966  0.00  0.00    +0.000 C 
ATOM     35  C   UNL     1       6.419   3.713  12.642  0.00  0.00    +0.000 C 
ENDBRANCH  33  35
ENDBRANCH  31  33
ENDBRANCH  30  31
ENDBRANCH  29  30
ENDBRANCH  28  29
ENDBRANCH  27  28
ENDBRANCH  19  27
ENDBRANCH   1  24
TORSDOF 10
ENDMDL
MODEL 4
REMARK VINA RESULT:      -7.4      1.480      2.292
REMARK  Name = 
REMARK  13 active torsions:
REMARK  status: ('A' for Active; 'I' for Inactive)
REMARK    1  A    between atoms: C_1  and  C_2
REMARK    2  A    between atoms: C_2  and  O_3
REMARK    3  A    between atoms: O_3  and  C_4
REMARK    4  A    between atoms: C_4  and  C_6
REMARK    5  A    between atoms: C_6  and  C_7
REMARK    6  A    between atoms: C_7  and  C_8
REMARK    7  A    between atoms: C_8  and  O_9
REMARK    8  A    between atoms: O_9  and  C_10
REMARK    9  A    between atoms: C_13  and  O_14
REMARK   10  A    between atoms: O_14  and  C_15
REMARK   11  A    between atoms: C_17  and  C_18
REMARK   12  A    between atoms: C_18  and  C_19
REMARK   13  A    between atoms: C_30  and  C_31
REMARK                            x       y       z     vdW  Elec       q    Type
REMARK                         _______ _______ _______ _____ _____    ______ ____
ROOT
ATOM      1  C   UNL     1       2.777   6.552  19.381  0.00  0.00    +0.000 C 
ENDROOT
BRANCH   1   2
ATOM      2  C   UNL     1       2.088   7.886  19.127  0.00  0.00    +0.000 A 
ATOM      3  C   UNL     1       2.392   8.488  17.910  0.00  0.00    +0.000 A 
ATOM      4  N   UNL     1       2.170   9.780  17.608  0.00  0.00    +0.000 NA
ATOM      5  C   UNL     1       1.597  10.565  18.508  0.00  0.00    +0.000 A 
ATOM      6  N   UNL     1       1.627  11.854  18.207  0.00  0.00    +0.000 NA
ATOM      7  C   UNL     1       1.132  12.702  19.088  0.00  0.00    +0.000 A 
ATOM      8  N   UNL     1       1.356  14.049  18.901  0.00  0.00    +0.000 N 
ATOM      9  N   UNL     1       0.404  12.344  20.135  0.00  0.00    +0.000 NA
ATOM     10  C   UNL     1       0.321  11.031  20.398  0.00  0.00    +0.000 A 
ATOM     11  N   UNL     1      -0.701  10.745  21.291  0.00  0.00    +0.000 N 
ATOM     12  C   UNL     1       1.059  10.056  19.695  0.00  0.00    +0.000 A 
ATOM     13  C   UNL     1       1.376   8.679  20.044  0.00  0.00    +0.000 A 
ATOM     14  C   UNL     1       1.104   8.126  21.416  0.00  0.00    +0.000 C 
ATOM     15  H   UNL     1       1.513  14.259  17.927  0.00  0.00    +0.000 HD
ATOM     16  H   UNL     1       0.689  14.604  19.415  0.00  0.00    +0.000 HD
ATOM     17  H   UNL     1      -1.016  11.617  21.707  0.00  0.00    +0.000 HD
ATOM     18  H   UNL     1      -0.577  10.011  21.963  0.00  0.00    +0.000 HD
ENDBRANCH   1   2
BRANCH   1  24
ATOM     19  C   UNL     1       3.102   4.696  17.558  0.00  0.00    +0.000 A 
ATOM     20  C   UNL     1       4.033   4.047  16.716  0.00  0.00    +0.000 A 
ATOM     21  C   UNL     1       5.357   4.507  16.550  0.00  0.00    +0.000 A 
ATOM     22  C   UNL     1       5.767   5.640  17.218  0.00  0.00    +0.000 A 
ATOM     23  C   UNL     1       4.881   6.250  18.107  0.00  0.00    +0.000 A 
ATOM     24  C   UNL     1       3.552   5.771  18.333  0.00  0.00    +0.000 A 
BRANCH  22  25
ATOM     25  O   UNL     1       7.046   6.040  16.947  0.00  0.00    +0.000 OA
ATOM     26  C   UNL     1       7.547   7.167  17.662  0.00  0.00    +0.000 C 
ENDBRANCH  22  25
BRANCH  19  27
ATOM     27  O   UNL     1       1.879   4.082  17.551  0.00  0.00    +0.000 OA
BRANCH  27  28
ATOM     28  C   UNL     1       1.717   2.676  17.772  0.00  0.00    +0.000 C 
BRANCH  28  29
ATOM     29  C   UNL     1       0.748   2.385  18.919  0.00  0.00    +0.000 C 
BRANCH  29  30
ATOM     30  C   UNL     1       0.810   3.354  20.117  0.00  0.00    +0.000 C 
BRANCH  30  31
ATOM     31  C   UNL     1       1.646   2.983  21.340  0.00  0.00    +0.000 C 
ATOM     32  O   UNL     1       1.207   2.556  22.395  0.00  0.00    +0.000 OA
BRANCH  31  33
ATOM     33  O   UNL     1       2.963   3.282  21.087  0.00  0.00    +0.000 OA
BRANCH  33  35
ATOM     34  C   UNL     1       4.616   2.095  19.681  0.00  0.00    +0.000 C 
ATOM     35  C   UNL     1       3.923   2.204  21.031  0.00  0.00    +0.000 C 
ENDBRANCH  33  35
ENDBRANCH  31  33
ENDBRANCH  30  31
ENDBRANCH  29  30
ENDBRANCH  28  29
ENDBRANCH  27  28
ENDBRANCH  19  27
ENDBRANCH   1  24
TORSDOF 10
ENDMDL
MODEL 5
REMARK VINA RESULT:      -7.4      1.995      4.913
REMARK  Name = 
REMARK  13 active torsions:
REMARK  status: ('A' for Active; 'I' for Inactive)
REMARK    1  A    between atoms: C_1  and  C_2
REMARK    2  A    between atoms: C_2  and  O_3
REMARK    3  A    between atoms: O_3  and  C_4
REMARK    4  A    between atoms: C_4  and  C_6
REMARK    5  A    between atoms: C_6  and  C_7
REMARK    6  A    between atoms: C_7  and  C_8
REMARK    7  A    between atoms: C_8  and  O_9
REMARK    8  A    between atoms: O_9  and  C_10
REMARK    9  A    between atoms: C_13  and  O_14
REMARK   10  A    between atoms: O_14  and  C_15
REMARK   11  A    between atoms: C_17  and  C_18
REMARK   12  A    between atoms: C_18  and  C_19
REMARK   13  A    between atoms: C_30  and  C_31
REMARK                            x       y       z     vdW  Elec       q    Type
REMARK                         _______ _______ _______ _____ _____    ______ ____
ROOT
ATOM      1  C   UNL     1       2.057   7.752  20.489  0.00  0.00    +0.000 C 
ENDROOT
BRANCH   1   2
ATOM      2  C   UNL     1       1.045   8.869  20.276  0.00  0.00    +0.000 A 
ATOM      3  C   UNL     1       0.914   9.308  18.963  0.00  0.00    +0.000 A 
ATOM      4  N   UNL     1       0.340  10.466  18.588  0.00  0.00    +0.000 NA
ATOM      5  C   UNL     1      -0.171  11.264  19.513  0.00  0.00    +0.000 A 
ATOM      6  N   UNL     1      -0.505  12.468  19.072  0.00  0.00    +0.000 NA
ATOM      7  C   UNL     1      -0.961  13.339  19.952  0.00  0.00    +0.000 A 
ATOM      8  N   UNL     1      -1.098  14.653  19.563  0.00  0.00    +0.000 N 
ATOM      9  N   UNL     1      -1.325  13.026  21.187  0.00  0.00    +0.000 NA
ATOM     10  C   UNL     1      -1.045  11.783  21.606  0.00  0.00    +0.000 A 
ATOM     11  N   UNL     1      -1.740  11.457  22.762  0.00  0.00    +0.000 N 
ATOM     12  C   UNL     1      -0.289  10.865  20.849  0.00  0.00    +0.000 A 
ATOM     13  C   UNL     1       0.404   9.651  21.254  0.00  0.00    +0.000 A 
ATOM     14  C   UNL     1       0.591   9.290  22.702  0.00  0.00    +0.000 C 
ATOM     15  H   UNL     1      -1.223  14.726  18.565  0.00  0.00    +0.000 HD
ATOM     16  H   UNL     1      -1.736  15.148  20.169  0.00  0.00    +0.000 HD
ATOM     17  H   UNL     1      -2.139  12.310  23.146  0.00  0.00    +0.000 HD
ATOM     18  H   UNL     1      -1.300  10.882  23.456  0.00  0.00    +0.000 HD
ENDBRANCH   1   2
BRANCH   1  24
ATOM     19  C   UNL     1       2.521   6.212  18.418  0.00  0.00    +0.000 A 
ATOM     20  C   UNL     1       2.332   4.926  17.863  0.00  0.00    +0.000 A 
ATOM     21  C   UNL     1       1.806   3.847  18.606  0.00  0.00    +0.000 A 
ATOM     22  C   UNL     1       1.471   4.038  19.929  0.00  0.00    +0.000 A 
ATOM     23  C   UNL     1       1.585   5.319  20.469  0.00  0.00    +0.000 A 
ATOM     24  C   UNL     1       2.065   6.440  19.721  0.00  0.00    +0.000 A 
BRANCH  22  25
ATOM     25  O   UNL     1       1.027   2.920  20.580  0.00  0.00    +0.000 OA
ATOM     26  C   UNL     1       1.612   2.621  21.844  0.00  0.00    +0.000 C 
ENDBRANCH  22  25
BRANCH  19  27
ATOM     27  O   UNL     1       3.056   7.093  17.518  0.00  0.00    +0.000 OA
BRANCH  27  28
ATOM     28  C   UNL     1       4.469   7.235  17.321  0.00  0.00    +0.000 C 
BRANCH  28  29
ATOM     29  C   UNL     1       4.904   6.748  15.938  0.00  0.00    +0.000 C 
BRANCH  29  30
ATOM     30  C   UNL     1       5.407   5.292  15.862  0.00  0.00    +0.000 C 
BRANCH  30  31
ATOM     31  C   UNL     1       6.908   5.015  15.891  0.00  0.00    +0.000 C 
ATOM     32  O   UNL     1       7.686   5.225  14.974  0.00  0.00    +0.000 OA
BRANCH  31  33
ATOM     33  O   UNL     1       7.229   4.418  17.087  0.00  0.00    +0.000 OA
BRANCH  33  35
ATOM     34  C   UNL     1       6.495   5.247  19.299  0.00  0.00    +0.000 C 
ATOM     35  C   UNL     1       7.562   5.256  18.216  0.00  0.00    +0.000 C 
ENDBRANCH  33  35
ENDBRANCH  31  33
ENDBRANCH  30  31
ENDBRANCH  29  30
ENDBRANCH  28  29
ENDBRANCH  27  28
ENDBRANCH  19  27
ENDBRANCH   1  24
TORSDOF 10
ENDMDL
MODEL 6
REMARK VINA RESULT:      -7.4      1.446      2.609
REMARK  Name = 
REMARK  13 active torsions:
REMARK  status: ('A' for Active; 'I' for Inactive)
REMARK    1  A    between atoms: C_1  and  C_2
REMARK    2  A    between atoms: C_2  and  O_3
REMARK    3  A    between atoms: O_3  and  C_4
REMARK    4  A    between atoms: C_4  and  C_6
REMARK    5  A    between atoms: C_6  and  C_7
REMARK    6  A    between atoms: C_7  and  C_8
REMARK    7  A    between atoms: C_8  and  O_9
REMARK    8  A    between atoms: O_9  and  C_10
REMARK    9  A    between atoms: C_13  and  O_14
REMARK   10  A    between atoms: O_14  and  C_15
REMARK   11  A    between atoms: C_17  and  C_18
REMARK   12  A    between atoms: C_18  and  C_19
REMARK   13  A    between atoms: C_30  and  C_31
REMARK                            x       y       z     vdW  Elec       q    Type
REMARK                         _______ _______ _______ _____ _____    ______ ____
ROOT
ATOM      1  C   UNL     1       2.762   6.928  17.437  0.00  0.00    +0.000 C 
ENDROOT
BRANCH   1   2
ATOM      2  C   UNL     1       2.410   7.670  18.719  0.00  0.00    +0.000 A 
ATOM      3  C   UNL     1       2.356   6.881  19.864  0.00  0.00    +0.000 A 
ATOM      4  N   UNL     1       1.768   7.235  21.020  0.00  0.00    +0.000 NA
ATOM      5  C   UNL     1       1.206   8.431  21.122  0.00  0.00    +0.000 A 
ATOM      6  N   UNL     1       0.466   8.597  22.207  0.00  0.00    +0.000 NA
ATOM      7  C   UNL     1      -0.178   9.741  22.342  0.00  0.00    +0.000 A 
ATOM      8  N   UNL     1      -1.123   9.848  23.337  0.00  0.00    +0.000 N 
ATOM      9  N   UNL     1       0.048  10.812  21.595  0.00  0.00    +0.000 NA
ATOM     10  C   UNL     1       0.853  10.655  20.534  0.00  0.00    +0.000 A 
ATOM     11  N   UNL     1       1.278  11.872  20.021  0.00  0.00    +0.000 N 
ATOM     12  C   UNL     1       1.354   9.402  20.125  0.00  0.00    +0.000 A 
ATOM     13  C   UNL     1       1.921   8.982  18.852  0.00  0.00    +0.000 A 
ATOM     14  C   UNL     1       1.855   9.854  17.628  0.00  0.00    +0.000 C 
ATOM     15  H   UNL     1      -0.935   9.203  24.090  0.00  0.00    +0.000 HD
ATOM     16  H   UNL     1      -1.308  10.814  23.562  0.00  0.00    +0.000 HD
ATOM     17  H   UNL     1       0.712  12.608  20.435  0.00  0.00    +0.000 HD
ATOM     18  H   UNL     1       1.396  11.975  19.031  0.00  0.00    +0.000 HD
ENDBRANCH   1   2
BRANCH   1  24
ATOM     19  C   UNL     1       4.287   4.882  16.838  0.00  0.00    +0.000 A 
ATOM     20  C   UNL     1       5.617   4.409  16.759  0.00  0.00    +0.000 A 
ATOM     21  C   UNL     1       6.735   5.257  16.912  0.00  0.00    +0.000 A 
ATOM     22  C   UNL     1       6.538   6.603  17.134  0.00  0.00    +0.000 A 
ATOM     23  C   UNL     1       5.232   7.070  17.284  0.00  0.00    +0.000 A 
ATOM     24  C   UNL     1       4.084   6.222  17.187  0.00  0.00    +0.000 A 
BRANCH  22  25
ATOM     25  O   UNL     1       7.680   7.350  17.208  0.00  0.00    +0.000 OA
ATOM     26  C   UNL     1       7.564   8.679  17.711  0.00  0.00    +0.000 C 
ENDBRANCH  22  25
BRANCH  19  27
ATOM     27  O   UNL     1       3.370   3.886  16.644  0.00  0.00    +0.000 OA
BRANCH  27  28
ATOM     28  C   UNL     1       2.273   3.659  17.537  0.00  0.00    +0.000 C 
BRANCH  28  29
ATOM     29  C   UNL     1       2.205   2.203  18.000  0.00  0.00    +0.000 C 
BRANCH  29  30
ATOM     30  C   UNL     1       3.491   1.636  18.636  0.00  0.00    +0.000 C 
BRANCH  30  31
ATOM     31  C   UNL     1       4.091   2.327  19.858  0.00  0.00    +0.000 C 
ATOM     32  O   UNL     1       5.221   2.781  19.932  0.00  0.00    +0.000 OA
BRANCH  31  33
ATOM     33  O   UNL     1       3.180   2.287  20.886  0.00  0.00    +0.000 OA
BRANCH  33  35
ATOM     34  C   UNL     1       1.049   3.538  21.001  0.00  0.00    +0.000 C 
ATOM     35  C   UNL     1       2.541   3.515  21.299  0.00  0.00    +0.000 C 
ENDBRANCH  33  35
ENDBRANCH  31  33
ENDBRANCH  30  31
ENDBRANCH  29  30
ENDBRANCH  28  29
ENDBRANCH  27  28
ENDBRANCH  19  27
ENDBRANCH   1  24
TORSDOF 10
ENDMDL
MODEL 7
REMARK VINA RESULT:      -7.3      3.270      6.271
REMARK  Name = 
REMARK  13 active torsions:
REMARK  status: ('A' for Active; 'I' for Inactive)
REMARK    1  A    between atoms: C_1  and  C_2
REMARK    2  A    between atoms: C_2  and  O_3
REMARK    3  A    between atoms: O_3  and  C_4
REMARK    4  A    between atoms: C_4  and  C_6
REMARK    5  A    between atoms: C_6  and  C_7
REMARK    6  A    between atoms: C_7  and  C_8
REMARK    7  A    between atoms: C_8  and  O_9
REMARK    8  A    between atoms: O_9  and  C_10
REMARK    9  A    between atoms: C_13  and  O_14
REMARK   10  A    between atoms: O_14  and  C_15
REMARK   11  A    between atoms: C_17  and  C_18
REMARK   12  A    between atoms: C_18  and  C_19
REMARK   13  A    between atoms: C_30  and  C_31
REMARK                            x       y       z     vdW  Elec       q    Type
REMARK                         _______ _______ _______ _____ _____    ______ ____
ROOT
ATOM      1  C   UNL     1       5.044   3.478  16.534  0.00  0.00    +0.000 C 
ENDROOT
BRANCH   1   2
ATOM      2  C   UNL     1       4.013   4.345  17.245  0.00  0.00    +0.000 A 
ATOM      3  C   UNL     1       4.073   5.702  16.945  0.00  0.00    +0.000 A 
ATOM      4  N   UNL     1       3.500   6.680  17.669  0.00  0.00    +0.000 NA
ATOM      5  C   UNL     1       2.795   6.361  18.745  0.00  0.00    +0.000 A 
ATOM      6  N   UNL     1       2.465   7.392  19.508  0.00  0.00    +0.000 NA
ATOM      7  C   UNL     1       1.819   7.143  20.631  0.00  0.00    +0.000 A 
ATOM      8  N   UNL     1       1.667   8.165  21.541  0.00  0.00    +0.000 N 
ATOM      9  N   UNL     1       1.277   5.972  20.931  0.00  0.00    +0.000 NA
ATOM     10  C   UNL     1       1.560   4.944  20.117  0.00  0.00    +0.000 A 
ATOM     11  N   UNL     1       0.705   3.870  20.322  0.00  0.00    +0.000 N 
ATOM     12  C   UNL     1       2.485   5.032  19.056  0.00  0.00    +0.000 A 
ATOM     13  C   UNL     1       3.174   3.987  18.315  0.00  0.00    +0.000 A 
ATOM     14  C   UNL     1       3.143   2.549  18.757  0.00  0.00    +0.000 C 
ATOM     15  H   UNL     1       1.704   9.065  21.087  0.00  0.00    +0.000 HD
ATOM     16  H   UNL     1       0.910   7.975  22.180  0.00  0.00    +0.000 HD
ATOM     17  H   UNL     1       0.197   4.027  21.188  0.00  0.00    +0.000 HD
ATOM     18  H   UNL     1       1.060   2.936  20.237  0.00  0.00    +0.000 HD
ENDBRANCH   1   2
BRANCH   1  24
ATOM     19  C   UNL     1       7.016   4.726  15.341  0.00  0.00    +0.000 A 
ATOM     20  C   UNL     1       7.563   5.109  14.095  0.00  0.00    +0.000 A 
ATOM     21  C   UNL     1       7.061   4.630  12.866  0.00  0.00    +0.000 A 
ATOM     22  C   UNL     1       6.006   3.743  12.866  0.00  0.00    +0.000 A 
ATOM     23  C   UNL     1       5.412   3.412  14.084  0.00  0.00    +0.000 A 
ATOM     24  C   UNL     1       5.868   3.926  15.339  0.00  0.00    +0.000 A 
BRANCH  22  25
ATOM     25  O   UNL     1       5.631   3.291  11.631  0.00  0.00    +0.000 OA
ATOM     26  C   UNL     1       5.616   1.880  11.426  0.00  0.00    +0.000 C 
ENDBRANCH  22  25
BRANCH  19  27
ATOM     27  O   UNL     1       7.672   5.302  16.394  0.00  0.00    +0.000 OA
BRANCH  27  28
ATOM     28  C   UNL     1       7.684   4.727  17.707  0.00  0.00    +0.000 C 
BRANCH  28  29
ATOM     29  C   UNL     1       7.313   5.749  18.783  0.00  0.00    +0.000 C 
BRANCH  29  30
ATOM     30  C   UNL     1       8.312   6.906  18.988  0.00  0.00    +0.000 C 
BRANCH  30  31
ATOM     31  C   UNL     1       8.113   8.213  18.225  0.00  0.00    +0.000 C 
ATOM     32  O   UNL     1       7.437   8.350  17.218  0.00  0.00    +0.000 OA
BRANCH  31  33
ATOM     33  O   UNL     1       8.880   9.192  18.809  0.00  0.00    +0.000 OA
BRANCH  33  35
ATOM     34  C   UNL     1       9.429  11.590  19.072  0.00  0.00    +0.000 C 
ATOM     35  C   UNL     1       9.016  10.464  18.137  0.00  0.00    +0.000 C 
ENDBRANCH  33  35
ENDBRANCH  31  33
ENDBRANCH  30  31
ENDBRANCH  29  30
ENDBRANCH  28  29
ENDBRANCH  27  28
ENDBRANCH  19  27
ENDBRANCH   1  24
TORSDOF 10
ENDMDL
MODEL 8
REMARK VINA RESULT:      -7.2      1.383      1.883
REMARK  Name = 
REMARK  13 active torsions:
REMARK  status: ('A' for Active; 'I' for Inactive)
REMARK    1  A    between atoms: C_1  and  C_2
REMARK    2  A    between atoms: C_2  and  O_3
REMARK    3  A    between atoms: O_3  and  C_4
REMARK    4  A    between atoms: C_4  and  C_6
REMARK    5  A    between atoms: C_6  and  C_7
REMARK    6  A    between atoms: C_7  and  C_8
REMARK    7  A    between atoms: C_8  and  O_9
REMARK    8  A    between atoms: O_9  and  C_10
REMARK    9  A    between atoms: C_13  and  O_14
REMARK   10  A    between atoms: O_14  and  C_15
REMARK   11  A    between atoms: C_17  and  C_18
REMARK   12  A    between atoms: C_18  and  C_19
REMARK   13  A    between atoms: C_30  and  C_31
REMARK                            x       y       z     vdW  Elec       q    Type
REMARK                         _______ _______ _______ _____ _____    ______ ____
ROOT
ATOM      1  C   UNL     1       3.165   6.219  18.882  0.00  0.00    +0.000 C 
ENDROOT
BRANCH   1   2
ATOM      2  C   UNL     1       2.374   7.516  18.794  0.00  0.00    +0.000 A 
ATOM      3  C   UNL     1       2.573   8.255  17.632  0.00  0.00    +0.000 A 
ATOM      4  N   UNL     1       2.246   9.550  17.473  0.00  0.00    +0.000 NA
ATOM      5  C   UNL     1       1.665  10.198  18.472  0.00  0.00    +0.000 A 
ATOM      6  N   UNL     1       1.590  11.510  18.302  0.00  0.00    +0.000 NA
ATOM      7  C   UNL     1       1.082  12.228  19.285  0.00  0.00    +0.000 A 
ATOM      8  N   UNL     1       1.202  13.599  19.225  0.00  0.00    +0.000 N 
ATOM      9  N   UNL     1       0.435  11.716  20.321  0.00  0.00    +0.000 NA
ATOM     10  C   UNL     1       0.457  10.381  20.452  0.00  0.00    +0.000 A 
ATOM     11  N   UNL     1      -0.496   9.933  21.355  0.00  0.00    +0.000 N 
ATOM     12  C   UNL     1       1.225   9.537  19.624  0.00  0.00    +0.000 A 
ATOM     13  C   UNL     1       1.654   8.160  19.817  0.00  0.00    +0.000 A 
ATOM     14  C   UNL     1       1.492   7.457  21.136  0.00  0.00    +0.000 C 
ATOM     15  H   UNL     1       1.295  13.915  18.272  0.00  0.00    +0.000 HD
ATOM     16  H   UNL     1       0.524  14.050  19.822  0.00  0.00    +0.000 HD
ATOM     17  H   UNL     1      -0.850  10.735  21.871  0.00  0.00    +0.000 HD
ATOM     18  H   UNL     1      -0.287   9.148  21.944  0.00  0.00    +0.000 HD
ENDBRANCH   1   2
BRANCH   1  24
ATOM     19  C   UNL     1       4.241   4.867  16.910  0.00  0.00    +0.000 A 
ATOM     20  C   UNL     1       5.437   4.588  16.211  0.00  0.00    +0.000 A 
ATOM     21  C   UNL     1       6.630   5.311  16.427  0.00  0.00    +0.000 A 
ATOM     22  C   UNL     1       6.639   6.341  17.342  0.00  0.00    +0.000 A 
ATOM     23  C   UNL     1       5.486   6.580  18.090  0.00  0.00    +0.000 A 
ATOM     24  C   UNL     1       4.281   5.826  17.928  0.00  0.00    +0.000 A 
BRANCH  22  25
ATOM     25  O   UNL     1       7.822   7.020  17.437  0.00  0.00    +0.000 OA
ATOM     26  C   UNL     1       7.756   8.432  17.620  0.00  0.00    +0.000 C 
ENDBRANCH  22  25
BRANCH  19  27
ATOM     27  O   UNL     1       3.212   4.050  16.526  0.00  0.00    +0.000 OA
BRANCH  27  28
ATOM     28  C   UNL     1       2.521   3.192  17.443  0.00  0.00    +0.000 C 
BRANCH  28  29
ATOM     29  C   UNL     1       3.189   1.821  17.557  0.00  0.00    +0.000 C 
BRANCH  29  30
ATOM     30  C   UNL     1       3.631   1.401  18.974  0.00  0.00    +0.000 C 
BRANCH  30  31
ATOM     31  C   UNL     1       4.099   2.469  19.961  0.00  0.00    +0.000 C 
ATOM     32  O   UNL     1       5.113   3.139  19.852  0.00  0.00    +0.000 OA
BRANCH  31  33
ATOM     33  O   UNL     1       3.236   2.498  21.030  0.00  0.00    +0.000 OA
BRANCH  33  35
ATOM     34  C   UNL     1       1.058   3.615  20.670  0.00  0.00    +0.000 C 
ATOM     35  C   UNL     1       2.457   3.692  21.263  0.00  0.00    +0.000 C 
ENDBRANCH  33  35
ENDBRANCH  31  33
ENDBRANCH  30  31
ENDBRANCH  29  30
ENDBRANCH  28  29
ENDBRANCH  27  28
ENDBRANCH  19  27
ENDBRANCH   1  24
TORSDOF 10
ENDMDL
MODEL 9
REMARK VINA RESULT:      -7.2      1.652      5.139
REMARK  Name = 
REMARK  13 active torsions:
REMARK  status: ('A' for Active; 'I' for Inactive)
REMARK    1  A    between atoms: C_1  and  C_2
REMARK    2  A    between atoms: C_2  and  O_3
REMARK    3  A    between atoms: O_3  and  C_4
REMARK    4  A    between atoms: C_4  and  C_6
REMARK    5  A    between atoms: C_6  and  C_7
REMARK    6  A    between atoms: C_7  and  C_8
REMARK    7  A    between atoms: C_8  and  O_9
REMARK    8  A    between atoms: O_9  and  C_10
REMARK    9  A    between atoms: C_13  and  O_14
REMARK   10  A    between atoms: O_14  and  C_15
REMARK   11  A    between atoms: C_17  and  C_18
REMARK   12  A    between atoms: C_18  and  C_19
REMARK   13  A    between atoms: C_30  and  C_31
REMARK                            x       y       z     vdW  Elec       q    Type
REMARK                         _______ _______ _______ _____ _____    ______ ____
ROOT
ATOM      1  C   UNL     1       2.366   6.813  17.803  0.00  0.00    +0.000 C 
ENDROOT
BRANCH   1   2
ATOM      2  C   UNL     1       2.055   7.701  19.000  0.00  0.00    +0.000 A 
ATOM      3  C   UNL     1       2.022   7.049  20.228  0.00  0.00    +0.000 A 
ATOM      4  N   UNL     1       1.468   7.541  21.351  0.00  0.00    +0.000 NA
ATOM      5  C   UNL     1       0.922   8.748  21.328  0.00  0.00    +0.000 A 
ATOM      6  N   UNL     1       0.212   9.048  22.405  0.00  0.00    +0.000 NA
ATOM      7  C   UNL     1      -0.415  10.208  22.424  0.00  0.00    +0.000 A 
ATOM      8  N   UNL     1      -1.334  10.442  23.423  0.00  0.00    +0.000 N 
ATOM      9  N   UNL     1      -0.197  11.184  21.554  0.00  0.00    +0.000 NA
ATOM     10  C   UNL     1       0.579  10.895  20.499  0.00  0.00    +0.000 A 
ATOM     11  N   UNL     1       1.004  12.040  19.840  0.00  0.00    +0.000 N 
ATOM     12  C   UNL     1       1.055   9.597  20.224  0.00  0.00    +0.000 A 
ATOM     13  C   UNL     1       1.584   9.026  18.994  0.00  0.00    +0.000 A 
ATOM     14  C   UNL     1       1.497   9.754  17.680  0.00  0.00    +0.000 C 
ATOM     15  H   UNL     1      -1.133   9.884  24.239  0.00  0.00    +0.000 HD
ATOM     16  H   UNL     1      -1.502  11.430  23.540  0.00  0.00    +0.000 HD
ATOM     17  H   UNL     1       0.457  12.826  20.180  0.00  0.00    +0.000 HD
ATOM     18  H   UNL     1       1.097  12.028  18.841  0.00  0.00    +0.000 HD
ENDBRANCH   1   2
BRANCH   1  24
ATOM     19  C   UNL     1       3.839   4.717  17.246  0.00  0.00    +0.000 A 
ATOM     20  C   UNL     1       3.972   3.319  17.399  0.00  0.00    +0.000 A 
ATOM     21  C   UNL     1       3.146   2.567  18.263  0.00  0.00    +0.000 A 
ATOM     22  C   UNL     1       2.178   3.211  19.002  0.00  0.00    +0.000 A 
ATOM     23  C   UNL     1       1.989   4.579  18.807  0.00  0.00    +0.000 A 
ATOM     24  C   UNL     1       2.777   5.354  17.898  0.00  0.00    +0.000 A 
BRANCH  22  25
ATOM     25  O   UNL     1       1.471   2.408  19.853  0.00  0.00    +0.000 OA
ATOM     26  C   UNL     1       1.254   2.885  21.178  0.00  0.00    +0.000 C 
ENDBRANCH  22  25
BRANCH  19  27
ATOM     27  O   UNL     1       4.754   5.233  16.369  0.00  0.00    +0.000 OA
BRANCH  27  28
ATOM     28  C   UNL     1       5.601   4.408  15.560  0.00  0.00    +0.000 C 
BRANCH  28  29
ATOM     29  C   UNL     1       7.078   4.578  15.919  0.00  0.00    +0.000 C 
BRANCH  29  30
ATOM     30  C   UNL     1       7.435   4.398  17.409  0.00  0.00    +0.000 C 
BRANCH  30  31
ATOM     31  C   UNL     1       7.701   5.631  18.270  0.00  0.00    +0.000 C 
ATOM     32  O   UNL     1       7.558   5.693  19.481  0.00  0.00    +0.000 OA
BRANCH  31  33
ATOM     33  O   UNL     1       8.050   6.680  17.454  0.00  0.00    +0.000 OA
BRANCH  33  35
ATOM     34  C   UNL     1       8.243   9.062  18.090  0.00  0.00    +0.000 C 
ATOM     35  C   UNL     1       7.349   7.935  17.595  0.00  0.00    +0.000 C 
ENDBRANCH  33  35
ENDBRANCH  31  33
ENDBRANCH  30  31
ENDBRANCH  29  30
ENDBRANCH  28  29
ENDBRANCH  27  28
ENDBRANCH  19  27
ENDBRANCH   1  24
TORSDOF 10
ENDMDL
