MODEL 1
REMARK VINA RESULT:      -7.6      0.000      0.000
REMARK  Name = 
REMARK  4 active torsions:
REMARK  status: ('A' for Active; 'I' for Inactive)
REMARK    1  A    between atoms: C_1  and  C_2
REMARK    2  A    between atoms: C_6  and  N_7
REMARK    3  A    between atoms: C_8  and  C_10
REMARK    4  A    between atoms: C_16  and  C_17
REMARK                            x       y       z     vdW  Elec       q    Type
REMARK                         _______ _______ _______ _____ _____    ______ ____
ROOT
ATOM      1  C   UNL     1       7.039   4.870  14.096  0.00  0.00    +0.000 C 
ATOM      2  C   UNL     1       6.088   5.075  15.238  0.00  0.00    +0.000 A 
ATOM      3  C   UNL     1       5.690   6.439  15.555  0.00  0.00    +0.000 A 
ATOM      4  C   UNL     1       4.863   6.666  16.589  0.00  0.00    +0.000 A 
ATOM      5  N   UNL     1       4.347   5.603  17.336  0.00  0.00    +0.000 N 
ATOM      6  C   UNL     1       3.498   5.544  18.444  0.00  0.00    +0.000 A 
ATOM      7  C   UNL     1       3.458   4.192  18.781  0.00  0.00    +0.000 A 
ATOM      8  N   UNL     1       4.211   3.431  17.922  0.00  0.00    +0.000 NA
ATOM      9  C   UNL     1       4.732   4.281  17.067  0.00  0.00    +0.000 A 
ATOM     10  C   UNL     1       5.625   4.047  15.980  0.00  0.00    +0.000 A 
ENDROOT
BRANCH   7  11
ATOM     11  C   UNL     1       2.687   3.554  19.907  0.00  0.00    +0.000 A 
ATOM     12  C   UNL     1       3.284   2.768  20.874  0.00  0.00    +0.000 A 
ATOM     13  C   UNL     1       2.348   2.268  21.827  0.00  0.00    +0.000 A 
ATOM     14  C   UNL     1       1.067   2.687  21.558  0.00  0.00    +0.000 A 
ATOM     15  S   UNL     1       1.001   3.679  20.168  0.00  0.00    +0.000 S 
ENDBRANCH   7  11
BRANCH   6  16
ATOM     16  N   UNL     1       2.868   6.587  19.128  0.00  0.00    +0.000 N 
ATOM     17  C   UNL     1       2.134   7.617  18.583  0.00  0.00    +0.000 C 
ATOM     18  O   UNL     1       1.825   7.730  17.402  0.00  0.00    +0.000 OA
ATOM     19  H   UNL     1       2.724   6.404  20.116  0.00  0.00    +0.000 HD
BRANCH  17  20
ATOM     20  C   UNL     1       1.612   8.633  19.556  0.00  0.00    +0.000 A 
ATOM     21  C   UNL     1       1.491   8.396  20.934  0.00  0.00    +0.000 A 
ATOM     22  C   UNL     1       1.009   9.399  21.781  0.00  0.00    +0.000 A 
ATOM     23  C   UNL     1       0.658  10.647  21.266  0.00  0.00    +0.000 A 
ATOM     24  C   UNL     1       0.789  10.896  19.904  0.00  0.00    +0.000 A 
ATOM     25  C   UNL     1       1.264   9.896  19.053  0.00  0.00    +0.000 A 
ENDBRANCH  17  20
ENDBRANCH   6  16
TORSDOF 3
ENDMDL
MODEL 2
REMARK VINA RESULT:      -7.5      1.629      6.218
REMARK  Name = 
REMARK  4 active torsions:
REMARK  status: ('A' for Active; 'I' for Inactive)
REMARK    1  A    between atoms: C_1  and  C_2
REMARK    2  A    between atoms: C_6  and  N_7
REMARK    3  A    between atoms: C_8  and  C_10
REMARK    4  A    between atoms: C_16  and  C_17
REMARK                            x       y       z     vdW  Elec       q    Type
REMARK                         _______ _______ _______ _____ _____    ______ ____
ROOT
ATOM      1  C   UNL     1       0.249  11.443  19.735  0.00  0.00    +0.000 C 
ATOM      2  C   UNL     1       0.963  10.159  19.430  0.00  0.00    +0.000 A 
ATOM      3  C   UNL     1       1.659  10.055  18.156  0.00  0.00    +0.000 A 
ATOM      4  C   UNL     1       2.285   8.911  17.832  0.00  0.00    +0.000 A 
ATOM      5  N   UNL     1       2.313   7.837  18.726  0.00  0.00    +0.000 N 
ATOM      6  C   UNL     1       2.865   6.555  18.654  0.00  0.00    +0.000 A 
ATOM      7  C   UNL     1       2.448   5.930  19.829  0.00  0.00    +0.000 A 
ATOM      8  N   UNL     1       1.703   6.772  20.616  0.00  0.00    +0.000 NA
ATOM      9  C   UNL     1       1.632   7.902  19.950  0.00  0.00    +0.000 A 
ATOM     10  C   UNL     1       0.952   9.111  20.280  0.00  0.00    +0.000 A 
ENDROOT
BRANCH   7  11
ATOM     11  C   UNL     1       2.758   4.525  20.274  0.00  0.00    +0.000 A 
ATOM     12  C   UNL     1       2.083   3.898  21.304  0.00  0.00    +0.000 A 
ATOM     13  C   UNL     1       2.562   2.578  21.548  0.00  0.00    +0.000 A 
ATOM     14  C   UNL     1       3.587   2.237  20.698  0.00  0.00    +0.000 A 
ATOM     15  S   UNL     1       3.961   3.504  19.614  0.00  0.00    +0.000 S 
ENDBRANCH   7  11
BRANCH   6  16
ATOM     16  N   UNL     1       3.610   5.973  17.626  0.00  0.00    +0.000 N 
ATOM     17  C   UNL     1       4.978   6.003  17.469  0.00  0.00    +0.000 C 
ATOM     18  O   UNL     1       5.782   6.463  18.272  0.00  0.00    +0.000 OA
ATOM     19  H   UNL     1       3.113   5.250  17.114  0.00  0.00    +0.000 HD
BRANCH  17  20
ATOM     20  C   UNL     1       5.509   5.332  16.236  0.00  0.00    +0.000 A 
ATOM     21  C   UNL     1       4.724   4.539  15.386  0.00  0.00    +0.000 A 
ATOM     22  C   UNL     1       5.287   3.959  14.244  0.00  0.00    +0.000 A 
ATOM     23  C   UNL     1       6.630   4.175  13.935  0.00  0.00    +0.000 A 
ATOM     24  C   UNL     1       7.412   4.973  14.763  0.00  0.00    +0.000 A 
ATOM     25  C   UNL     1       6.856   5.550  15.907  0.00  0.00    +0.000 A 
ENDBRANCH  17  20
ENDBRANCH   6  16
TORSDOF 3
ENDMDL
MODEL 3
REMARK VINA RESULT:      -7.4      0.723      1.337
REMARK  Name = 
REMARK  4 active torsions:
REMARK  status: ('A' for Active; 'I' for Inactive)
REMARK    1  A    between atoms: C_1  and  C_2
REMARK    2  A    between atoms: C_6  and  N_7
REMARK    3  A    between atoms: C_8  and  C_10
REMARK    4  A    between atoms: C_16  and  C_17
REMARK                            x       y       z     vdW  Elec       q    Type
REMARK                         _______ _______ _______ _____ _____    ______ ____
ROOT
ATOM      1  C   UNL     1       7.131   4.818  13.931  0.00  0.00    +0.000 C 
ATOM      2  C   UNL     1       6.146   5.026  15.042  0.00  0.00    +0.000 A 
ATOM      3  C   UNL     1       5.723   6.389  15.329  0.00  0.00    +0.000 A 
ATOM      4  C   UNL     1       4.865   6.620  16.337  0.00  0.00    +0.000 A 
ATOM      5  N   UNL     1       4.340   5.561  17.083  0.00  0.00    +0.000 N 
ATOM      6  C   UNL     1       3.460   5.507  18.167  0.00  0.00    +0.000 A 
ATOM      7  C   UNL     1       3.426   4.159  18.521  0.00  0.00    +0.000 A 
ATOM      8  N   UNL     1       4.211   3.395  17.694  0.00  0.00    +0.000 NA
ATOM      9  C   UNL     1       4.746   4.241  16.843  0.00  0.00    +0.000 A 
ATOM     10  C   UNL     1       5.673   4.003  15.785  0.00  0.00    +0.000 A 
ENDROOT
BRANCH   7  11
ATOM     11  C   UNL     1       2.630   3.528  19.633  0.00  0.00    +0.000 A 
ATOM     12  C   UNL     1       1.253   3.602  19.706  0.00  0.00    +0.000 A 
ATOM     13  C   UNL     1       0.728   2.938  20.854  0.00  0.00    +0.000 A 
ATOM     14  C   UNL     1       1.722   2.378  21.622  0.00  0.00    +0.000 A 
ATOM     15  S   UNL     1       3.271   2.651  20.955  0.00  0.00    +0.000 S 
ENDBRANCH   7  11
BRANCH   6  16
ATOM     16  N   UNL     1       2.800   6.551  18.819  0.00  0.00    +0.000 N 
ATOM     17  C   UNL     1       2.401   7.753  18.276  0.00  0.00    +0.000 C 
ATOM     18  O   UNL     1       2.472   8.063  17.092  0.00  0.00    +0.000 OA
ATOM     19  H   UNL     1       2.347   6.276  19.686  0.00  0.00    +0.000 HD
BRANCH  17  20
ATOM     20  C   UNL     1       1.754   8.717  19.226  0.00  0.00    +0.000 A 
ATOM     21  C   UNL     1       1.248   9.967  18.838  0.00  0.00    +0.000 A 
ATOM     22  C   UNL     1       0.643  10.805  19.780  0.00  0.00    +0.000 A 
ATOM     23  C   UNL     1       0.526  10.401  21.110  0.00  0.00    +0.000 A 
ATOM     24  C   UNL     1       1.011   9.157  21.501  0.00  0.00    +0.000 A 
ATOM     25  C   UNL     1       1.620   8.318  20.565  0.00  0.00    +0.000 A 
ENDBRANCH  17  20
ENDBRANCH   6  16
TORSDOF 3
ENDMDL
MODEL 4
REMARK VINA RESULT:      -7.3      3.768      7.591
REMARK  Name = 
REMARK  4 active torsions:
REMARK  status: ('A' for Active; 'I' for Inactive)
REMARK    1  A    between atoms: C_1  and  C_2
REMARK    2  A    between atoms: C_6  and  N_7
REMARK    3  A    between atoms: C_8  and  C_10
REMARK    4  A    between atoms: C_16  and  C_17
REMARK                            x       y       z     vdW  Elec       q    Type
REMARK                         _______ _______ _______ _____ _____    ______ ____
ROOT
ATOM      1  C   UNL     1       0.525   2.621  20.629  0.00  0.00    +0.000 C 
ATOM      2  C   UNL     1       1.589   3.189  19.737  0.00  0.00    +0.000 A 
ATOM      3  C   UNL     1       1.663   2.696  18.370  0.00  0.00    +0.000 A 
ATOM      4  C   UNL     1       2.621   3.158  17.548  0.00  0.00    +0.000 A 
ATOM      5  N   UNL     1       3.517   4.139  17.980  0.00  0.00    +0.000 N 
ATOM      6  C   UNL     1       4.594   4.781  17.362  0.00  0.00    +0.000 A 
ATOM      7  C   UNL     1       5.149   5.574  18.365  0.00  0.00    +0.000 A 
ATOM      8  N   UNL     1       4.451   5.469  19.542  0.00  0.00    +0.000 NA
ATOM      9  C   UNL     1       3.483   4.616  19.298  0.00  0.00    +0.000 A 
ATOM     10  C   UNL     1       2.477   4.107  20.172  0.00  0.00    +0.000 A 
ENDROOT
BRANCH   7  11
ATOM     11  C   UNL     1       6.342   6.487  18.251  0.00  0.00    +0.000 A 
ATOM     12  C   UNL     1       6.354   7.609  17.445  0.00  0.00    +0.000 A 
ATOM     13  C   UNL     1       7.597   8.306  17.494  0.00  0.00    +0.000 A 
ATOM     14  C   UNL     1       8.496   7.694  18.336  0.00  0.00    +0.000 A 
ATOM     15  S   UNL     1       7.836   6.294  19.061  0.00  0.00    +0.000 S 
ENDBRANCH   7  11
BRANCH   6  16
ATOM     16  N   UNL     1       5.077   4.635  16.059  0.00  0.00    +0.000 N 
ATOM     17  C   UNL     1       6.364   4.329  15.677  0.00  0.00    +0.000 C 
ATOM     18  O   UNL     1       7.284   4.032  16.430  0.00  0.00    +0.000 OA
ATOM     19  H   UNL     1       4.351   4.478  15.366  0.00  0.00    +0.000 HD
BRANCH  17  20
ATOM     20  C   UNL     1       6.614   4.285  14.198  0.00  0.00    +0.000 A 
ATOM     21  C   UNL     1       5.936   3.422  13.323  0.00  0.00    +0.000 A 
ATOM     22  C   UNL     1       6.213   3.450  11.952  0.00  0.00    +0.000 A 
ATOM     23  C   UNL     1       7.155   4.343  11.442  0.00  0.00    +0.000 A 
ATOM     24  C   UNL     1       7.821   5.212  12.300  0.00  0.00    +0.000 A 
ATOM     25  C   UNL     1       7.552   5.185  13.670  0.00  0.00    +0.000 A 
ENDBRANCH  17  20
ENDBRANCH   6  16
TORSDOF 3
ENDMDL
MODEL 5
REMARK VINA RESULT:      -7.1      3.877      7.632
REMARK  Name = 
REMARK  4 active torsions:
REMARK  status: ('A' for Active; 'I' for Inactive)
REMARK    1  A    between atoms: C_1  and  C_2
REMARK    2  A    between atoms: C_6  and  N_7
REMARK    3  A    between atoms: C_8  and  C_10
REMARK    4  A    between atoms: C_16  and  C_17
REMARK                            x       y       z     vdW  Elec       q    Type
REMARK                         _______ _______ _______ _____ _____    ______ ____
ROOT
ATOM      1  C   UNL     1       0.804   2.293  20.510  0.00  0.00    +0.000 C 
ATOM      2  C   UNL     1       1.843   2.937  19.641  0.00  0.00    +0.000 A 
ATOM      3  C   UNL     1       1.930   2.507  18.253  0.00  0.00    +0.000 A 
ATOM      4  C   UNL     1       2.867   3.039  17.450  0.00  0.00    +0.000 A 
ATOM      5  N   UNL     1       3.728   4.033  17.922  0.00  0.00    +0.000 N 
ATOM      6  C   UNL     1       4.779   4.740  17.330  0.00  0.00    +0.000 A 
ATOM      7  C   UNL     1       5.308   5.509  18.366  0.00  0.00    +0.000 A 
ATOM      8  N   UNL     1       4.618   5.328  19.538  0.00  0.00    +0.000 NA
ATOM      9  C   UNL     1       3.682   4.450  19.260  0.00  0.00    +0.000 A 
ATOM     10  C   UNL     1       2.698   3.868  20.114  0.00  0.00    +0.000 A 
ENDROOT
BRANCH   7  11
ATOM     11  C   UNL     1       6.466   6.469  18.289  0.00  0.00    +0.000 A 
ATOM     12  C   UNL     1       6.451   7.601  17.497  0.00  0.00    +0.000 A 
ATOM     13  C   UNL     1       7.665   8.345  17.582  0.00  0.00    +0.000 A 
ATOM     14  C   UNL     1       8.568   7.758  18.436  0.00  0.00    +0.000 A 
ATOM     15  S   UNL     1       7.949   6.325  19.129  0.00  0.00    +0.000 S 
ENDBRANCH   7  11
BRANCH   6  16
ATOM     16  N   UNL     1       5.261   4.668  16.021  0.00  0.00    +0.000 N 
ATOM     17  C   UNL     1       6.559   4.434  15.624  0.00  0.00    +0.000 C 
ATOM     18  O   UNL     1       7.494   4.147  16.362  0.00  0.00    +0.000 OA
ATOM     19  H   UNL     1       4.540   4.508  15.324  0.00  0.00    +0.000 HD
BRANCH  17  20
ATOM     20  C   UNL     1       6.804   4.461  14.143  0.00  0.00    +0.000 A 
ATOM     21  C   UNL     1       7.683   5.360  13.519  0.00  0.00    +0.000 A 
ATOM     22  C   UNL     1       7.871   5.313  12.134  0.00  0.00    +0.000 A 
ATOM     23  C   UNL     1       7.196   4.367  11.363  0.00  0.00    +0.000 A 
ATOM     24  C   UNL     1       6.334   3.462  11.975  0.00  0.00    +0.000 A 
ATOM     25  C   UNL     1       6.140   3.507  13.358  0.00  0.00    +0.000 A 
ENDBRANCH  17  20
ENDBRANCH   6  16
TORSDOF 3
ENDMDL
MODEL 6
REMARK VINA RESULT:      -7.1      1.899      6.407
REMARK  Name = 
REMARK  4 active torsions:
REMARK  status: ('A' for Active; 'I' for Inactive)
REMARK    1  A    between atoms: C_1  and  C_2
REMARK    2  A    between atoms: C_6  and  N_7
REMARK    3  A    between atoms: C_8  and  C_10
REMARK    4  A    between atoms: C_16  and  C_17
REMARK                            x       y       z     vdW  Elec       q    Type
REMARK                         _______ _______ _______ _____ _____    ______ ____
ROOT
ATOM      1  C   UNL     1       0.699  10.082  20.199  0.00  0.00    +0.000 C 
ATOM      2  C   UNL     1       1.449   8.933  19.592  0.00  0.00    +0.000 A 
ATOM      3  C   UNL     1       2.076   9.140  18.295  0.00  0.00    +0.000 A 
ATOM      4  C   UNL     1       2.732   8.126  17.705  0.00  0.00    +0.000 A 
ATOM      5  N   UNL     1       2.856   6.890  18.345  0.00  0.00    +0.000 N 
ATOM      6  C   UNL     1       3.457   5.684  17.974  0.00  0.00    +0.000 A 
ATOM      7  C   UNL     1       3.134   4.802  19.004  0.00  0.00    +0.000 A 
ATOM      8  N   UNL     1       2.399   5.416  19.987  0.00  0.00    +0.000 NA
ATOM      9  C   UNL     1       2.243   6.656  19.584  0.00  0.00    +0.000 A 
ATOM     10  C   UNL     1       1.531   7.729  20.197  0.00  0.00    +0.000 A 
ENDROOT
BRANCH   7  11
ATOM     11  C   UNL     1       3.528   3.353  19.122  0.00  0.00    +0.000 A 
ATOM     12  C   UNL     1       4.331   2.874  20.140  0.00  0.00    +0.000 A 
ATOM     13  C   UNL     1       4.574   1.473  20.032  0.00  0.00    +0.000 A 
ATOM     14  C   UNL     1       3.950   0.926  18.936  0.00  0.00    +0.000 A 
ATOM     15  S   UNL     1       3.076   2.098  18.051  0.00  0.00    +0.000 S 
ENDBRANCH   7  11
BRANCH   6  16
ATOM     16  N   UNL     1       4.168   5.375  16.812  0.00  0.00    +0.000 N 
ATOM     17  C   UNL     1       5.511   5.085  16.709  0.00  0.00    +0.000 C 
ATOM     18  O   UNL     1       6.288   4.949  17.646  0.00  0.00    +0.000 OA
ATOM     19  H   UNL     1       3.583   5.082  16.035  0.00  0.00    +0.000 HD
BRANCH  17  20
ATOM     20  C   UNL     1       6.022   4.839  15.319  0.00  0.00    +0.000 A 
ATOM     21  C   UNL     1       7.223   5.374  14.829  0.00  0.00    +0.000 A 
ATOM     22  C   UNL     1       7.641   5.087  13.525  0.00  0.00    +0.000 A 
ATOM     23  C   UNL     1       6.875   4.257  12.707  0.00  0.00    +0.000 A 
ATOM     24  C   UNL     1       5.690   3.710  13.190  0.00  0.00    +0.000 A 
ATOM     25  C   UNL     1       5.266   3.997  14.489  0.00  0.00    +0.000 A 
ENDBRANCH  17  20
ENDBRANCH   6  16
TORSDOF 3
ENDMDL
MODEL 7
REMARK VINA RESULT:      -7.0      1.577      6.185
REMARK  Name = 
REMARK  4 active torsions:
REMARK  status: ('A' for Active; 'I' for Inactive)
REMARK    1  A    between atoms: C_1  and  C_2
REMARK    2  A    between atoms: C_6  and  N_7
REMARK    3  A    between atoms: C_8  and  C_10
REMARK    4  A    between atoms: C_16  and  C_17
REMARK                            x       y       z     vdW  Elec       q    Type
REMARK                         _______ _______ _______ _____ _____    ______ ____
ROOT
ATOM      1  C   UNL     1       0.469  12.154  19.897  0.00  0.00    +0.000 C 
ATOM      2  C   UNL     1       0.998  10.779  19.616  0.00  0.00    +0.000 A 
ATOM      3  C   UNL     1       1.805  10.593  18.419  0.00  0.00    +0.000 A 
ATOM      4  C   UNL     1       2.272   9.370  18.117  0.00  0.00    +0.000 A 
ATOM      5  N   UNL     1       2.029   8.285  18.964  0.00  0.00    +0.000 N 
ATOM      6  C   UNL     1       2.372   6.932  18.897  0.00  0.00    +0.000 A 
ATOM      7  C   UNL     1       1.734   6.356  19.994  0.00  0.00    +0.000 A 
ATOM      8  N   UNL     1       1.050   7.289  20.733  0.00  0.00    +0.000 NA
ATOM      9  C   UNL     1       1.236   8.431  20.111  0.00  0.00    +0.000 A 
ATOM     10  C   UNL     1       0.725   9.727  20.417  0.00  0.00    +0.000 A 
ENDROOT
BRANCH   7  11
ATOM     11  C   UNL     1       1.763   4.909  20.411  0.00  0.00    +0.000 A 
ATOM     12  C   UNL     1       0.938   3.951  19.854  0.00  0.00    +0.000 A 
ATOM     13  C   UNL     1       1.142   2.657  20.419  0.00  0.00    +0.000 A 
ATOM     14  C   UNL     1       2.116   2.668  21.389  0.00  0.00    +0.000 A 
ATOM     15  S   UNL     1       2.777   4.228  21.608  0.00  0.00    +0.000 S 
ENDBRANCH   7  11
BRANCH   6  16
ATOM     16  N   UNL     1       3.124   6.260  17.930  0.00  0.00    +0.000 N 
ATOM     17  C   UNL     1       4.394   5.745  18.071  0.00  0.00    +0.000 C 
ATOM     18  O   UNL     1       5.038   5.701  19.113  0.00  0.00    +0.000 OA
ATOM     19  H   UNL     1       2.573   5.897  17.158  0.00  0.00    +0.000 HD
BRANCH  17  20
ATOM     20  C   UNL     1       4.984   5.114  16.844  0.00  0.00    +0.000 A 
ATOM     21  C   UNL     1       5.036   3.728  16.633  0.00  0.00    +0.000 A 
ATOM     22  C   UNL     1       5.588   3.215  15.454  0.00  0.00    +0.000 A 
ATOM     23  C   UNL     1       6.079   4.077  14.474  0.00  0.00    +0.000 A 
ATOM     24  C   UNL     1       6.018   5.454  14.668  0.00  0.00    +0.000 A 
ATOM     25  C   UNL     1       5.472   5.971  15.845  0.00  0.00    +0.000 A 
ENDBRANCH  17  20
ENDBRANCH   6  16
TORSDOF 3
ENDMDL
MODEL 8
REMARK VINA RESULT:      -7.0      1.214      1.383
REMARK  Name = 
REMARK  4 active torsions:
REMARK  status: ('A' for Active; 'I' for Inactive)
REMARK    1  A    between atoms: C_1  and  C_2
REMARK    2  A    between atoms: C_6  and  N_7
REMARK    3  A    between atoms: C_8  and  C_10
REMARK    4  A    between atoms: C_16  and  C_17
REMARK                            x       y       z     vdW  Elec       q    Type
REMARK                         _______ _______ _______ _____ _____    ______ ____
ROOT
ATOM      1  C   UNL     1       7.453   4.633  13.783  0.00  0.00    +0.000 C 
ATOM      2  C   UNL     1       6.377   4.871  14.801  0.00  0.00    +0.000 A 
ATOM      3  C   UNL     1       5.894   6.233  14.973  0.00  0.00    +0.000 A 
ATOM      4  C   UNL     1       4.952   6.492  15.895  0.00  0.00    +0.000 A 
ATOM      5  N   UNL     1       4.400   5.459  16.659  0.00  0.00    +0.000 N 
ATOM      6  C   UNL     1       3.438   5.437  17.673  0.00  0.00    +0.000 A 
ATOM      7  C   UNL     1       3.415   4.111  18.102  0.00  0.00    +0.000 A 
ATOM      8  N   UNL     1       4.286   3.329  17.385  0.00  0.00    +0.000 NA
ATOM      9  C   UNL     1       4.862   4.142  16.530  0.00  0.00    +0.000 A 
ATOM     10  C   UNL     1       5.877   3.876  15.563  0.00  0.00    +0.000 A 
ENDROOT
BRANCH   7  11
ATOM     11  C   UNL     1       2.552   3.517  19.184  0.00  0.00    +0.000 A 
ATOM     12  C   UNL     1       1.171   3.536  19.138  0.00  0.00    +0.000 A 
ATOM     13  C   UNL     1       0.577   2.924  20.281  0.00  0.00    +0.000 A 
ATOM     14  C   UNL     1       1.521   2.457  21.163  0.00  0.00    +0.000 A 
ATOM     15  S   UNL     1       3.110   2.754  20.610  0.00  0.00    +0.000 S 
ENDBRANCH   7  11
BRANCH   6  16
ATOM     16  N   UNL     1       2.698   6.494  18.209  0.00  0.00    +0.000 N 
ATOM     17  C   UNL     1       2.595   6.851  19.535  0.00  0.00    +0.000 C 
ATOM     18  O   UNL     1       3.224   6.354  20.462  0.00  0.00    +0.000 OA
ATOM     19  H   UNL     1       2.443   7.205  17.530  0.00  0.00    +0.000 HD
BRANCH  17  20
ATOM     20  C   UNL     1       1.684   8.006  19.832  0.00  0.00    +0.000 A 
ATOM     21  C   UNL     1       1.060   8.202  21.074  0.00  0.00    +0.000 A 
ATOM     22  C   UNL     1       0.236   9.313  21.281  0.00  0.00    +0.000 A 
ATOM     23  C   UNL     1       0.036  10.240  20.259  0.00  0.00    +0.000 A 
ATOM     24  C   UNL     1       0.662  10.062  19.029  0.00  0.00    +0.000 A 
ATOM     25  C   UNL     1       1.483   8.952  18.816  0.00  0.00    +0.000 A 
ENDBRANCH  17  20
ENDBRANCH   6  16
TORSDOF 3
ENDMDL
MODEL 9
REMARK VINA RESULT:      -6.8      1.060      1.430
REMARK  Name = 
REMARK  4 active torsions:
REMARK  status: ('A' for Active; 'I' for Inactive)
REMARK    1  A    between atoms: C_1  and  C_2
REMARK    2  A    between atoms: C_6  and  N_7
REMARK    3  A    between atoms: C_8  and  C_10
REMARK    4  A    between atoms: C_16  and  C_17
REMARK                            x       y       z     vdW  Elec       q    Type
REMARK                         _______ _______ _______ _____ _____    ______ ____
ROOT
ATOM      1  C   UNL     1       7.338   4.522  13.740  0.00  0.00    +0.000 C 
ATOM      2  C   UNL     1       6.291   4.780  14.782  0.00  0.00    +0.000 A 
ATOM      3  C   UNL     1       5.784   6.138  14.915  0.00  0.00    +0.000 A 
ATOM      4  C   UNL     1       4.867   6.416  15.856  0.00  0.00    +0.000 A 
ATOM      5  N   UNL     1       4.361   5.405  16.679  0.00  0.00    +0.000 N 
ATOM      6  C   UNL     1       3.433   5.406  17.724  0.00  0.00    +0.000 A 
ATOM      7  C   UNL     1       3.452   4.098  18.207  0.00  0.00    +0.000 A 
ATOM      8  N   UNL     1       4.316   3.304  17.494  0.00  0.00    +0.000 NA
ATOM      9  C   UNL     1       4.847   4.093  16.588  0.00  0.00    +0.000 A 
ATOM     10  C   UNL     1       5.836   3.808  15.601  0.00  0.00    +0.000 A 
ENDROOT
BRANCH   7  11
ATOM     11  C   UNL     1       2.637   3.532  19.340  0.00  0.00    +0.000 A 
ATOM     12  C   UNL     1       3.190   3.163  20.551  0.00  0.00    +0.000 A 
ATOM     13  C   UNL     1       2.222   2.644  21.460  0.00  0.00    +0.000 A 
ATOM     14  C   UNL     1       0.960   2.632  20.915  0.00  0.00    +0.000 A 
ATOM     15  S   UNL     1       0.950   3.248  19.321  0.00  0.00    +0.000 S 
ENDBRANCH   7  11
BRANCH   6  16
ATOM     16  N   UNL     1       2.688   6.468  18.240  0.00  0.00    +0.000 N 
ATOM     17  C   UNL     1       2.615   6.874  19.555  0.00  0.00    +0.000 C 
ATOM     18  O   UNL     1       3.280   6.425  20.481  0.00  0.00    +0.000 OA
ATOM     19  H   UNL     1       2.400   7.148  17.542  0.00  0.00    +0.000 HD
BRANCH  17  20
ATOM     20  C   UNL     1       1.691   8.022  19.834  0.00  0.00    +0.000 A 
ATOM     21  C   UNL     1       1.384   9.017  18.893  0.00  0.00    +0.000 A 
ATOM     22  C   UNL     1       0.499  10.049  19.223  0.00  0.00    +0.000 A 
ATOM     23  C   UNL     1      -0.094  10.092  20.484  0.00  0.00    +0.000 A 
ATOM     24  C   UNL     1       0.192   9.102  21.418  0.00  0.00    +0.000 A 
ATOM     25  C   UNL     1       1.079   8.071  21.096  0.00  0.00    +0.000 A 
ENDBRANCH  17  20
ENDBRANCH   6  16
TORSDOF 3
ENDMDL
