MODEL 1
REMARK VINA RESULT:      -7.3      0.000      0.000
REMARK  Name = 
REMARK  11 active torsions:
REMARK  status: ('A' for Active; 'I' for Inactive)
REMARK    1  A    between atoms: C_1  and  C_2
REMARK    2  A    between atoms: C_7  and  C_8
REMARK    3  A    between atoms: C_8  and  C_9
REMARK    4  A    between atoms: C_8  and  C_10
REMARK    5  A    between atoms: C_8  and  C_11
REMARK    6  A    between atoms: C_11  and  N_12
REMARK    7  A    between atoms: C_13  and  C_15
REMARK    8  A    between atoms: C_15  and  C_16
REMARK    9  A    between atoms: C_16  and  S_17
REMARK   10  A    between atoms: S_17  and  C_18
REMARK   11  A    between atoms: N_22  and  C_23
REMARK                            x       y       z     vdW  Elec       q    Type
REMARK                         _______ _______ _______ _____ _____    ______ ____
ROOT
ATOM      1  N   UNL     1       6.940   7.265  17.129  0.00  0.00    +0.000 N 
ATOM      2  C   UNL     1       7.879   7.875  17.932  0.00  0.00    +0.000 C 
ATOM      3  O   UNL     1       8.449   7.304  18.857  0.00  0.00    +0.000 OA
ATOM      4  H   UNL     1       6.462   7.796  16.412  0.00  0.00    +0.000 HD
ENDROOT
BRANCH   1   5
ATOM      5  C   UNL     1       6.617   5.855  17.270  0.00  0.00    +0.000 C 
BRANCH   5   6
ATOM      6  C   UNL     1       5.522   5.325  16.296  0.00  0.00    +0.000 C 
ATOM      7  C   UNL     1       6.168   4.180  15.457  0.00  0.00    +0.000 C 
ATOM      8  C   UNL     1       5.233   6.436  15.256  0.00  0.00    +0.000 C 
BRANCH   6  15
ATOM      9  C   UNL     1       3.480   7.253  17.855  0.00  0.00    +0.000 C 
ATOM     10  C   UNL     1       3.302   5.766  17.683  0.00  0.00    +0.000 A 
ATOM     11  C   UNL     1       2.112   5.246  18.253  0.00  0.00    +0.000 A 
ATOM     12  C   UNL     1       1.787   3.897  18.182  0.00  0.00    +0.000 A 
ATOM     13  C   UNL     1       2.650   3.033  17.539  0.00  0.00    +0.000 A 
ATOM     14  C   UNL     1       3.828   3.523  16.968  0.00  0.00    +0.000 A 
ATOM     15  C   UNL     1       4.203   4.892  17.010  0.00  0.00    +0.000 A 
ENDBRANCH   6  15
ENDBRANCH   5   6
ENDBRANCH   1   5
BRANCH   2  16
ATOM     16  C   UNL     1       8.127   9.325  17.592  0.00  0.00    +0.000 C 
BRANCH  16  17
ATOM     17  C   UNL     1       8.885  10.004  18.728  0.00  0.00    +0.000 C 
BRANCH  17  18
ATOM     18  S   UNL     1       9.991  11.272  18.040  0.00  0.00    +0.000 S 
BRANCH  18  19
ATOM     19  C   UNL     1       8.914  12.615  17.918  0.00  0.00    +0.000 A 
ATOM     20  N   UNL     1       7.757  12.679  17.292  0.00  0.00    +0.000 NA
ATOM     21  N   UNL     1       7.297  13.959  17.497  0.00  0.00    +0.000 NA
ATOM     22  N   UNL     1       8.147  14.667  18.233  0.00  0.00    +0.000 NA
ATOM     23  N   UNL     1       9.164  13.824  18.496  0.00  0.00    +0.000 N 
ATOM     24  C   UNL     1      10.288  14.247  19.286  0.00  0.00    +0.000 C 
ENDBRANCH  18  19
ENDBRANCH  17  18
ENDBRANCH  16  17
ENDBRANCH   2  16
TORSDOF 7
ENDMDL
MODEL 2
REMARK VINA RESULT:      -7.1      1.235      1.658
REMARK  Name = 
REMARK  11 active torsions:
REMARK  status: ('A' for Active; 'I' for Inactive)
REMARK    1  A    between atoms: C_1  and  C_2
REMARK    2  A    between atoms: C_7  and  C_8
REMARK    3  A    between atoms: C_8  and  C_9
REMARK    4  A    between atoms: C_8  and  C_10
REMARK    5  A    between atoms: C_8  and  C_11
REMARK    6  A    between atoms: C_11  and  N_12
REMARK    7  A    between atoms: C_13  and  C_15
REMARK    8  A    between atoms: C_15  and  C_16
REMARK    9  A    between atoms: C_16  and  S_17
REMARK   10  A    between atoms: S_17  and  C_18
REMARK   11  A    between atoms: N_22  and  C_23
REMARK                            x       y       z     vdW  Elec       q    Type
REMARK                         _______ _______ _______ _____ _____    ______ ____
ROOT
ATOM      1  N   UNL     1       7.086   7.196  16.914  0.00  0.00    +0.000 N 
ATOM      2  C   UNL     1       7.867   7.750  17.904  0.00  0.00    +0.000 C 
ATOM      3  O   UNL     1       8.317   7.106  18.847  0.00  0.00    +0.000 OA
ATOM      4  H   UNL     1       6.697   7.782  16.186  0.00  0.00    +0.000 HD
ENDROOT
BRANCH   1   5
ATOM      5  C   UNL     1       6.808   5.770  16.870  0.00  0.00    +0.000 C 
BRANCH   5   6
ATOM      6  C   UNL     1       5.553   5.364  16.040  0.00  0.00    +0.000 C 
ATOM      7  C   UNL     1       6.003   4.256  15.038  0.00  0.00    +0.000 C 
ATOM      8  C   UNL     1       5.176   6.561  15.132  0.00  0.00    +0.000 C 
BRANCH   6  15
ATOM      9  C   UNL     1       3.626   7.325  17.700  0.00  0.00    +0.000 C 
ATOM     10  C   UNL     1       3.479   5.826  17.632  0.00  0.00    +0.000 A 
ATOM     11  C   UNL     1       2.375   5.309  18.355  0.00  0.00    +0.000 A 
ATOM     12  C   UNL     1       2.088   3.950  18.395  0.00  0.00    +0.000 A 
ATOM     13  C   UNL     1       2.906   3.073  17.711  0.00  0.00    +0.000 A 
ATOM     14  C   UNL     1       4.000   3.560  16.990  0.00  0.00    +0.000 A 
ATOM     15  C   UNL     1       4.332   4.939  16.915  0.00  0.00    +0.000 A 
ENDBRANCH   6  15
ENDBRANCH   5   6
ENDBRANCH   1   5
BRANCH   2  16
ATOM     16  C   UNL     1       8.098   9.233  17.744  0.00  0.00    +0.000 C 
BRANCH  16  17
ATOM     17  C   UNL     1       8.982   9.747  18.877  0.00  0.00    +0.000 C 
BRANCH  17  18
ATOM     18  S   UNL     1       9.919  11.193  18.300  0.00  0.00    +0.000 S 
BRANCH  18  19
ATOM     19  C   UNL     1       9.770  12.246  19.659  0.00  0.00    +0.000 A 
ATOM     20  N   UNL     1      10.331  12.130  20.846  0.00  0.00    +0.000 NA
ATOM     21  N   UNL     1       9.902  13.220  21.565  0.00  0.00    +0.000 NA
ATOM     22  N   UNL     1       9.098  13.992  20.841  0.00  0.00    +0.000 NA
ATOM     23  N   UNL     1       9.014  13.380  19.644  0.00  0.00    +0.000 N 
ATOM     24  C   UNL     1       8.219  13.937  18.584  0.00  0.00    +0.000 C 
ENDBRANCH  18  19
ENDBRANCH  17  18
ENDBRANCH  16  17
ENDBRANCH   2  16
TORSDOF 7
ENDMDL
MODEL 3
REMARK VINA RESULT:      -7.1      1.644      2.360
REMARK  Name = 
REMARK  11 active torsions:
REMARK  status: ('A' for Active; 'I' for Inactive)
REMARK    1  A    between atoms: C_1  and  C_2
REMARK    2  A    between atoms: C_7  and  C_8
REMARK    3  A    between atoms: C_8  and  C_9
REMARK    4  A    between atoms: C_8  and  C_10
REMARK    5  A    between atoms: C_8  and  C_11
REMARK    6  A    between atoms: C_11  and  N_12
REMARK    7  A    between atoms: C_13  and  C_15
REMARK    8  A    between atoms: C_15  and  C_16
REMARK    9  A    between atoms: C_16  and  S_17
REMARK   10  A    between atoms: S_17  and  C_18
REMARK   11  A    between atoms: N_22  and  C_23
REMARK                            x       y       z     vdW  Elec       q    Type
REMARK                         _______ _______ _______ _____ _____    ______ ____
ROOT
ATOM      1  N   UNL     1       7.212   7.578  17.037  0.00  0.00    +0.000 N 
ATOM      2  C   UNL     1       8.042   8.071  18.020  0.00  0.00    +0.000 C 
ATOM      3  O   UNL     1       8.530   7.373  18.904  0.00  0.00    +0.000 OA
ATOM      4  H   UNL     1       6.794   8.207  16.362  0.00  0.00    +0.000 HD
ENDROOT
BRANCH   1   5
ATOM      5  C   UNL     1       6.921   6.159  16.925  0.00  0.00    +0.000 C 
BRANCH   5   6
ATOM      6  C   UNL     1       5.464   5.812  16.496  0.00  0.00    +0.000 C 
ATOM      7  C   UNL     1       5.479   4.346  15.963  0.00  0.00    +0.000 C 
ATOM      8  C   UNL     1       5.122   6.662  15.247  0.00  0.00    +0.000 C 
BRANCH   6  15
ATOM      9  C   UNL     1       5.086   4.040  19.148  0.00  0.00    +0.000 C 
ATOM     10  C   UNL     1       4.265   5.255  18.797  0.00  0.00    +0.000 A 
ATOM     11  C   UNL     1       3.287   5.604  19.764  0.00  0.00    +0.000 A 
ATOM     12  C   UNL     1       2.447   6.699  19.604  0.00  0.00    +0.000 A 
ATOM     13  C   UNL     1       2.565   7.473  18.467  0.00  0.00    +0.000 A 
ATOM     14  C   UNL     1       3.522   7.149  17.501  0.00  0.00    +0.000 A 
ATOM     15  C   UNL     1       4.406   6.044  17.620  0.00  0.00    +0.000 A 
ENDBRANCH   6  15
ENDBRANCH   5   6
ENDBRANCH   1   5
BRANCH   2  16
ATOM     16  C   UNL     1       8.277   9.560  17.934  0.00  0.00    +0.000 C 
BRANCH  16  17
ATOM     17  C   UNL     1       9.335   9.980  18.951  0.00  0.00    +0.000 C 
BRANCH  17  18
ATOM     18  S   UNL     1       9.124  11.741  19.344  0.00  0.00    +0.000 S 
BRANCH  18  19
ATOM     19  C   UNL     1      10.339  12.449  18.343  0.00  0.00    +0.000 A 
ATOM     20  N   UNL     1      11.409  11.877  17.830  0.00  0.00    +0.000 NA
ATOM     21  N   UNL     1      12.046  12.861  17.112  0.00  0.00    +0.000 NA
ATOM     22  N   UNL     1      11.384  14.012  17.176  0.00  0.00    +0.000 NA
ATOM     23  N   UNL     1      10.313  13.754  17.951  0.00  0.00    +0.000 N 
ATOM     24  C   UNL     1       9.351  14.781  18.246  0.00  0.00    +0.000 C 
ENDBRANCH  18  19
ENDBRANCH  17  18
ENDBRANCH  16  17
ENDBRANCH   2  16
TORSDOF 7
ENDMDL
MODEL 4
REMARK VINA RESULT:      -7.0      5.407      7.011
REMARK  Name = 
REMARK  11 active torsions:
REMARK  status: ('A' for Active; 'I' for Inactive)
REMARK    1  A    between atoms: C_1  and  C_2
REMARK    2  A    between atoms: C_7  and  C_8
REMARK    3  A    between atoms: C_8  and  C_9
REMARK    4  A    between atoms: C_8  and  C_10
REMARK    5  A    between atoms: C_8  and  C_11
REMARK    6  A    between atoms: C_11  and  N_12
REMARK    7  A    between atoms: C_13  and  C_15
REMARK    8  A    between atoms: C_15  and  C_16
REMARK    9  A    between atoms: C_16  and  S_17
REMARK   10  A    between atoms: S_17  and  C_18
REMARK   11  A    between atoms: N_22  and  C_23
REMARK                            x       y       z     vdW  Elec       q    Type
REMARK                         _______ _______ _______ _____ _____    ______ ____
ROOT
ATOM      1  N   UNL     1       4.590   5.316  19.483  0.00  0.00    +0.000 N 
ATOM      2  C   UNL     1       5.573   4.547  18.901  0.00  0.00    +0.000 C 
ATOM      3  O   UNL     1       5.624   3.325  19.006  0.00  0.00    +0.000 OA
ATOM      4  H   UNL     1       4.623   6.325  19.409  0.00  0.00    +0.000 HD
ENDROOT
BRANCH   1   5
ATOM      5  C   UNL     1       3.477   4.716  20.200  0.00  0.00    +0.000 C 
BRANCH   5   6
ATOM      6  C   UNL     1       2.062   5.145  19.707  0.00  0.00    +0.000 C 
ATOM      7  C   UNL     1       1.030   4.203  20.399  0.00  0.00    +0.000 C 
ATOM      8  C   UNL     1       1.952   4.783  18.205  0.00  0.00    +0.000 C 
BRANCH   6  15
ATOM      9  C   UNL     1       2.858   7.555  17.739  0.00  0.00    +0.000 C 
ATOM     10  C   UNL     1       2.100   7.712  19.034  0.00  0.00    +0.000 A 
ATOM     11  C   UNL     1       1.718   9.044  19.334  0.00  0.00    +0.000 A 
ATOM     12  C   UNL     1       1.008   9.368  20.484  0.00  0.00    +0.000 A 
ATOM     13  C   UNL     1       0.666   8.362  21.365  0.00  0.00    +0.000 A 
ATOM     14  C   UNL     1       1.031   7.042  21.089  0.00  0.00    +0.000 A 
ATOM     15  C   UNL     1       1.752   6.659  19.927  0.00  0.00    +0.000 A 
ENDBRANCH   6  15
ENDBRANCH   5   6
ENDBRANCH   1   5
BRANCH   2  16
ATOM     16  C   UNL     1       6.607   5.345  18.143  0.00  0.00    +0.000 C 
BRANCH  16  17
ATOM     17  C   UNL     1       7.248   4.476  17.066  0.00  0.00    +0.000 C 
BRANCH  17  18
ATOM     18  S   UNL     1       6.051   4.199  15.727  0.00  0.00    +0.000 S 
BRANCH  18  19
ATOM     19  C   UNL     1       6.963   4.721  14.357  0.00  0.00    +0.000 A 
ATOM     20  N   UNL     1       7.962   5.578  14.322  0.00  0.00    +0.000 NA
ATOM     21  N   UNL     1       8.344   5.646  13.002  0.00  0.00    +0.000 NA
ATOM     22  N   UNL     1       7.601   4.847  12.242  0.00  0.00    +0.000 NA
ATOM     23  N   UNL     1       6.733   4.267  13.093  0.00  0.00    +0.000 N 
ATOM     24  C   UNL     1       5.757   3.322  12.622  0.00  0.00    +0.000 C 
ENDBRANCH  18  19
ENDBRANCH  17  18
ENDBRANCH  16  17
ENDBRANCH   2  16
TORSDOF 7
ENDMDL
MODEL 5
REMARK VINA RESULT:      -7.0      5.345      8.200
REMARK  Name = 
REMARK  11 active torsions:
REMARK  status: ('A' for Active; 'I' for Inactive)
REMARK    1  A    between atoms: C_1  and  C_2
REMARK    2  A    between atoms: C_7  and  C_8
REMARK    3  A    between atoms: C_8  and  C_9
REMARK    4  A    between atoms: C_8  and  C_10
REMARK    5  A    between atoms: C_8  and  C_11
REMARK    6  A    between atoms: C_11  and  N_12
REMARK    7  A    between atoms: C_13  and  C_15
REMARK    8  A    between atoms: C_15  and  C_16
REMARK    9  A    between atoms: C_16  and  S_17
REMARK   10  A    between atoms: S_17  and  C_18
REMARK   11  A    between atoms: N_22  and  C_23
REMARK                            x       y       z     vdW  Elec       q    Type
REMARK                         _______ _______ _______ _____ _____    ______ ____
ROOT
ATOM      1  N   UNL     1       1.471   8.994  19.039  0.00  0.00    +0.000 N 
ATOM      2  C   UNL     1       2.288   8.181  18.283  0.00  0.00    +0.000 C 
ATOM      3  O   UNL     1       2.630   8.449  17.135  0.00  0.00    +0.000 OA
ATOM      4  H   UNL     1       1.177   8.701  19.962  0.00  0.00    +0.000 HD
ENDROOT
BRANCH   1   5
ATOM      5  C   UNL     1       1.023  10.288  18.553  0.00  0.00    +0.000 C 
BRANCH   5   6
ATOM      6  C   UNL     1      -0.213  10.883  19.293  0.00  0.00    +0.000 C 
ATOM      7  C   UNL     1       0.177  12.321  19.753  0.00  0.00    +0.000 C 
ATOM      8  C   UNL     1      -0.395  10.100  20.618  0.00  0.00    +0.000 C 
BRANCH   6  15
ATOM      9  C   UNL     1      -2.916  12.503  19.911  0.00  0.00    +0.000 C 
ATOM     10  C   UNL     1      -2.711  11.583  18.734  0.00  0.00    +0.000 A 
ATOM     11  C   UNL     1      -3.824  11.489  17.859  0.00  0.00    +0.000 A 
ATOM     12  C   UNL     1      -3.805  10.691  16.722  0.00  0.00    +0.000 A 
ATOM     13  C   UNL     1      -2.668   9.963  16.434  0.00  0.00    +0.000 A 
ATOM     14  C   UNL     1      -1.559  10.040  17.281  0.00  0.00    +0.000 A 
ATOM     15  C   UNL     1      -1.527  10.843  18.452  0.00  0.00    +0.000 A 
ENDBRANCH   6  15
ENDBRANCH   5   6
ENDBRANCH   1   5
BRANCH   2  16
ATOM     16  C   UNL     1       2.703   6.908  18.982  0.00  0.00    +0.000 C 
BRANCH  16  17
ATOM     17  C   UNL     1       3.344   5.951  17.982  0.00  0.00    +0.000 C 
BRANCH  17  18
ATOM     18  S   UNL     1       4.850   5.242  18.712  0.00  0.00    +0.000 S 
BRANCH  18  19
ATOM     19  C   UNL     1       6.045   5.779  17.588  0.00  0.00    +0.000 A 
ATOM     20  N   UNL     1       6.815   6.845  17.664  0.00  0.00    +0.000 NA
ATOM     21  N   UNL     1       7.590   6.821  16.528  0.00  0.00    +0.000 NA
ATOM     22  N   UNL     1       7.308   5.766  15.771  0.00  0.00    +0.000 NA
ATOM     23  N   UNL     1       6.336   5.112  16.436  0.00  0.00    +0.000 N 
ATOM     24  C   UNL     1       5.772   3.898  15.912  0.00  0.00    +0.000 C 
ENDBRANCH  18  19
ENDBRANCH  17  18
ENDBRANCH  16  17
ENDBRANCH   2  16
TORSDOF 7
ENDMDL
MODEL 6
REMARK VINA RESULT:      -6.9      5.389      6.655
REMARK  Name = 
REMARK  11 active torsions:
REMARK  status: ('A' for Active; 'I' for Inactive)
REMARK    1  A    between atoms: C_1  and  C_2
REMARK    2  A    between atoms: C_7  and  C_8
REMARK    3  A    between atoms: C_8  and  C_9
REMARK    4  A    between atoms: C_8  and  C_10
REMARK    5  A    between atoms: C_8  and  C_11
REMARK    6  A    between atoms: C_11  and  N_12
REMARK    7  A    between atoms: C_13  and  C_15
REMARK    8  A    between atoms: C_15  and  C_16
REMARK    9  A    between atoms: C_16  and  S_17
REMARK   10  A    between atoms: S_17  and  C_18
REMARK   11  A    between atoms: N_22  and  C_23
REMARK                            x       y       z     vdW  Elec       q    Type
REMARK                         _______ _______ _______ _____ _____    ______ ____
ROOT
ATOM      1  N   UNL     1       5.530   3.519  18.433  0.00  0.00    +0.000 N 
ATOM      2  C   UNL     1       6.210   4.632  18.876  0.00  0.00    +0.000 C 
ATOM      3  O   UNL     1       5.804   5.356  19.780  0.00  0.00    +0.000 OA
ATOM      4  H   UNL     1       5.885   2.985  17.649  0.00  0.00    +0.000 HD
ENDROOT
BRANCH   1   5
ATOM      5  C   UNL     1       4.307   3.068  19.075  0.00  0.00    +0.000 C 
BRANCH   5   6
ATOM      6  C   UNL     1       2.988   3.608  18.442  0.00  0.00    +0.000 C 
ATOM      7  C   UNL     1       1.882   2.541  18.707  0.00  0.00    +0.000 C 
ATOM      8  C   UNL     1       3.161   3.597  16.903  0.00  0.00    +0.000 C 
BRANCH   6  15
ATOM      9  C   UNL     1       2.067   4.406  21.414  0.00  0.00    +0.000 C 
ATOM     10  C   UNL     1       2.203   5.372  20.264  0.00  0.00    +0.000 A 
ATOM     11  C   UNL     1       1.912   6.721  20.590  0.00  0.00    +0.000 A 
ATOM     12  C   UNL     1       1.992   7.742  19.652  0.00  0.00    +0.000 A 
ATOM     13  C   UNL     1       2.364   7.436  18.359  0.00  0.00    +0.000 A 
ATOM     14  C   UNL     1       2.657   6.113  18.014  0.00  0.00    +0.000 A 
ATOM     15  C   UNL     1       2.593   5.035  18.936  0.00  0.00    +0.000 A 
ENDBRANCH   6  15
ENDBRANCH   5   6
ENDBRANCH   1   5
BRANCH   2  16
ATOM     16  C   UNL     1       7.494   4.904  18.128  0.00  0.00    +0.000 C 
BRANCH  16  17
ATOM     17  C   UNL     1       7.381   4.388  16.697  0.00  0.00    +0.000 C 
BRANCH  17  18
ATOM     18  S   UNL     1       6.503   5.615  15.684  0.00  0.00    +0.000 S 
BRANCH  18  19
ATOM     19  C   UNL     1       7.024   5.167  14.100  0.00  0.00    +0.000 A 
ATOM     20  N   UNL     1       8.015   5.671  13.395  0.00  0.00    +0.000 NA
ATOM     21  N   UNL     1       8.018   4.972  12.210  0.00  0.00    +0.000 NA
ATOM     22  N   UNL     1       7.054   4.057  12.186  0.00  0.00    +0.000 NA
ATOM     23  N   UNL     1       6.429   4.180  13.372  0.00  0.00    +0.000 N 
ATOM     24  C   UNL     1       5.315   3.337  13.711  0.00  0.00    +0.000 C 
ENDBRANCH  18  19
ENDBRANCH  17  18
ENDBRANCH  16  17
ENDBRANCH   2  16
TORSDOF 7
ENDMDL
MODEL 7
REMARK VINA RESULT:      -6.8      4.963      7.749
REMARK  Name = 
REMARK  11 active torsions:
REMARK  status: ('A' for Active; 'I' for Inactive)
REMARK    1  A    between atoms: C_1  and  C_2
REMARK    2  A    between atoms: C_7  and  C_8
REMARK    3  A    between atoms: C_8  and  C_9
REMARK    4  A    between atoms: C_8  and  C_10
REMARK    5  A    between atoms: C_8  and  C_11
REMARK    6  A    between atoms: C_11  and  N_12
REMARK    7  A    between atoms: C_13  and  C_15
REMARK    8  A    between atoms: C_15  and  C_16
REMARK    9  A    between atoms: C_16  and  S_17
REMARK   10  A    between atoms: S_17  and  C_18
REMARK   11  A    between atoms: N_22  and  C_23
REMARK                            x       y       z     vdW  Elec       q    Type
REMARK                         _______ _______ _______ _____ _____    ______ ____
ROOT
ATOM      1  N   UNL     1       1.743   8.306  18.776  0.00  0.00    +0.000 N 
ATOM      2  C   UNL     1       2.780   7.506  18.348  0.00  0.00    +0.000 C 
ATOM      3  O   UNL     1       3.439   7.739  17.339  0.00  0.00    +0.000 OA
ATOM      4  H   UNL     1       1.198   8.041  19.587  0.00  0.00    +0.000 HD
ENDROOT
BRANCH   1   5
ATOM      5  C   UNL     1       1.408   9.548  18.100  0.00  0.00    +0.000 C 
BRANCH   5   6
ATOM      6  C   UNL     1       0.546  10.544  18.932  0.00  0.00    +0.000 C 
ATOM      7  C   UNL     1       1.299  11.910  18.938  0.00  0.00    +0.000 C 
ATOM      8  C   UNL     1       0.585  10.086  20.411  0.00  0.00    +0.000 C 
BRANCH   6  15
ATOM      9  C   UNL     1      -1.689  12.553  20.069  0.00  0.00    +0.000 C 
ATOM     10  C   UNL     1      -1.902  11.571  18.943  0.00  0.00    +0.000 A 
ATOM     11  C   UNL     1      -3.199  11.605  18.371  0.00  0.00    +0.000 A 
ATOM     12  C   UNL     1      -3.565  10.773  17.320  0.00  0.00    +0.000 A 
ATOM     13  C   UNL     1      -2.639   9.881  16.818  0.00  0.00    +0.000 A 
ATOM     14  C   UNL     1      -1.354   9.830  17.366  0.00  0.00    +0.000 A 
ATOM     15  C   UNL     1      -0.930  10.662  18.437  0.00  0.00    +0.000 A 
ENDBRANCH   6  15
ENDBRANCH   5   6
ENDBRANCH   1   5
BRANCH   2  16
ATOM     16  C   UNL     1       3.018   6.294  19.216  0.00  0.00    +0.000 C 
BRANCH  16  17
ATOM     17  C   UNL     1       3.816   5.249  18.442  0.00  0.00    +0.000 C 
BRANCH  17  18
ATOM     18  S   UNL     1       5.551   5.299  18.980  0.00  0.00    +0.000 S 
BRANCH  18  19
ATOM     19  C   UNL     1       6.367   5.250  17.460  0.00  0.00    +0.000 A 
ATOM     20  N   UNL     1       6.446   4.249  16.608  0.00  0.00    +0.000 NA
ATOM     21  N   UNL     1       7.201   4.717  15.558  0.00  0.00    +0.000 NA
ATOM     22  N   UNL     1       7.576   5.977  15.754  0.00  0.00    +0.000 NA
ATOM     23  N   UNL     1       7.054   6.312  16.949  0.00  0.00    +0.000 N 
ATOM     24  C   UNL     1       7.253   7.624  17.500  0.00  0.00    +0.000 C 
ENDBRANCH  18  19
ENDBRANCH  17  18
ENDBRANCH  16  17
ENDBRANCH   2  16
TORSDOF 7
ENDMDL
MODEL 8
REMARK VINA RESULT:      -6.8      5.415      8.162
REMARK  Name = 
REMARK  11 active torsions:
REMARK  status: ('A' for Active; 'I' for Inactive)
REMARK    1  A    between atoms: C_1  and  C_2
REMARK    2  A    between atoms: C_7  and  C_8
REMARK    3  A    between atoms: C_8  and  C_9
REMARK    4  A    between atoms: C_8  and  C_10
REMARK    5  A    between atoms: C_8  and  C_11
REMARK    6  A    between atoms: C_11  and  N_12
REMARK    7  A    between atoms: C_13  and  C_15
REMARK    8  A    between atoms: C_15  and  C_16
REMARK    9  A    between atoms: C_16  and  S_17
REMARK   10  A    between atoms: S_17  and  C_18
REMARK   11  A    between atoms: N_22  and  C_23
REMARK                            x       y       z     vdW  Elec       q    Type
REMARK                         _______ _______ _______ _____ _____    ______ ____
ROOT
ATOM      1  N   UNL     1       1.774   8.055  18.374  0.00  0.00    +0.000 N 
ATOM      2  C   UNL     1       2.958   7.411  18.089  0.00  0.00    +0.000 C 
ATOM      3  O   UNL     1       3.796   7.855  17.310  0.00  0.00    +0.000 OA
ATOM      4  H   UNL     1       1.093   7.620  18.985  0.00  0.00    +0.000 HD
ENDROOT
BRANCH   1   5
ATOM      5  C   UNL     1       1.470   9.368  17.831  0.00  0.00    +0.000 C 
BRANCH   5   6
ATOM      6  C   UNL     1       0.689  10.318  18.789  0.00  0.00    +0.000 C 
ATOM      7  C   UNL     1       1.487  11.656  18.860  0.00  0.00    +0.000 C 
ATOM      8  C   UNL     1       0.796   9.739  20.222  0.00  0.00    +0.000 C 
BRANCH   6  15
ATOM      9  C   UNL     1      -1.404  12.304  20.200  0.00  0.00    +0.000 C 
ATOM     10  C   UNL     1      -1.716  11.417  19.021  0.00  0.00    +0.000 A 
ATOM     11  C   UNL     1      -3.042  11.534  18.530  0.00  0.00    +0.000 A 
ATOM     12  C   UNL     1      -3.497  10.794  17.446  0.00  0.00    +0.000 A 
ATOM     13  C   UNL     1      -2.633   9.914  16.827  0.00  0.00    +0.000 A 
ATOM     14  C   UNL     1      -1.321   9.782  17.292  0.00  0.00    +0.000 A 
ATOM     15  C   UNL     1      -0.808  10.518  18.393  0.00  0.00    +0.000 A 
ENDBRANCH   6  15
ENDBRANCH   5   6
ENDBRANCH   1   5
BRANCH   2  16
ATOM     16  C   UNL     1       3.123   6.088  18.798  0.00  0.00    +0.000 C 
BRANCH  16  17
ATOM     17  C   UNL     1       3.117   4.949  17.783  0.00  0.00    +0.000 C 
BRANCH  17  18
ATOM     18  S   UNL     1       4.109   3.568  18.425  0.00  0.00    +0.000 S 
BRANCH  18  19
ATOM     19  C   UNL     1       5.705   4.205  18.262  0.00  0.00    +0.000 A 
ATOM     20  N   UNL     1       6.490   4.688  19.202  0.00  0.00    +0.000 NA
ATOM     21  N   UNL     1       7.649   5.060  18.561  0.00  0.00    +0.000 NA
ATOM     22  N   UNL     1       7.581   4.809  17.257  0.00  0.00    +0.000 NA
ATOM     23  N   UNL     1       6.360   4.274  17.069  0.00  0.00    +0.000 N 
ATOM     24  C   UNL     1       5.926   3.869  15.760  0.00  0.00    +0.000 C 
ENDBRANCH  18  19
ENDBRANCH  17  18
ENDBRANCH  16  17
ENDBRANCH   2  16
TORSDOF 7
ENDMDL
MODEL 9
REMARK VINA RESULT:      -6.8      5.542      7.103
REMARK  Name = 
REMARK  11 active torsions:
REMARK  status: ('A' for Active; 'I' for Inactive)
REMARK    1  A    between atoms: C_1  and  C_2
REMARK    2  A    between atoms: C_7  and  C_8
REMARK    3  A    between atoms: C_8  and  C_9
REMARK    4  A    between atoms: C_8  and  C_10
REMARK    5  A    between atoms: C_8  and  C_11
REMARK    6  A    between atoms: C_11  and  N_12
REMARK    7  A    between atoms: C_13  and  C_15
REMARK    8  A    between atoms: C_15  and  C_16
REMARK    9  A    between atoms: C_16  and  S_17
REMARK   10  A    between atoms: S_17  and  C_18
REMARK   11  A    between atoms: N_22  and  C_23
REMARK                            x       y       z     vdW  Elec       q    Type
REMARK                         _______ _______ _______ _____ _____    ______ ____
ROOT
ATOM      1  N   UNL     1       2.988   6.779  18.580  0.00  0.00    +0.000 N 
ATOM      2  C   UNL     1       2.165   7.722  19.154  0.00  0.00    +0.000 C 
ATOM      3  O   UNL     1       1.779   7.662  20.318  0.00  0.00    +0.000 OA
ATOM      4  H   UNL     1       3.235   6.848  17.600  0.00  0.00    +0.000 HD
ENDROOT
BRANCH   1   5
ATOM      5  C   UNL     1       3.538   5.675  19.350  0.00  0.00    +0.000 C 
BRANCH   5   6
ATOM      6  C   UNL     1       3.796   4.367  18.543  0.00  0.00    +0.000 C 
ATOM      7  C   UNL     1       2.446   3.967  17.872  0.00  0.00    +0.000 C 
ATOM      8  C   UNL     1       4.065   3.228  19.558  0.00  0.00    +0.000 C 
BRANCH   6  15
ATOM      9  C   UNL     1       6.772   5.392  19.185  0.00  0.00    +0.000 C 
ATOM     10  C   UNL     1       6.294   4.922  17.834  0.00  0.00    +0.000 A 
ATOM     11  C   UNL     1       7.286   4.934  16.821  0.00  0.00    +0.000 A 
ATOM     12  C   UNL     1       7.019   4.526  15.520  0.00  0.00    +0.000 A 
ATOM     13  C   UNL     1       5.747   4.099  15.200  0.00  0.00    +0.000 A 
ATOM     14  C   UNL     1       4.752   4.078  16.182  0.00  0.00    +0.000 A 
ATOM     15  C   UNL     1       4.976   4.480  17.526  0.00  0.00    +0.000 A 
ENDBRANCH   6  15
ENDBRANCH   5   6
ENDBRANCH   1   5
BRANCH   2  16
ATOM     16  C   UNL     1       1.750   8.828  18.213  0.00  0.00    +0.000 C 
BRANCH  16  17
ATOM     17  C   UNL     1       1.470  10.104  19.001  0.00  0.00    +0.000 C 
BRANCH  17  18
ATOM     18  S   UNL     1      -0.326  10.361  19.110  0.00  0.00    +0.000 S 
BRANCH  18  19
ATOM     19  C   UNL     1      -0.476  10.951  20.725  0.00  0.00    +0.000 A 
ATOM     20  N   UNL     1       0.275  10.669  21.770  0.00  0.00    +0.000 NA
ATOM     21  N   UNL     1      -0.255  11.392  22.812  0.00  0.00    +0.000 NA
ATOM     22  N   UNL     1      -1.306  12.106  22.420  0.00  0.00    +0.000 NA
ATOM     23  N   UNL     1      -1.446  11.828  21.110  0.00  0.00    +0.000 N 
ATOM     24  C   UNL     1      -2.496  12.431  20.335  0.00  0.00    +0.000 C 
ENDBRANCH  18  19
ENDBRANCH  17  18
ENDBRANCH  16  17
ENDBRANCH   2  16
TORSDOF 7
ENDMDL
