MODEL 1
REMARK VINA RESULT:      -7.7      0.000      0.000
REMARK  Name = 
REMARK  8 active torsions:
REMARK  status: ('A' for Active; 'I' for Inactive)
REMARK    1  A    between atoms: C_1  and  C_2
REMARK    2  A    between atoms: N_6  and  C_7
REMARK    3  A    between atoms: C_7  and  C_8
REMARK    4  A    between atoms: C_7  and  C_9
REMARK    5  A    between atoms: C_9  and  C_10
REMARK    6  A    between atoms: C_12  and  C_13
REMARK    7  A    between atoms: N_17  and  C_18
REMARK    8  A    between atoms: C_18  and  C_19
REMARK                            x       y       z     vdW  Elec       q    Type
REMARK                         _______ _______ _______ _____ _____    ______ ____
ROOT
ATOM      1  C   UNL     1       3.924   6.527  17.759  0.00  0.00    +0.000 A 
ATOM      2  N   UNL     1       4.981   7.308  17.694  0.00  0.00    +0.000 NA
ATOM      3  C   UNL     1       6.030   6.455  17.489  0.00  0.00    +0.000 A 
ATOM      4  N   UNL     1       5.686   5.164  17.459  0.00  0.00    +0.000 NA
ATOM      5  N   UNL     1       4.343   5.215  17.658  0.00  0.00    +0.000 N 
ENDROOT
BRANCH   3   6
ATOM      6  C   UNL     1       7.424   7.030  17.266  0.00  0.00    +0.000 C 
ATOM      7  C   UNL     1       7.765   8.462  17.615  0.00  0.00    +0.000 C 
ATOM      8  C   UNL     1       8.286   7.357  18.468  0.00  0.00    +0.000 C 
ENDBRANCH   3   6
BRANCH   1   9
ATOM      9  C   UNL     1       2.536   7.009  18.031  0.00  0.00    +0.000 C 
BRANCH   9  10
ATOM     10  C   UNL     1       2.286   7.619  19.433  0.00  0.00    +0.000 C 
ATOM     11  C   UNL     1       1.658   6.661  20.445  0.00  0.00    +0.000 C 
BRANCH  10  17
ATOM     12  C   UNL     1       1.084   9.255  21.821  0.00  0.00    +0.000 C 
ATOM     13  C   UNL     1       0.929   9.579  20.379  0.00  0.00    +0.000 A 
ATOM     14  N   UNL     1       0.244  10.609  19.920  0.00  0.00    +0.000 NA
ATOM     15  C   UNL     1       0.254  10.494  18.560  0.00  0.00    +0.000 A 
ATOM     16  C   UNL     1       0.967   9.386  18.177  0.00  0.00    +0.000 A 
ATOM     17  N   UNL     1       1.445   8.829  19.339  0.00  0.00    +0.000 N 
ENDBRANCH  10  17
ENDBRANCH   9  10
ENDBRANCH   1   9
BRANCH   5  18
ATOM     18  C   UNL     1       3.541   4.005  17.490  0.00  0.00    +0.000 C 
BRANCH  18  19
ATOM     19  C   UNL     1       2.749   3.580  18.702  0.00  0.00    +0.000 A 
ATOM     20  C   UNL     1       1.348   3.667  18.677  0.00  0.00    +0.000 A 
ATOM     21  F   UNL     1       0.727   4.141  17.591  0.00  0.00    +0.000 F 
ATOM     22  C   UNL     1       0.544   3.221  19.730  0.00  0.00    +0.000 A 
ATOM     23  C   UNL     1       1.135   2.649  20.849  0.00  0.00    +0.000 A 
ATOM     24  C   UNL     1       2.523   2.541  20.905  0.00  0.00    +0.000 A 
ATOM     25  C   UNL     1       3.323   3.006  19.847  0.00  0.00    +0.000 A 
ATOM     26 CL   UNL     1       5.028   2.775  19.998  0.00  0.00    +0.000 Cl
ENDBRANCH  18  19
ENDBRANCH   5  18
TORSDOF 6
ENDMDL
MODEL 2
REMARK VINA RESULT:      -7.7      1.467      1.741
REMARK  Name = 
REMARK  8 active torsions:
REMARK  status: ('A' for Active; 'I' for Inactive)
REMARK    1  A    between atoms: C_1  and  C_2
REMARK    2  A    between atoms: N_6  and  C_7
REMARK    3  A    between atoms: C_7  and  C_8
REMARK    4  A    between atoms: C_7  and  C_9
REMARK    5  A    between atoms: C_9  and  C_10
REMARK    6  A    between atoms: C_12  and  C_13
REMARK    7  A    between atoms: N_17  and  C_18
REMARK    8  A    between atoms: C_18  and  C_19
REMARK                            x       y       z     vdW  Elec       q    Type
REMARK                         _______ _______ _______ _____ _____    ______ ____
ROOT
ATOM      1  C   UNL     1       4.071   6.160  17.903  0.00  0.00    +0.000 A 
ATOM      2  N   UNL     1       5.079   7.003  17.818  0.00  0.00    +0.000 NA
ATOM      3  C   UNL     1       6.177   6.213  17.621  0.00  0.00    +0.000 A 
ATOM      4  N   UNL     1       5.912   4.903  17.614  0.00  0.00    +0.000 NA
ATOM      5  N   UNL     1       4.569   4.874  17.821  0.00  0.00    +0.000 N 
ENDROOT
BRANCH   3   6
ATOM      6  C   UNL     1       7.532   6.868  17.380  0.00  0.00    +0.000 C 
ATOM      7  C   UNL     1       7.755   8.348  17.596  0.00  0.00    +0.000 C 
ATOM      8  C   UNL     1       8.326   7.374  18.567  0.00  0.00    +0.000 C 
ENDBRANCH   3   6
BRANCH   1   9
ATOM      9  C   UNL     1       2.658   6.561  18.176  0.00  0.00    +0.000 C 
BRANCH   9  10
ATOM     10  C   UNL     1       2.394   7.258  19.533  0.00  0.00    +0.000 C 
ATOM     11  C   UNL     1       1.658   6.400  20.562  0.00  0.00    +0.000 C 
BRANCH  10  17
ATOM     12  C   UNL     1       1.110   9.034  21.775  0.00  0.00    +0.000 C 
ATOM     13  C   UNL     1       1.098   9.328  20.318  0.00  0.00    +0.000 A 
ATOM     14  N   UNL     1       0.524  10.387  19.780  0.00  0.00    +0.000 NA
ATOM     15  C   UNL     1       0.639  10.234  18.429  0.00  0.00    +0.000 A 
ATOM     16  C   UNL     1       1.306   9.072  18.132  0.00  0.00    +0.000 A 
ATOM     17  N   UNL     1       1.647   8.518  19.342  0.00  0.00    +0.000 N 
ENDBRANCH  10  17
ENDBRANCH   9  10
ENDBRANCH   1   9
BRANCH   5  18
ATOM     18  C   UNL     1       3.842   3.615  17.677  0.00  0.00    +0.000 C 
BRANCH  18  19
ATOM     19  C   UNL     1       2.981   3.227  18.854  0.00  0.00    +0.000 A 
ATOM     20  C   UNL     1       3.590   2.830  20.054  0.00  0.00    +0.000 A 
ATOM     21  F   UNL     1       4.924   2.779  20.142  0.00  0.00    +0.000 F 
ATOM     22  C   UNL     1       2.861   2.531  21.209  0.00  0.00    +0.000 A 
ATOM     23  C   UNL     1       1.477   2.642  21.194  0.00  0.00    +0.000 A 
ATOM     24  C   UNL     1       0.839   3.041  20.021  0.00  0.00    +0.000 A 
ATOM     25  C   UNL     1       1.581   3.324  18.861  0.00  0.00    +0.000 A 
ATOM     26 CL   UNL     1       0.693   3.860  17.480  0.00  0.00    +0.000 Cl
ENDBRANCH  18  19
ENDBRANCH   5  18
TORSDOF 6
ENDMDL
MODEL 3
REMARK VINA RESULT:      -7.7      2.252      5.960
REMARK  Name = 
REMARK  8 active torsions:
REMARK  status: ('A' for Active; 'I' for Inactive)
REMARK    1  A    between atoms: C_1  and  C_2
REMARK    2  A    between atoms: N_6  and  C_7
REMARK    3  A    between atoms: C_7  and  C_8
REMARK    4  A    between atoms: C_7  and  C_9
REMARK    5  A    between atoms: C_9  and  C_10
REMARK    6  A    between atoms: C_12  and  C_13
REMARK    7  A    between atoms: N_17  and  C_18
REMARK    8  A    between atoms: C_18  and  C_19
REMARK                            x       y       z     vdW  Elec       q    Type
REMARK                         _______ _______ _______ _____ _____    ______ ____
ROOT
ATOM      1  C   UNL     1       2.783   5.898  19.805  0.00  0.00    +0.000 A 
ATOM      2  N   UNL     1       1.953   6.863  19.470  0.00  0.00    +0.000 NA
ATOM      3  C   UNL     1       2.540   7.468  18.394  0.00  0.00    +0.000 A 
ATOM      4  N   UNL     1       3.725   6.951  18.055  0.00  0.00    +0.000 NA
ATOM      5  N   UNL     1       3.887   5.965  18.977  0.00  0.00    +0.000 N 
ENDROOT
BRANCH   3   6
ATOM      6  C   UNL     1       1.798   8.589  17.674  0.00  0.00    +0.000 C 
ATOM      7  C   UNL     1       0.820   9.491  18.391  0.00  0.00    +0.000 C 
ATOM      8  C   UNL     1       2.151  10.028  17.992  0.00  0.00    +0.000 C 
ENDBRANCH   3   6
BRANCH   1   9
ATOM      9  C   UNL     1       2.591   4.989  20.974  0.00  0.00    +0.000 C 
BRANCH   9  10
ATOM     10  C   UNL     1       1.896   3.636  20.682  0.00  0.00    +0.000 C 
ATOM     11  C   UNL     1       1.301   2.944  21.909  0.00  0.00    +0.000 C 
BRANCH  10  17
ATOM     12  C   UNL     1       1.344   2.009  18.061  0.00  0.00    +0.000 C 
ATOM     13  C   UNL     1       2.608   1.997  18.842  0.00  0.00    +0.000 A 
ATOM     14  N   UNL     1       3.668   1.278  18.527  0.00  0.00    +0.000 NA
ATOM     15  C   UNL     1       4.564   1.460  19.540  0.00  0.00    +0.000 A 
ATOM     16  C   UNL     1       4.054   2.315  20.484  0.00  0.00    +0.000 A 
ATOM     17  N   UNL     1       2.823   2.701  20.012  0.00  0.00    +0.000 N 
ENDBRANCH  10  17
ENDBRANCH   9  10
ENDBRANCH   1   9
BRANCH   5  18
ATOM     18  C   UNL     1       4.982   5.010  18.828  0.00  0.00    +0.000 C 
BRANCH  18  19
ATOM     19  C   UNL     1       5.605   4.949  17.455  0.00  0.00    +0.000 A 
ATOM     20  C   UNL     1       4.896   4.353  16.401  0.00  0.00    +0.000 A 
ATOM     21  F   UNL     1       3.685   3.829  16.622  0.00  0.00    +0.000 F 
ATOM     22  C   UNL     1       5.373   4.326  15.087  0.00  0.00    +0.000 A 
ATOM     23  C   UNL     1       6.590   4.924  14.788  0.00  0.00    +0.000 A 
ATOM     24  C   UNL     1       7.319   5.532  15.810  0.00  0.00    +0.000 A 
ATOM     25  C   UNL     1       6.836   5.539  17.130  0.00  0.00    +0.000 A 
ATOM     26 CL   UNL     1       7.795   6.364  18.305  0.00  0.00    +0.000 Cl
ENDBRANCH  18  19
ENDBRANCH   5  18
TORSDOF 6
ENDMDL
MODEL 4
REMARK VINA RESULT:      -7.6      2.235      5.787
REMARK  Name = 
REMARK  8 active torsions:
REMARK  status: ('A' for Active; 'I' for Inactive)
REMARK    1  A    between atoms: C_1  and  C_2
REMARK    2  A    between atoms: N_6  and  C_7
REMARK    3  A    between atoms: C_7  and  C_8
REMARK    4  A    between atoms: C_7  and  C_9
REMARK    5  A    between atoms: C_9  and  C_10
REMARK    6  A    between atoms: C_12  and  C_13
REMARK    7  A    between atoms: N_17  and  C_18
REMARK    8  A    between atoms: C_18  and  C_19
REMARK                            x       y       z     vdW  Elec       q    Type
REMARK                         _______ _______ _______ _____ _____    ______ ____
ROOT
ATOM      1  C   UNL     1       2.820   5.904  19.674  0.00  0.00    +0.000 A 
ATOM      2  N   UNL     1       2.024   6.902  19.352  0.00  0.00    +0.000 NA
ATOM      3  C   UNL     1       2.624   7.491  18.274  0.00  0.00    +0.000 A 
ATOM      4  N   UNL     1       3.786   6.932  17.923  0.00  0.00    +0.000 NA
ATOM      5  N   UNL     1       3.919   5.936  18.837  0.00  0.00    +0.000 N 
ENDROOT
BRANCH   3   6
ATOM      6  C   UNL     1       1.918   8.643  17.568  0.00  0.00    +0.000 C 
ATOM      7  C   UNL     1       0.812   9.432  18.231  0.00  0.00    +0.000 C 
ATOM      8  C   UNL     1       2.152  10.059  18.054  0.00  0.00    +0.000 C 
ENDBRANCH   3   6
BRANCH   1   9
ATOM      9  C   UNL     1       2.604   4.996  20.840  0.00  0.00    +0.000 C 
BRANCH   9  10
ATOM     10  C   UNL     1       1.639   3.805  20.610  0.00  0.00    +0.000 C 
ATOM     11  C   UNL     1       1.365   2.955  21.850  0.00  0.00    +0.000 C 
BRANCH  10  17
ATOM     12  C   UNL     1       4.313   2.170  20.604  0.00  0.00    +0.000 C 
ATOM     13  C   UNL     1       3.296   2.177  19.521  0.00  0.00    +0.000 A 
ATOM     14  N   UNL     1       3.402   1.491  18.400  0.00  0.00    +0.000 NA
ATOM     15  C   UNL     1       2.330   1.849  17.635  0.00  0.00    +0.000 A 
ATOM     16  C   UNL     1       1.545   2.756  18.301  0.00  0.00    +0.000 A 
ATOM     17  N   UNL     1       2.135   2.927  19.531  0.00  0.00    +0.000 N 
ENDBRANCH  10  17
ENDBRANCH   9  10
ENDBRANCH   1   9
BRANCH   5  18
ATOM     18  C   UNL     1       4.977   4.941  18.674  0.00  0.00    +0.000 C 
BRANCH  18  19
ATOM     19  C   UNL     1       5.659   4.938  17.327  0.00  0.00    +0.000 A 
ATOM     20  C   UNL     1       4.997   4.387  16.219  0.00  0.00    +0.000 A 
ATOM     21  F   UNL     1       3.778   3.854  16.366  0.00  0.00    +0.000 F 
ATOM     22  C   UNL     1       5.530   4.416  14.928  0.00  0.00    +0.000 A 
ATOM     23  C   UNL     1       6.758   5.026  14.707  0.00  0.00    +0.000 A 
ATOM     24  C   UNL     1       7.441   5.590  15.784  0.00  0.00    +0.000 A 
ATOM     25  C   UNL     1       6.901   5.542  17.081  0.00  0.00    +0.000 A 
ATOM     26 CL   UNL     1       7.807   6.317  18.331  0.00  0.00    +0.000 Cl
ENDBRANCH  18  19
ENDBRANCH   5  18
TORSDOF 6
ENDMDL
MODEL 5
REMARK VINA RESULT:      -7.5      1.982      5.642
REMARK  Name = 
REMARK  8 active torsions:
REMARK  status: ('A' for Active; 'I' for Inactive)
REMARK    1  A    between atoms: C_1  and  C_2
REMARK    2  A    between atoms: N_6  and  C_7
REMARK    3  A    between atoms: C_7  and  C_8
REMARK    4  A    between atoms: C_7  and  C_9
REMARK    5  A    between atoms: C_9  and  C_10
REMARK    6  A    between atoms: C_12  and  C_13
REMARK    7  A    between atoms: N_17  and  C_18
REMARK    8  A    between atoms: C_18  and  C_19
REMARK                            x       y       z     vdW  Elec       q    Type
REMARK                         _______ _______ _______ _____ _____    ______ ____
ROOT
ATOM      1  C   UNL     1       3.352   7.708  17.625  0.00  0.00    +0.000 A 
ATOM      2  N   UNL     1       2.597   8.780  17.510  0.00  0.00    +0.000 NA
ATOM      3  C   UNL     1       1.740   8.718  18.573  0.00  0.00    +0.000 A 
ATOM      4  N   UNL     1       1.896   7.632  19.336  0.00  0.00    +0.000 NA
ATOM      5  N   UNL     1       2.909   6.978  18.710  0.00  0.00    +0.000 N 
ENDROOT
BRANCH   3   6
ATOM      6  C   UNL     1       0.769   9.867  18.815  0.00  0.00    +0.000 C 
ATOM      7  C   UNL     1      -0.152   9.898  20.014  0.00  0.00    +0.000 C 
ATOM      8  C   UNL     1       1.021  10.814  19.971  0.00  0.00    +0.000 C 
ENDBRANCH   3   6
BRANCH   1   9
ATOM      9  C   UNL     1       4.411   7.315  16.648  0.00  0.00    +0.000 C 
BRANCH   9  10
ATOM     10  C   UNL     1       5.760   6.849  17.252  0.00  0.00    +0.000 C 
ATOM     11  C   UNL     1       6.815   7.947  17.383  0.00  0.00    +0.000 C 
BRANCH  10  17
ATOM     12  C   UNL     1       7.851   4.738  18.250  0.00  0.00    +0.000 C 
ATOM     13  C   UNL     1       7.230   4.777  16.901  0.00  0.00    +0.000 A 
ATOM     14  N   UNL     1       7.497   3.917  15.937  0.00  0.00    +0.000 NA
ATOM     15  C   UNL     1       6.815   4.355  14.839  0.00  0.00    +0.000 A 
ATOM     16  C   UNL     1       6.107   5.492  15.135  0.00  0.00    +0.000 A 
ATOM     17  N   UNL     1       6.330   5.733  16.470  0.00  0.00    +0.000 N 
ENDBRANCH  10  17
ENDBRANCH   9  10
ENDBRANCH   1   9
BRANCH   5  18
ATOM     18  C   UNL     1       3.530   5.822  19.354  0.00  0.00    +0.000 C 
BRANCH  18  19
ATOM     19  C   UNL     1       2.681   4.575  19.403  0.00  0.00    +0.000 A 
ATOM     20  C   UNL     1       1.855   4.345  20.514  0.00  0.00    +0.000 A 
ATOM     21  F   UNL     1       1.838   5.219  21.526  0.00  0.00    +0.000 F 
ATOM     22  C   UNL     1       0.985   3.255  20.596  0.00  0.00    +0.000 A 
ATOM     23  C   UNL     1       0.907   2.358  19.538  0.00  0.00    +0.000 A 
ATOM     24  C   UNL     1       1.708   2.560  18.416  0.00  0.00    +0.000 A 
ATOM     25  C   UNL     1       2.591   3.652  18.350  0.00  0.00    +0.000 A 
ATOM     26 CL   UNL     1       3.499   3.833  16.892  0.00  0.00    +0.000 Cl
ENDBRANCH  18  19
ENDBRANCH   5  18
TORSDOF 6
ENDMDL
MODEL 6
REMARK VINA RESULT:      -7.4      0.523      1.141
REMARK  Name = 
REMARK  8 active torsions:
REMARK  status: ('A' for Active; 'I' for Inactive)
REMARK    1  A    between atoms: C_1  and  C_2
REMARK    2  A    between atoms: N_6  and  C_7
REMARK    3  A    between atoms: C_7  and  C_8
REMARK    4  A    between atoms: C_7  and  C_9
REMARK    5  A    between atoms: C_9  and  C_10
REMARK    6  A    between atoms: C_12  and  C_13
REMARK    7  A    between atoms: N_17  and  C_18
REMARK    8  A    between atoms: C_18  and  C_19
REMARK                            x       y       z     vdW  Elec       q    Type
REMARK                         _______ _______ _______ _____ _____    ______ ____
ROOT
ATOM      1  C   UNL     1       3.902   6.562  17.834  0.00  0.00    +0.000 A 
ATOM      2  N   UNL     1       4.954   7.352  17.801  0.00  0.00    +0.000 NA
ATOM      3  C   UNL     1       5.992   6.534  17.454  0.00  0.00    +0.000 A 
ATOM      4  N   UNL     1       5.649   5.251  17.303  0.00  0.00    +0.000 NA
ATOM      5  N   UNL     1       4.317   5.271  17.573  0.00  0.00    +0.000 N 
ENDROOT
BRANCH   3   6
ATOM      6  C   UNL     1       7.372   7.139  17.225  0.00  0.00    +0.000 C 
ATOM      7  C   UNL     1       7.706   8.553  17.643  0.00  0.00    +0.000 C 
ATOM      8  C   UNL     1       8.264   7.411  18.420  0.00  0.00    +0.000 C 
ENDBRANCH   3   6
BRANCH   1   9
ATOM      9  C   UNL     1       2.529   7.002  18.225  0.00  0.00    +0.000 C 
BRANCH   9  10
ATOM     10  C   UNL     1       2.342   7.428  19.703  0.00  0.00    +0.000 C 
ATOM     11  C   UNL     1       1.904   6.305  20.643  0.00  0.00    +0.000 C 
BRANCH  10  17
ATOM     12  C   UNL     1       2.100   9.891  17.779  0.00  0.00    +0.000 C 
ATOM     13  C   UNL     1       1.238   9.621  18.959  0.00  0.00    +0.000 A 
ATOM     14  N   UNL     1       0.255  10.406  19.354  0.00  0.00    +0.000 NA
ATOM     15  C   UNL     1      -0.211   9.872  20.520  0.00  0.00    +0.000 A 
ATOM     16  C   UNL     1       0.485   8.734  20.839  0.00  0.00    +0.000 A 
ATOM     17  N   UNL     1       1.378   8.543  19.812  0.00  0.00    +0.000 N 
ENDBRANCH  10  17
ENDBRANCH   9  10
ENDBRANCH   1   9
BRANCH   5  18
ATOM     18  C   UNL     1       3.510   4.080  17.315  0.00  0.00    +0.000 C 
BRANCH  18  19
ATOM     19  C   UNL     1       2.697   3.584  18.486  0.00  0.00    +0.000 A 
ATOM     20  C   UNL     1       1.296   3.627  18.421  0.00  0.00    +0.000 A 
ATOM     21  F   UNL     1       0.692   4.120  17.334  0.00  0.00    +0.000 F 
ATOM     22  C   UNL     1       0.476   3.116  19.431  0.00  0.00    +0.000 A 
ATOM     23  C   UNL     1       1.052   2.522  20.547  0.00  0.00    +0.000 A 
ATOM     24  C   UNL     1       2.441   2.457  20.642  0.00  0.00    +0.000 A 
ATOM     25  C   UNL     1       3.256   2.988  19.626  0.00  0.00    +0.000 A 
ATOM     26 CL   UNL     1       4.962   2.807  19.823  0.00  0.00    +0.000 Cl
ENDBRANCH  18  19
ENDBRANCH   5  18
TORSDOF 6
ENDMDL
MODEL 7
REMARK VINA RESULT:      -7.3      2.045      4.751
REMARK  Name = 
REMARK  8 active torsions:
REMARK  status: ('A' for Active; 'I' for Inactive)
REMARK    1  A    between atoms: C_1  and  C_2
REMARK    2  A    between atoms: N_6  and  C_7
REMARK    3  A    between atoms: C_7  and  C_8
REMARK    4  A    between atoms: C_7  and  C_9
REMARK    5  A    between atoms: C_9  and  C_10
REMARK    6  A    between atoms: C_12  and  C_13
REMARK    7  A    between atoms: N_17  and  C_18
REMARK    8  A    between atoms: C_18  and  C_19
REMARK                            x       y       z     vdW  Elec       q    Type
REMARK                         _______ _______ _______ _____ _____    ______ ____
ROOT
ATOM      1  C   UNL     1       2.279   6.698  19.405  0.00  0.00    +0.000 A 
ATOM      2  N   UNL     1       1.537   5.684  19.799  0.00  0.00    +0.000 NA
ATOM      3  C   UNL     1       1.912   4.646  18.991  0.00  0.00    +0.000 A 
ATOM      4  N   UNL     1       2.833   4.969  18.078  0.00  0.00    +0.000 NA
ATOM      5  N   UNL     1       3.044   6.288  18.331  0.00  0.00    +0.000 N 
ENDROOT
BRANCH   3   6
ATOM      6  C   UNL     1       1.315   3.264  19.232  0.00  0.00    +0.000 C 
ATOM      7  C   UNL     1       2.130   2.001  19.067  0.00  0.00    +0.000 C 
ATOM      8  C   UNL     1       1.771   2.465  20.436  0.00  0.00    +0.000 C 
ENDBRANCH   3   6
BRANCH   1   9
ATOM      9  C   UNL     1       2.183   8.079  19.965  0.00  0.00    +0.000 C 
BRANCH   9  10
ATOM     10  C   UNL     1       1.083   8.988  19.361  0.00  0.00    +0.000 C 
ATOM     11  C   UNL     1       1.348   9.445  17.926  0.00  0.00    +0.000 C 
BRANCH  10  17
ATOM     12  C   UNL     1      -0.310   9.057  22.167  0.00  0.00    +0.000 C 
ATOM     13  C   UNL     1       0.273  10.224  21.457  0.00  0.00    +0.000 A 
ATOM     14  N   UNL     1       0.265  11.457  21.925  0.00  0.00    +0.000 NA
ATOM     15  C   UNL     1       0.792  12.240  20.939  0.00  0.00    +0.000 A 
ATOM     16  C   UNL     1       1.142  11.477  19.855  0.00  0.00    +0.000 A 
ATOM     17  N   UNL     1       0.860  10.178  20.206  0.00  0.00    +0.000 N 
ENDBRANCH  10  17
ENDBRANCH   9  10
ENDBRANCH   1   9
BRANCH   5  18
ATOM     18  C   UNL     1       4.148   6.981  17.671  0.00  0.00    +0.000 C 
BRANCH  18  19
ATOM     19  C   UNL     1       5.186   6.089  17.035  0.00  0.00    +0.000 A 
ATOM     20  C   UNL     1       5.357   6.113  15.643  0.00  0.00    +0.000 A 
ATOM     21  F   UNL     1       4.591   6.909  14.889  0.00  0.00    +0.000 F 
ATOM     22  C   UNL     1       6.347   5.374  14.989  0.00  0.00    +0.000 A 
ATOM     23  C   UNL     1       7.219   4.589  15.733  0.00  0.00    +0.000 A 
ATOM     24  C   UNL     1       7.082   4.547  17.119  0.00  0.00    +0.000 A 
ATOM     25  C   UNL     1       6.073   5.283  17.764  0.00  0.00    +0.000 A 
ATOM     26 CL   UNL     1       6.028   5.198  19.489  0.00  0.00    +0.000 Cl
ENDBRANCH  18  19
ENDBRANCH   5  18
TORSDOF 6
ENDMDL
MODEL 8
REMARK VINA RESULT:      -7.3      1.665      5.534
REMARK  Name = 
REMARK  8 active torsions:
REMARK  status: ('A' for Active; 'I' for Inactive)
REMARK    1  A    between atoms: C_1  and  C_2
REMARK    2  A    between atoms: N_6  and  C_7
REMARK    3  A    between atoms: C_7  and  C_8
REMARK    4  A    between atoms: C_7  and  C_9
REMARK    5  A    between atoms: C_9  and  C_10
REMARK    6  A    between atoms: C_12  and  C_13
REMARK    7  A    between atoms: N_17  and  C_18
REMARK    8  A    between atoms: C_18  and  C_19
REMARK                            x       y       z     vdW  Elec       q    Type
REMARK                         _______ _______ _______ _____ _____    ______ ____
ROOT
ATOM      1  C   UNL     1       3.018   6.947  18.220  0.00  0.00    +0.000 A 
ATOM      2  N   UNL     1       2.539   8.126  17.885  0.00  0.00    +0.000 NA
ATOM      3  C   UNL     1       1.838   8.540  18.983  0.00  0.00    +0.000 A 
ATOM      4  N   UNL     1       1.822   7.656  19.986  0.00  0.00    +0.000 NA
ATOM      5  N   UNL     1       2.556   6.630  19.482  0.00  0.00    +0.000 N 
ENDROOT
BRANCH   3   6
ATOM      6  C   UNL     1       1.214   9.931  18.987  0.00  0.00    +0.000 C 
ATOM      7  C   UNL     1      -0.146  10.200  18.385  0.00  0.00    +0.000 C 
ATOM      8  C   UNL     1       0.009  10.195  19.866  0.00  0.00    +0.000 C 
ENDBRANCH   3   6
BRANCH   1   9
ATOM      9  C   UNL     1       3.815   6.071  17.308  0.00  0.00    +0.000 C 
BRANCH   9  10
ATOM     10  C   UNL     1       5.125   6.678  16.748  0.00  0.00    +0.000 C 
ATOM     11  C   UNL     1       5.184   6.779  15.224  0.00  0.00    +0.000 C 
BRANCH  10  17
ATOM     12  C   UNL     1       6.295   4.059  15.484  0.00  0.00    +0.000 C 
ATOM     13  C   UNL     1       6.848   4.779  16.661  0.00  0.00    +0.000 A 
ATOM     14  N   UNL     1       7.912   4.391  17.336  0.00  0.00    +0.000 NA
ATOM     15  C   UNL     1       8.025   5.247  18.392  0.00  0.00    +0.000 A 
ATOM     16  C   UNL     1       7.024   6.185  18.359  0.00  0.00    +0.000 A 
ATOM     17  N   UNL     1       6.301   5.919  17.220  0.00  0.00    +0.000 N 
ENDBRANCH  10  17
ENDBRANCH   9  10
ENDBRANCH   1   9
BRANCH   5  18
ATOM     18  C   UNL     1       2.954   5.529  20.357  0.00  0.00    +0.000 C 
BRANCH  18  19
ATOM     19  C   UNL     1       2.483   4.160  19.931  0.00  0.00    +0.000 A 
ATOM     20  C   UNL     1       1.110   3.871  19.934  0.00  0.00    +0.000 A 
ATOM     21  F   UNL     1       0.232   4.799  20.330  0.00  0.00    +0.000 F 
ATOM     22  C   UNL     1       0.592   2.654  19.481  0.00  0.00    +0.000 A 
ATOM     23  C   UNL     1       1.454   1.684  18.986  0.00  0.00    +0.000 A 
ATOM     24  C   UNL     1       2.824   1.941  18.962  0.00  0.00    +0.000 A 
ATOM     25  C   UNL     1       3.335   3.162  19.435  0.00  0.00    +0.000 A 
ATOM     26 CL   UNL     1       5.042   3.393  19.310  0.00  0.00    +0.000 Cl
ENDBRANCH  18  19
ENDBRANCH   5  18
TORSDOF 6
ENDMDL
MODEL 9
REMARK VINA RESULT:      -7.3      2.372      5.956
REMARK  Name = 
REMARK  8 active torsions:
REMARK  status: ('A' for Active; 'I' for Inactive)
REMARK    1  A    between atoms: C_1  and  C_2
REMARK    2  A    between atoms: N_6  and  C_7
REMARK    3  A    between atoms: C_7  and  C_8
REMARK    4  A    between atoms: C_7  and  C_9
REMARK    5  A    between atoms: C_9  and  C_10
REMARK    6  A    between atoms: C_12  and  C_13
REMARK    7  A    between atoms: N_17  and  C_18
REMARK    8  A    between atoms: C_18  and  C_19
REMARK                            x       y       z     vdW  Elec       q    Type
REMARK                         _______ _______ _______ _____ _____    ______ ____
ROOT
ATOM      1  C   UNL     1       3.057   7.031  18.554  0.00  0.00    +0.000 A 
ATOM      2  N   UNL     1       2.156   7.890  18.980  0.00  0.00    +0.000 NA
ATOM      3  C   UNL     1       2.137   8.874  18.031  0.00  0.00    +0.000 A 
ATOM      4  N   UNL     1       3.015   8.692  17.040  0.00  0.00    +0.000 NA
ATOM      5  N   UNL     1       3.618   7.527  17.393  0.00  0.00    +0.000 N 
ENDROOT
BRANCH   3   6
ATOM      6  C   UNL     1       1.123  10.006  18.151  0.00  0.00    +0.000 C 
ATOM      7  C   UNL     1      -0.365   9.762  18.042  0.00  0.00    +0.000 C 
ATOM      8  C   UNL     1       0.229  10.066  19.374  0.00  0.00    +0.000 C 
ENDBRANCH   3   6
BRANCH   1   9
ATOM      9  C   UNL     1       3.470   5.804  19.299  0.00  0.00    +0.000 C 
BRANCH   9  10
ATOM     10  C   UNL     1       2.796   4.479  18.862  0.00  0.00    +0.000 C 
ATOM     11  C   UNL     1       1.583   4.649  17.949  0.00  0.00    +0.000 C 
BRANCH  10  17
ATOM     12  C   UNL     1       4.481   2.232  20.253  0.00  0.00    +0.000 C 
ATOM     13  C   UNL     1       3.138   2.703  20.681  0.00  0.00    +0.000 A 
ATOM     14  N   UNL     1       2.475   2.215  21.711  0.00  0.00    +0.000 NA
ATOM     15  C   UNL     1       1.257   2.830  21.702  0.00  0.00    +0.000 A 
ATOM     16  C   UNL     1       1.175   3.719  20.660  0.00  0.00    +0.000 A 
ATOM     17  N   UNL     1       2.399   3.677  20.037  0.00  0.00    +0.000 N 
ENDBRANCH  10  17
ENDBRANCH   9  10
ENDBRANCH   1   9
BRANCH   5  18
ATOM     18  C   UNL     1       4.517   6.864  16.451  0.00  0.00    +0.000 C 
BRANCH  18  19
ATOM     19  C   UNL     1       5.775   6.287  17.054  0.00  0.00    +0.000 A 
ATOM     20  C   UNL     1       6.696   7.142  17.678  0.00  0.00    +0.000 A 
ATOM     21  F   UNL     1       6.465   8.459  17.720  0.00  0.00    +0.000 F 
ATOM     22  C   UNL     1       7.844   6.674  18.325  0.00  0.00    +0.000 A 
ATOM     23  C   UNL     1       8.092   5.309  18.378  0.00  0.00    +0.000 A 
ATOM     24  C   UNL     1       7.194   4.430  17.775  0.00  0.00    +0.000 A 
ATOM     25  C   UNL     1       6.051   4.913  17.114  0.00  0.00    +0.000 A 
ATOM     26 CL   UNL     1       4.981   3.733  16.446  0.00  0.00    +0.000 Cl
ENDBRANCH  18  19
ENDBRANCH   5  18
TORSDOF 6
ENDMDL
