MODEL 1
REMARK VINA RESULT:      -8.4      0.000      0.000
REMARK  Name = 
REMARK  5 active torsions:
REMARK  status: ('A' for Active; 'I' for Inactive)
REMARK    1  A    between atoms: C_6  and  N_7
REMARK    2  A    between atoms: N_7  and  C_8
REMARK    3  A    between atoms: N_7  and  C_18
REMARK    4  A    between atoms: C_8  and  C_9
REMARK    5  A    between atoms: C_18  and  C_19
REMARK                            x       y       z     vdW  Elec       q    Type
REMARK                         _______ _______ _______ _____ _____    ______ ____
ROOT
ATOM      1  N   UNL     1       3.734   5.903  17.985  0.00  0.00    +0.000 NA
ENDROOT
BRANCH   1   7
ATOM      2  O   UNL     1       8.067   4.251  17.145  0.00  0.00    +0.000 OA
ATOM      3  S   UNL     1       7.160   4.844  16.182  0.00  0.00    +0.000 S 
ATOM      4  O   UNL     1       7.639   5.471  14.969  0.00  0.00    +0.000 OA
ATOM      5  C   UNL     1       5.926   3.630  15.764  0.00  0.00    +0.000 C 
ATOM      6  C   UNL     1       4.599   4.125  16.324  0.00  0.00    +0.000 C 
ATOM      7  C   UNL     1       4.883   5.124  17.467  0.00  0.00    +0.000 C 
ATOM      8  C   UNL     1       6.087   5.973  17.033  0.00  0.00    +0.000 C 
ENDBRANCH   1   7
BRANCH   1   9
ATOM      9  C   UNL     1       3.615   7.315  17.538  0.00  0.00    +0.000 C 
BRANCH   9  10
ATOM     10  C   UNL     1       2.535   8.157  18.155  0.00  0.00    +0.000 A 
ATOM     11  N   UNL     1       1.820   9.114  17.587  0.00  0.00    +0.000 NA
ATOM     12  C   UNL     1       0.991   9.549  18.591  0.00  0.00    +0.000 A 
ATOM     13  C   UNL     1      -0.018  10.519  18.596  0.00  0.00    +0.000 A 
ATOM     14  C   UNL     1      -0.661  10.798  19.812  0.00  0.00    +0.000 A 
ATOM     15  C   UNL     1      -0.317  10.112  20.984  0.00  0.00    +0.000 A 
ATOM     16  C   UNL     1       0.657   9.104  20.982  0.00  0.00    +0.000 A 
ATOM     17  C   UNL     1       1.276   8.863  19.761  0.00  0.00    +0.000 A 
ATOM     18  O   UNL     1       2.254   7.948  19.484  0.00  0.00    +0.000 OA
ENDBRANCH   9  10
ENDBRANCH   1   9
BRANCH   1  19
ATOM     19  C   UNL     1       2.433   5.214  17.915  0.00  0.00    +0.000 C 
BRANCH  19  20
ATOM     20  C   UNL     1       2.163   4.320  19.102  0.00  0.00    +0.000 A 
ATOM     21  C   UNL     1       1.897   4.673  20.412  0.00  0.00    +0.000 A 
ATOM     22  C   UNL     1       1.692   3.539  21.253  0.00  0.00    +0.000 A 
ATOM     23  C   UNL     1       1.800   2.357  20.558  0.00  0.00    +0.000 A 
ATOM     24  S   UNL     1       2.121   2.614  18.901  0.00  0.00    +0.000 S 
ENDBRANCH  19  20
ENDBRANCH   1  19
TORSDOF 5
ENDMDL
MODEL 2
REMARK VINA RESULT:      -8.1      0.718      1.231
REMARK  Name = 
REMARK  5 active torsions:
REMARK  status: ('A' for Active; 'I' for Inactive)
REMARK    1  A    between atoms: C_6  and  N_7
REMARK    2  A    between atoms: N_7  and  C_8
REMARK    3  A    between atoms: N_7  and  C_18
REMARK    4  A    between atoms: C_8  and  C_9
REMARK    5  A    between atoms: C_18  and  C_19
REMARK                            x       y       z     vdW  Elec       q    Type
REMARK                         _______ _______ _______ _____ _____    ______ ____
ROOT
ATOM      1  N   UNL     1       3.488   5.863  18.047  0.00  0.00    +0.000 NA
ENDROOT
BRANCH   1   7
ATOM      2  O   UNL     1       7.930   4.451  17.350  0.00  0.00    +0.000 OA
ATOM      3  S   UNL     1       7.042   5.047  16.370  0.00  0.00    +0.000 S 
ATOM      4  O   UNL     1       7.548   5.752  15.213  0.00  0.00    +0.000 OA
ATOM      5  C   UNL     1       5.889   3.800  15.837  0.00  0.00    +0.000 C 
ATOM      6  C   UNL     1       4.515   4.206  16.353  0.00  0.00    +0.000 C 
ATOM      7  C   UNL     1       4.696   5.162  17.551  0.00  0.00    +0.000 C 
ATOM      8  C   UNL     1       5.878   6.084  17.217  0.00  0.00    +0.000 C 
ENDBRANCH   1   7
BRANCH   1   9
ATOM      9  C   UNL     1       3.307   7.278  17.633  0.00  0.00    +0.000 C 
BRANCH   9  10
ATOM     10  C   UNL     1       2.362   8.128  18.433  0.00  0.00    +0.000 A 
ATOM     11  N   UNL     1       2.040   8.012  19.710  0.00  0.00    +0.000 NA
ATOM     12  C   UNL     1       1.145   9.032  19.921  0.00  0.00    +0.000 A 
ATOM     13  C   UNL     1       0.479   9.447  21.080  0.00  0.00    +0.000 A 
ATOM     14  C   UNL     1      -0.445  10.498  20.971  0.00  0.00    +0.000 A 
ATOM     15  C   UNL     1      -0.679  11.128  19.742  0.00  0.00    +0.000 A 
ATOM     16  C   UNL     1       0.017  10.754  18.584  0.00  0.00    +0.000 A 
ATOM     17  C   UNL     1       0.917   9.704  18.731  0.00  0.00    +0.000 A 
ATOM     18  O   UNL     1       1.714   9.144  17.772  0.00  0.00    +0.000 OA
ENDBRANCH   9  10
ENDBRANCH   1   9
BRANCH   1  19
ATOM     19  C   UNL     1       2.231   5.106  17.910  0.00  0.00    +0.000 C 
BRANCH  19  20
ATOM     20  C   UNL     1       1.947   4.198  19.082  0.00  0.00    +0.000 A 
ATOM     21  C   UNL     1       1.461   4.523  20.335  0.00  0.00    +0.000 A 
ATOM     22  C   UNL     1       1.323   3.382  21.181  0.00  0.00    +0.000 A 
ATOM     23  C   UNL     1       1.698   2.222  20.545  0.00  0.00    +0.000 A 
ATOM     24  S   UNL     1       2.191   2.504  18.934  0.00  0.00    +0.000 S 
ENDBRANCH  19  20
ENDBRANCH   1  19
TORSDOF 5
ENDMDL
MODEL 3
REMARK VINA RESULT:      -8.0      1.158      1.523
REMARK  Name = 
REMARK  5 active torsions:
REMARK  status: ('A' for Active; 'I' for Inactive)
REMARK    1  A    between atoms: C_6  and  N_7
REMARK    2  A    between atoms: N_7  and  C_8
REMARK    3  A    between atoms: N_7  and  C_18
REMARK    4  A    between atoms: C_8  and  C_9
REMARK    5  A    between atoms: C_18  and  C_19
REMARK                            x       y       z     vdW  Elec       q    Type
REMARK                         _______ _______ _______ _____ _____    ______ ____
ROOT
ATOM      1  N   UNL     1       3.366   6.407  18.312  0.00  0.00    +0.000 NA
ENDROOT
BRANCH   1   7
ATOM      2  O   UNL     1       7.744   6.983  16.666  0.00  0.00    +0.000 OA
ATOM      3  S   UNL     1       7.015   5.734  16.783  0.00  0.00    +0.000 S 
ATOM      4  O   UNL     1       7.324   4.590  15.953  0.00  0.00    +0.000 OA
ATOM      5  C   UNL     1       7.041   5.238  18.494  0.00  0.00    +0.000 C 
ATOM      6  C   UNL     1       5.616   5.353  19.018  0.00  0.00    +0.000 C 
ATOM      7  C   UNL     1       4.834   6.337  18.121  0.00  0.00    +0.000 C 
ATOM      8  C   UNL     1       5.278   6.079  16.674  0.00  0.00    +0.000 C 
ENDBRANCH   1   7
BRANCH   1   9
ATOM      9  C   UNL     1       2.683   7.652  17.875  0.00  0.00    +0.000 C 
BRANCH   9  10
ATOM     10  C   UNL     1       1.867   8.398  18.891  0.00  0.00    +0.000 A 
ATOM     11  N   UNL     1       1.106   9.464  18.705  0.00  0.00    +0.000 NA
ATOM     12  C   UNL     1       0.598   9.731  19.952  0.00  0.00    +0.000 A 
ATOM     13  C   UNL     1      -0.297  10.714  20.390  0.00  0.00    +0.000 A 
ATOM     14  C   UNL     1      -0.584  10.783  21.763  0.00  0.00    +0.000 A 
ATOM     15  C   UNL     1      -0.005   9.882  22.666  0.00  0.00    +0.000 A 
ATOM     16  C   UNL     1       0.855   8.863  22.234  0.00  0.00    +0.000 A 
ATOM     17  C   UNL     1       1.119   8.833  20.869  0.00  0.00    +0.000 A 
ATOM     18  O   UNL     1       1.920   7.956  20.191  0.00  0.00    +0.000 OA
ENDBRANCH   9  10
ENDBRANCH   1   9
BRANCH   1  19
ATOM     19  C   UNL     1       2.624   5.213  17.869  0.00  0.00    +0.000 C 
BRANCH  19  20
ATOM     20  C   UNL     1       2.212   4.307  19.004  0.00  0.00    +0.000 A 
ATOM     21  C   UNL     1       1.466   4.608  20.128  0.00  0.00    +0.000 A 
ATOM     22  C   UNL     1       1.281   3.480  20.982  0.00  0.00    +0.000 A 
ATOM     23  C   UNL     1       1.884   2.351  20.478  0.00  0.00    +0.000 A 
ATOM     24  S   UNL     1       2.646   2.645  18.978  0.00  0.00    +0.000 S 
ENDBRANCH  19  20
ENDBRANCH   1  19
TORSDOF 5
ENDMDL
MODEL 4
REMARK VINA RESULT:      -7.9      1.362      1.948
REMARK  Name = 
REMARK  5 active torsions:
REMARK  status: ('A' for Active; 'I' for Inactive)
REMARK    1  A    between atoms: C_6  and  N_7
REMARK    2  A    between atoms: N_7  and  C_8
REMARK    3  A    between atoms: N_7  and  C_18
REMARK    4  A    between atoms: C_8  and  C_9
REMARK    5  A    between atoms: C_18  and  C_19
REMARK                            x       y       z     vdW  Elec       q    Type
REMARK                         _______ _______ _______ _____ _____    ______ ____
ROOT
ATOM      1  N   UNL     1       3.210   6.387  18.405  0.00  0.00    +0.000 NA
ENDROOT
BRANCH   1   7
ATOM      2  O   UNL     1       7.440   6.553  16.336  0.00  0.00    +0.000 OA
ATOM      3  S   UNL     1       6.661   5.366  16.628  0.00  0.00    +0.000 S 
ATOM      4  O   UNL     1       6.830   4.139  15.881  0.00  0.00    +0.000 OA
ATOM      5  C   UNL     1       6.818   5.016  18.368  0.00  0.00    +0.000 C 
ATOM      6  C   UNL     1       5.456   5.261  19.002  0.00  0.00    +0.000 C 
ATOM      7  C   UNL     1       4.648   6.212  18.093  0.00  0.00    +0.000 C 
ATOM      8  C   UNL     1       4.941   5.805  16.642  0.00  0.00    +0.000 C 
ENDBRANCH   1   7
BRANCH   1   9
ATOM      9  C   UNL     1       2.616   7.724  18.144  0.00  0.00    +0.000 C 
BRANCH   9  10
ATOM     10  C   UNL     1       1.863   8.387  19.261  0.00  0.00    +0.000 A 
ATOM     11  N   UNL     1       1.736   7.984  20.514  0.00  0.00    +0.000 NA
ATOM     12  C   UNL     1       0.952   8.949  21.095  0.00  0.00    +0.000 A 
ATOM     13  C   UNL     1       0.501   9.099  22.412  0.00  0.00    +0.000 A 
ATOM     14  C   UNL     1      -0.358  10.171  22.699  0.00  0.00    +0.000 A 
ATOM     15  C   UNL     1      -0.738  11.077  21.701  0.00  0.00    +0.000 A 
ATOM     16  C   UNL     1      -0.255  10.967  20.390  0.00  0.00    +0.000 A 
ATOM     17  C   UNL     1       0.587   9.888  20.144  0.00  0.00    +0.000 A 
ATOM     18  O   UNL     1       1.188   9.547  18.964  0.00  0.00    +0.000 OA
ENDBRANCH   9  10
ENDBRANCH   1   9
BRANCH   1  19
ATOM     19  C   UNL     1       2.331   5.312  17.909  0.00  0.00    +0.000 C 
BRANCH  19  20
ATOM     20  C   UNL     1       1.952   4.309  18.973  0.00  0.00    +0.000 A 
ATOM     21  C   UNL     1       1.550   4.536  20.276  0.00  0.00    +0.000 A 
ATOM     22  C   UNL     1       1.274   3.327  20.982  0.00  0.00    +0.000 A 
ATOM     23  C   UNL     1       1.465   2.216  20.193  0.00  0.00    +0.000 A 
ATOM     24  S   UNL     1       1.950   2.630  18.609  0.00  0.00    +0.000 S 
ENDBRANCH  19  20
ENDBRANCH   1  19
TORSDOF 5
ENDMDL
MODEL 5
REMARK VINA RESULT:      -7.8      1.559      2.057
REMARK  Name = 
REMARK  5 active torsions:
REMARK  status: ('A' for Active; 'I' for Inactive)
REMARK    1  A    between atoms: C_6  and  N_7
REMARK    2  A    between atoms: N_7  and  C_8
REMARK    3  A    between atoms: N_7  and  C_18
REMARK    4  A    between atoms: C_8  and  C_9
REMARK    5  A    between atoms: C_18  and  C_19
REMARK                            x       y       z     vdW  Elec       q    Type
REMARK                         _______ _______ _______ _____ _____    ______ ____
ROOT
ATOM      1  N   UNL     1       3.324   6.166  18.480  0.00  0.00    +0.000 NA
ENDROOT
BRANCH   1   7
ATOM      2  O   UNL     1       7.613   4.287  17.949  0.00  0.00    +0.000 OA
ATOM      3  S   UNL     1       7.302   5.653  18.322  0.00  0.00    +0.000 S 
ATOM      4  O   UNL     1       8.232   6.471  19.069  0.00  0.00    +0.000 OA
ATOM      5  C   UNL     1       6.806   6.528  16.852  0.00  0.00    +0.000 C 
ATOM      6  C   UNL     1       5.325   6.851  16.997  0.00  0.00    +0.000 C 
ATOM      7  C   UNL     1       4.700   5.871  18.014  0.00  0.00    +0.000 C 
ATOM      8  C   UNL     1       5.726   5.674  19.139  0.00  0.00    +0.000 C 
ENDBRANCH   1   7
BRANCH   1   9
ATOM      9  C   UNL     1       2.750   7.485  18.109  0.00  0.00    +0.000 C 
BRANCH   9  10
ATOM     10  C   UNL     1       1.963   8.226  19.151  0.00  0.00    +0.000 A 
ATOM     11  N   UNL     1       1.797   7.913  20.426  0.00  0.00    +0.000 NA
ATOM     12  C   UNL     1       0.996   8.917  20.912  0.00  0.00    +0.000 A 
ATOM     13  C   UNL     1       0.504   9.159  22.200  0.00  0.00    +0.000 A 
ATOM     14  C   UNL     1      -0.363  10.248  22.382  0.00  0.00    +0.000 A 
ATOM     15  C   UNL     1      -0.711  11.080  21.310  0.00  0.00    +0.000 A 
ATOM     16  C   UNL     1      -0.188  10.877  20.026  0.00  0.00    +0.000 A 
ATOM     17  C   UNL     1       0.661   9.784  19.885  0.00  0.00    +0.000 A 
ATOM     18  O   UNL     1       1.298   9.361  18.752  0.00  0.00    +0.000 OA
ENDBRANCH   9  10
ENDBRANCH   1   9
BRANCH   1  19
ATOM     19  C   UNL     1       2.348   5.083  18.260  0.00  0.00    +0.000 C 
BRANCH  19  20
ATOM     20  C   UNL     1       2.119   4.226  19.482  0.00  0.00    +0.000 A 
ATOM     21  C   UNL     1       2.380   4.516  20.808  0.00  0.00    +0.000 A 
ATOM     22  C   UNL     1       2.024   3.447  21.683  0.00  0.00    +0.000 A 
ATOM     23  C   UNL     1       1.495   2.377  20.999  0.00  0.00    +0.000 A 
ATOM     24  S   UNL     1       1.407   2.671  19.318  0.00  0.00    +0.000 S 
ENDBRANCH  19  20
ENDBRANCH   1  19
TORSDOF 5
ENDMDL
MODEL 6
REMARK VINA RESULT:      -7.6      1.420      1.865
REMARK  Name = 
REMARK  5 active torsions:
REMARK  status: ('A' for Active; 'I' for Inactive)
REMARK    1  A    between atoms: C_6  and  N_7
REMARK    2  A    between atoms: N_7  and  C_8
REMARK    3  A    between atoms: N_7  and  C_18
REMARK    4  A    between atoms: C_8  and  C_9
REMARK    5  A    between atoms: C_18  and  C_19
REMARK                            x       y       z     vdW  Elec       q    Type
REMARK                         _______ _______ _______ _____ _____    ______ ____
ROOT
ATOM      1  N   UNL     1       3.708   5.516  18.165  0.00  0.00    +0.000 NA
ENDROOT
BRANCH   1   7
ATOM      2  O   UNL     1       8.176   4.126  17.603  0.00  0.00    +0.000 OA
ATOM      3  S   UNL     1       7.694   5.171  18.485  0.00  0.00    +0.000 S 
ATOM      4  O   UNL     1       8.428   5.570  19.667  0.00  0.00    +0.000 OA
ATOM      5  C   UNL     1       7.349   6.613  17.498  0.00  0.00    +0.000 C 
ATOM      6  C   UNL     1       5.841   6.819  17.513  0.00  0.00    +0.000 C 
ATOM      7  C   UNL     1       5.159   5.479  17.862  0.00  0.00    +0.000 C 
ATOM      8  C   UNL     1       6.019   4.802  18.939  0.00  0.00    +0.000 C 
ENDBRANCH   1   7
BRANCH   1   9
ATOM      9  C   UNL     1       2.914   6.607  17.545  0.00  0.00    +0.000 C 
BRANCH   9  10
ATOM     10  C   UNL     1       2.243   7.593  18.458  0.00  0.00    +0.000 A 
ATOM     11  N   UNL     1       1.746   8.780  18.155  0.00  0.00    +0.000 NA
ATOM     12  C   UNL     1       1.260   9.251  19.350  0.00  0.00    +0.000 A 
ATOM     13  C   UNL     1       0.587  10.437  19.667  0.00  0.00    +0.000 A 
ATOM     14  C   UNL     1       0.268  10.677  21.013  0.00  0.00    +0.000 A 
ATOM     15  C   UNL     1       0.595   9.747  22.008  0.00  0.00    +0.000 A 
ATOM     16  C   UNL     1       1.225   8.534  21.698  0.00  0.00    +0.000 A 
ATOM     17  C   UNL     1       1.531   8.337  20.356  0.00  0.00    +0.000 A 
ATOM     18  O   UNL     1       2.143   7.255  19.787  0.00  0.00    +0.000 OA
ENDBRANCH   9  10
ENDBRANCH   1   9
BRANCH   1  19
ATOM     19  C   UNL     1       3.015   4.221  18.043  0.00  0.00    +0.000 C 
BRANCH  19  20
ATOM     20  C   UNL     1       2.594   3.639  19.371  0.00  0.00    +0.000 A 
ATOM     21  C   UNL     1       3.352   2.937  20.291  0.00  0.00    +0.000 A 
ATOM     22  C   UNL     1       2.598   2.548  21.438  0.00  0.00    +0.000 A 
ATOM     23  C   UNL     1       1.292   2.971  21.362  0.00  0.00    +0.000 A 
ATOM     24  S   UNL     1       0.984   3.851  19.931  0.00  0.00    +0.000 S 
ENDBRANCH  19  20
ENDBRANCH   1  19
TORSDOF 5
ENDMDL
MODEL 7
REMARK VINA RESULT:      -7.5      0.888      1.034
REMARK  Name = 
REMARK  5 active torsions:
REMARK  status: ('A' for Active; 'I' for Inactive)
REMARK    1  A    between atoms: C_6  and  N_7
REMARK    2  A    between atoms: N_7  and  C_8
REMARK    3  A    between atoms: N_7  and  C_18
REMARK    4  A    between atoms: C_8  and  C_9
REMARK    5  A    between atoms: C_18  and  C_19
REMARK                            x       y       z     vdW  Elec       q    Type
REMARK                         _______ _______ _______ _____ _____    ______ ____
ROOT
ATOM      1  N   UNL     1       4.036   6.058  18.617  0.00  0.00    +0.000 NA
ENDROOT
BRANCH   1   7
ATOM      2  O   UNL     1       8.103   4.189  17.142  0.00  0.00    +0.000 OA
ATOM      3  S   UNL     1       7.161   4.959  16.352  0.00  0.00    +0.000 S 
ATOM      4  O   UNL     1       7.572   5.685  15.170  0.00  0.00    +0.000 OA
ATOM      5  C   UNL     1       5.790   3.900  15.939  0.00  0.00    +0.000 C 
ATOM      6  C   UNL     1       4.573   4.425  16.690  0.00  0.00    +0.000 C 
ATOM      7  C   UNL     1       5.055   5.259  17.896  0.00  0.00    +0.000 C 
ATOM      8  C   UNL     1       6.281   6.058  17.431  0.00  0.00    +0.000 C 
ENDBRANCH   1   7
BRANCH   1   9
ATOM      9  C   UNL     1       2.987   6.718  17.798  0.00  0.00    +0.000 C 
BRANCH   9  10
ATOM     10  C   UNL     1       2.233   7.863  18.412  0.00  0.00    +0.000 A 
ATOM     11  N   UNL     1       1.817   8.974  17.828  0.00  0.00    +0.000 NA
ATOM     12  C   UNL     1       1.194   9.665  18.837  0.00  0.00    +0.000 A 
ATOM     13  C   UNL     1       0.523  10.894  18.834  0.00  0.00    +0.000 A 
ATOM     14  C   UNL     1       0.039  11.386  20.055  0.00  0.00    +0.000 A 
ATOM     15  C   UNL     1       0.205  10.661  21.242  0.00  0.00    +0.000 A 
ATOM     16  C   UNL     1       0.832   9.408  21.252  0.00  0.00    +0.000 A 
ATOM     17  C   UNL     1       1.304   8.958  20.024  0.00  0.00    +0.000 A 
ATOM     18  O   UNL     1       1.952   7.784  19.755  0.00  0.00    +0.000 OA
ENDBRANCH   9  10
ENDBRANCH   1   9
BRANCH   1  19
ATOM     19  C   UNL     1       3.448   5.397  19.796  0.00  0.00    +0.000 C 
BRANCH  19  20
ATOM     20  C   UNL     1       2.664   4.152  19.456  0.00  0.00    +0.000 A 
ATOM     21  C   UNL     1       1.447   4.042  18.810  0.00  0.00    +0.000 A 
ATOM     22  C   UNL     1       1.022   2.687  18.668  0.00  0.00    +0.000 A 
ATOM     23  C   UNL     1       1.932   1.805  19.204  0.00  0.00    +0.000 A 
ATOM     24  S   UNL     1       3.296   2.604  19.849  0.00  0.00    +0.000 S 
ENDBRANCH  19  20
ENDBRANCH   1  19
TORSDOF 5
ENDMDL
MODEL 8
REMARK VINA RESULT:      -7.4      1.226      1.486
REMARK  Name = 
REMARK  5 active torsions:
REMARK  status: ('A' for Active; 'I' for Inactive)
REMARK    1  A    between atoms: C_6  and  N_7
REMARK    2  A    between atoms: N_7  and  C_8
REMARK    3  A    between atoms: N_7  and  C_18
REMARK    4  A    between atoms: C_8  and  C_9
REMARK    5  A    between atoms: C_18  and  C_19
REMARK                            x       y       z     vdW  Elec       q    Type
REMARK                         _______ _______ _______ _____ _____    ______ ____
ROOT
ATOM      1  N   UNL     1       4.230   5.998  18.811  0.00  0.00    +0.000 NA
ENDROOT
BRANCH   1   7
ATOM      2  O   UNL     1       7.253   5.849  15.199  0.00  0.00    +0.000 OA
ATOM      3  S   UNL     1       6.605   4.720  15.838  0.00  0.00    +0.000 S 
ATOM      4  O   UNL     1       6.397   3.468  15.145  0.00  0.00    +0.000 OA
ATOM      5  C   UNL     1       7.441   4.403  17.379  0.00  0.00    +0.000 C 
ATOM      6  C   UNL     1       6.469   4.749  18.499  0.00  0.00    +0.000 C 
ATOM      7  C   UNL     1       5.406   5.726  17.951  0.00  0.00    +0.000 C 
ATOM      8  C   UNL     1       5.063   5.267  16.527  0.00  0.00    +0.000 C 
ENDBRANCH   1   7
BRANCH   1   9
ATOM      9  C   UNL     1       2.962   6.367  18.129  0.00  0.00    +0.000 C 
BRANCH   9  10
ATOM     10  C   UNL     1       2.241   7.595  18.605  0.00  0.00    +0.000 A 
ATOM     11  N   UNL     1       1.896   8.663  17.905  0.00  0.00    +0.000 NA
ATOM     12  C   UNL     1       1.272   9.472  18.821  0.00  0.00    +0.000 A 
ATOM     13  C   UNL     1       0.658  10.722  18.678  0.00  0.00    +0.000 A 
ATOM     14  C   UNL     1       0.155  11.348  19.829  0.00  0.00    +0.000 A 
ATOM     15  C   UNL     1       0.246  10.731  21.083  0.00  0.00    +0.000 A 
ATOM     16  C   UNL     1       0.815   9.459  21.233  0.00  0.00    +0.000 A 
ATOM     17  C   UNL     1       1.308   8.876  20.071  0.00  0.00    +0.000 A 
ATOM     18  O   UNL     1       1.910   7.655  19.938  0.00  0.00    +0.000 OA
ENDBRANCH   9  10
ENDBRANCH   1   9
BRANCH   1  19
ATOM     19  C   UNL     1       3.991   5.002  19.870  0.00  0.00    +0.000 C 
BRANCH  19  20
ATOM     20  C   UNL     1       2.844   4.068  19.567  0.00  0.00    +0.000 A 
ATOM     21  C   UNL     1       1.549   4.097  20.051  0.00  0.00    +0.000 A 
ATOM     22  C   UNL     1       0.745   3.040  19.529  0.00  0.00    +0.000 A 
ATOM     23  C   UNL     1       1.449   2.242  18.657  0.00  0.00    +0.000 A 
ATOM     24  S   UNL     1       3.057   2.778  18.452  0.00  0.00    +0.000 S 
ENDBRANCH  19  20
ENDBRANCH   1  19
TORSDOF 5
ENDMDL
MODEL 9
REMARK VINA RESULT:      -7.3      1.481      2.078
REMARK  Name = 
REMARK  5 active torsions:
REMARK  status: ('A' for Active; 'I' for Inactive)
REMARK    1  A    between atoms: C_6  and  N_7
REMARK    2  A    between atoms: N_7  and  C_8
REMARK    3  A    between atoms: N_7  and  C_18
REMARK    4  A    between atoms: C_8  and  C_9
REMARK    5  A    between atoms: C_18  and  C_19
REMARK                            x       y       z     vdW  Elec       q    Type
REMARK                         _______ _______ _______ _____ _____    ______ ____
ROOT
ATOM      1  N   UNL     1       4.282   6.080  18.821  0.00  0.00    +0.000 NA
ENDROOT
BRANCH   1   7
ATOM      2  O   UNL     1       7.358   5.917  15.255  0.00  0.00    +0.000 OA
ATOM      3  S   UNL     1       6.684   4.793  15.875  0.00  0.00    +0.000 S 
ATOM      4  O   UNL     1       6.469   3.549  15.169  0.00  0.00    +0.000 OA
ATOM      5  C   UNL     1       7.492   4.451  17.426  0.00  0.00    +0.000 C 
ATOM      6  C   UNL     1       6.507   4.802  18.533  0.00  0.00    +0.000 C 
ATOM      7  C   UNL     1       5.467   5.798  17.978  0.00  0.00    +0.000 C 
ATOM      8  C   UNL     1       5.140   5.355  16.544  0.00  0.00    +0.000 C 
ENDBRANCH   1   7
BRANCH   1   9
ATOM      9  C   UNL     1       3.065   6.584  18.135  0.00  0.00    +0.000 C 
BRANCH   9  10
ATOM     10  C   UNL     1       2.267   7.658  18.818  0.00  0.00    +0.000 A 
ATOM     11  N   UNL     1       1.910   7.726  20.089  0.00  0.00    +0.000 NA
ATOM     12  C   UNL     1       1.202   8.900  20.172  0.00  0.00    +0.000 A 
ATOM     13  C   UNL     1       0.598   9.536  21.263  0.00  0.00    +0.000 A 
ATOM     14  C   UNL     1      -0.128  10.713  21.024  0.00  0.00    +0.000 A 
ATOM     15  C   UNL     1      -0.229  11.248  19.733  0.00  0.00    +0.000 A 
ATOM     16  C   UNL     1       0.411  10.648  18.640  0.00  0.00    +0.000 A 
ATOM     17  C   UNL     1       1.113   9.480  18.917  0.00  0.00    +0.000 A 
ATOM     18  O   UNL     1       1.817   8.699  18.042  0.00  0.00    +0.000 OA
ENDBRANCH   9  10
ENDBRANCH   1   9
BRANCH   1  19
ATOM     19  C   UNL     1       3.943   5.023  19.791  0.00  0.00    +0.000 C 
BRANCH  19  20
ATOM     20  C   UNL     1       2.980   3.995  19.245  0.00  0.00    +0.000 A 
ATOM     21  C   UNL     1       3.209   3.000  18.313  0.00  0.00    +0.000 A 
ATOM     22  C   UNL     1       2.045   2.219  18.049  0.00  0.00    +0.000 A 
ATOM     23  C   UNL     1       0.966   2.636  18.795  0.00  0.00    +0.000 A 
ATOM     24  S   UNL     1       1.363   3.943  19.820  0.00  0.00    +0.000 S 
ENDBRANCH  19  20
ENDBRANCH   1  19
TORSDOF 5
ENDMDL
