MODEL 1
REMARK VINA RESULT:      -5.9      0.000      0.000
REMARK  Name = 
REMARK  4 active torsions:
REMARK  status: ('A' for Active; 'I' for Inactive)
REMARK    1  A    between atoms: N_1  and  C_2
REMARK    2  A    between atoms: C_2  and  C_3
REMARK    3  A    between atoms: C_3  and  C_4
REMARK    4  A    between atoms: C_9  and  S_10
REMARK                            x       y       z     vdW  Elec       q    Type
REMARK                         _______ _______ _______ _____ _____    ______ ____
ROOT
ATOM      1  C   UNL     1       5.056   4.280  17.070  0.00  0.00    +0.000 A 
ATOM      2  C   UNL     1       3.678   3.979  17.009  0.00  0.00    +0.000 A 
ATOM      3  C   UNL     1       2.806   4.319  18.045  0.00  0.00    +0.000 A 
ATOM      4  C   UNL     1       3.286   4.973  19.172  0.00  0.00    +0.000 A 
ATOM      5  C   UNL     1       4.638   5.292  19.257  0.00  0.00    +0.000 A 
ATOM      6  C   UNL     1       5.522   4.950  18.215  0.00  0.00    +0.000 A 
ENDROOT
BRANCH   6   7
ATOM      7  S   UNL     1       7.216   5.403  18.498  0.00  0.00    +0.000 S 
ATOM      8  O   UNL     1       7.507   6.565  17.683  0.00  0.00    +0.000 OA
ATOM      9  O   UNL     1       7.406   5.420  19.937  0.00  0.00    +0.000 OA
ATOM     10  F   UNL     1       8.191   4.270  17.972  0.00  0.00    +0.000 F 
ENDBRANCH   6   7
BRANCH   1  11
ATOM     11  C   UNL     1       5.900   3.855  15.890  0.00  0.00    +0.000 C 
BRANCH  11  12
ATOM     12  C   UNL     1       6.124   4.970  14.857  0.00  0.00    +0.000 C 
BRANCH  12  13
ATOM     13  N   UNL     1       7.520   5.389  14.776  0.00  0.00    +0.000 NA
ATOM     14  H   UNL     1       7.914   5.428  15.717  0.00  0.00    +0.000 HD
ATOM     15  H   UNL     1       7.576   6.343  14.417  0.00  0.00    +0.000 HD
ENDBRANCH  12  13
ENDBRANCH  11  12
ENDBRANCH   1  11
TORSDOF 4
ENDMDL
MODEL 2
REMARK VINA RESULT:      -5.7      0.985      1.207
REMARK  Name = 
REMARK  4 active torsions:
REMARK  status: ('A' for Active; 'I' for Inactive)
REMARK    1  A    between atoms: N_1  and  C_2
REMARK    2  A    between atoms: C_2  and  C_3
REMARK    3  A    between atoms: C_3  and  C_4
REMARK    4  A    between atoms: C_9  and  S_10
REMARK                            x       y       z     vdW  Elec       q    Type
REMARK                         _______ _______ _______ _____ _____    ______ ____
ROOT
ATOM      1  C   UNL     1       5.155   4.241  17.003  0.00  0.00    +0.000 A 
ATOM      2  C   UNL     1       3.776   3.957  17.107  0.00  0.00    +0.000 A 
ATOM      3  C   UNL     1       3.043   4.290  18.249  0.00  0.00    +0.000 A 
ATOM      4  C   UNL     1       3.668   4.919  19.318  0.00  0.00    +0.000 A 
ATOM      5  C   UNL     1       5.025   5.219  19.240  0.00  0.00    +0.000 A 
ATOM      6  C   UNL     1       5.769   4.885  18.092  0.00  0.00    +0.000 A 
ENDROOT
BRANCH   6   7
ATOM      7  S   UNL     1       7.491   5.312  18.170  0.00  0.00    +0.000 S 
ATOM      8  O   UNL     1       8.254   4.166  17.722  0.00  0.00    +0.000 OA
ATOM      9  O   UNL     1       7.625   6.609  17.529  0.00  0.00    +0.000 OA
ATOM     10  F   UNL     1       7.938   5.551  19.670  0.00  0.00    +0.000 F 
ENDBRANCH   6   7
BRANCH   1  11
ATOM     11  C   UNL     1       5.842   3.826  15.720  0.00  0.00    +0.000 C 
BRANCH  11  12
ATOM     12  C   UNL     1       6.112   4.994  14.759  0.00  0.00    +0.000 C 
BRANCH  12  13
ATOM     13  N   UNL     1       7.529   5.333  14.672  0.00  0.00    +0.000 NA
ATOM     14  H   UNL     1       8.070   4.481  14.521  0.00  0.00    +0.000 HD
ATOM     15  H   UNL     1       7.851   5.706  15.566  0.00  0.00    +0.000 HD
ENDBRANCH  12  13
ENDBRANCH  11  12
ENDBRANCH   1  11
TORSDOF 4
ENDMDL
MODEL 3
REMARK VINA RESULT:      -5.7      1.285      1.491
REMARK  Name = 
REMARK  4 active torsions:
REMARK  status: ('A' for Active; 'I' for Inactive)
REMARK    1  A    between atoms: N_1  and  C_2
REMARK    2  A    between atoms: C_2  and  C_3
REMARK    3  A    between atoms: C_3  and  C_4
REMARK    4  A    between atoms: C_9  and  S_10
REMARK                            x       y       z     vdW  Elec       q    Type
REMARK                         _______ _______ _______ _____ _____    ______ ____
ROOT
ATOM      1  C   UNL     1       5.014   4.689  16.877  0.00  0.00    +0.000 A 
ATOM      2  C   UNL     1       3.724   4.129  16.768  0.00  0.00    +0.000 A 
ATOM      3  C   UNL     1       3.142   3.415  17.818  0.00  0.00    +0.000 A 
ATOM      4  C   UNL     1       3.834   3.245  19.010  0.00  0.00    +0.000 A 
ATOM      5  C   UNL     1       5.106   3.794  19.150  0.00  0.00    +0.000 A 
ATOM      6  C   UNL     1       5.697   4.513  18.093  0.00  0.00    +0.000 A 
ENDROOT
BRANCH   6   7
ATOM      7  S   UNL     1       7.332   5.120  18.429  0.00  0.00    +0.000 S 
ATOM      8  O   UNL     1       7.421   5.400  19.847  0.00  0.00    +0.000 OA
ATOM      9  O   UNL     1       8.254   4.206  17.778  0.00  0.00    +0.000 OA
ATOM     10  F   UNL     1       7.567   6.513  17.713  0.00  0.00    +0.000 F 
ENDBRANCH   6   7
BRANCH   1  11
ATOM     11  C   UNL     1       5.539   5.433  15.669  0.00  0.00    +0.000 C 
BRANCH  11  12
ATOM     12  C   UNL     1       6.494   4.603  14.798  0.00  0.00    +0.000 C 
BRANCH  12  13
ATOM     13  N   UNL     1       7.689   5.345  14.410  0.00  0.00    +0.000 NA
ATOM     14  H   UNL     1       8.468   5.065  15.007  0.00  0.00    +0.000 HD
ATOM     15  H   UNL     1       7.553   6.341  14.591  0.00  0.00    +0.000 HD
ENDBRANCH  12  13
ENDBRANCH  11  12
ENDBRANCH   1  11
TORSDOF 4
ENDMDL
MODEL 4
REMARK VINA RESULT:      -5.6      2.611      3.124
REMARK  Name = 
REMARK  4 active torsions:
REMARK  status: ('A' for Active; 'I' for Inactive)
REMARK    1  A    between atoms: N_1  and  C_2
REMARK    2  A    between atoms: C_2  and  C_3
REMARK    3  A    between atoms: C_3  and  C_4
REMARK    4  A    between atoms: C_9  and  S_10
REMARK                            x       y       z     vdW  Elec       q    Type
REMARK                         _______ _______ _______ _____ _____    ______ ____
ROOT
ATOM      1  C   UNL     1       3.699   4.586  17.570  0.00  0.00    +0.000 A 
ATOM      2  C   UNL     1       2.523   5.215  18.032  0.00  0.00    +0.000 A 
ATOM      3  C   UNL     1       2.407   6.606  18.086  0.00  0.00    +0.000 A 
ATOM      4  C   UNL     1       3.465   7.408  17.675  0.00  0.00    +0.000 A 
ATOM      5  C   UNL     1       4.634   6.816  17.206  0.00  0.00    +0.000 A 
ATOM      6  C   UNL     1       4.756   5.414  17.152  0.00  0.00    +0.000 A 
ENDROOT
BRANCH   6   7
ATOM      7  S   UNL     1       6.322   4.825  16.557  0.00  0.00    +0.000 S 
ATOM      8  O   UNL     1       6.878   5.841  15.686  0.00  0.00    +0.000 OA
ATOM      9  O   UNL     1       7.050   4.341  17.717  0.00  0.00    +0.000 OA
ATOM     10  F   UNL     1       6.126   3.550  15.638  0.00  0.00    +0.000 F 
ENDBRANCH   6   7
BRANCH   1  11
ATOM     11  C   UNL     1       3.707   3.073  17.566  0.00  0.00    +0.000 C 
BRANCH  11  12
ATOM     12  C   UNL     1       3.841   2.452  18.964  0.00  0.00    +0.000 C 
BRANCH  12  13
ATOM     13  N   UNL     1       5.143   2.708  19.570  0.00  0.00    +0.000 NA
ATOM     14  H   UNL     1       5.067   2.619  20.584  0.00  0.00    +0.000 HD
ATOM     15  H   UNL     1       5.420   3.676  19.402  0.00  0.00    +0.000 HD
ENDBRANCH  12  13
ENDBRANCH  11  12
ENDBRANCH   1  11
TORSDOF 4
ENDMDL
MODEL 5
REMARK VINA RESULT:      -5.5      2.644      3.254
REMARK  Name = 
REMARK  4 active torsions:
REMARK  status: ('A' for Active; 'I' for Inactive)
REMARK    1  A    between atoms: N_1  and  C_2
REMARK    2  A    between atoms: C_2  and  C_3
REMARK    3  A    between atoms: C_3  and  C_4
REMARK    4  A    between atoms: C_9  and  S_10
REMARK                            x       y       z     vdW  Elec       q    Type
REMARK                         _______ _______ _______ _____ _____    ______ ____
ROOT
ATOM      1  C   UNL     1       3.707   4.461  17.679  0.00  0.00    +0.000 A 
ATOM      2  C   UNL     1       2.473   5.062  18.009  0.00  0.00    +0.000 A 
ATOM      3  C   UNL     1       2.322   6.450  18.052  0.00  0.00    +0.000 A 
ATOM      4  C   UNL     1       3.400   7.277  17.763  0.00  0.00    +0.000 A 
ATOM      5  C   UNL     1       4.627   6.712  17.425  0.00  0.00    +0.000 A 
ATOM      6  C   UNL     1       4.785   5.313  17.382  0.00  0.00    +0.000 A 
ENDROOT
BRANCH   6   7
ATOM      7  S   UNL     1       6.420   4.761  16.964  0.00  0.00    +0.000 S 
ATOM      8  O   UNL     1       7.059   4.299  18.179  0.00  0.00    +0.000 OA
ATOM      9  O   UNL     1       6.281   3.896  15.806  0.00  0.00    +0.000 OA
ATOM     10  F   UNL     1       7.306   5.974  16.462  0.00  0.00    +0.000 F 
ENDBRANCH   6   7
BRANCH   1  11
ATOM     11  C   UNL     1       3.748   2.949  17.673  0.00  0.00    +0.000 C 
BRANCH  11  12
ATOM     12  C   UNL     1       3.807   2.326  19.077  0.00  0.00    +0.000 C 
BRANCH  12  13
ATOM     13  N   UNL     1       5.093   2.543  19.733  0.00  0.00    +0.000 NA
ATOM     14  H   UNL     1       4.986   3.257  20.455  0.00  0.00    +0.000 HD
ATOM     15  H   UNL     1       5.762   2.929  19.066  0.00  0.00    +0.000 HD
ENDBRANCH  12  13
ENDBRANCH  11  12
ENDBRANCH   1  11
TORSDOF 4
ENDMDL
MODEL 6
REMARK VINA RESULT:      -5.4      2.818      3.263
REMARK  Name = 
REMARK  4 active torsions:
REMARK  status: ('A' for Active; 'I' for Inactive)
REMARK    1  A    between atoms: N_1  and  C_2
REMARK    2  A    between atoms: C_2  and  C_3
REMARK    3  A    between atoms: C_3  and  C_4
REMARK    4  A    between atoms: C_9  and  S_10
REMARK                            x       y       z     vdW  Elec       q    Type
REMARK                         _______ _______ _______ _____ _____    ______ ____
ROOT
ATOM      1  C   UNL     1       3.849   4.601  17.670  0.00  0.00    +0.000 A 
ATOM      2  C   UNL     1       2.618   5.209  17.999  0.00  0.00    +0.000 A 
ATOM      3  C   UNL     1       2.461   6.597  17.994  0.00  0.00    +0.000 A 
ATOM      4  C   UNL     1       3.530   7.417  17.656  0.00  0.00    +0.000 A 
ATOM      5  C   UNL     1       4.753   6.845  17.318  0.00  0.00    +0.000 A 
ATOM      6  C   UNL     1       4.917   5.447  17.323  0.00  0.00    +0.000 A 
ENDROOT
BRANCH   6   7
ATOM      7  S   UNL     1       6.547   4.886  16.895  0.00  0.00    +0.000 S 
ATOM      8  O   UNL     1       7.203   5.946  16.157  0.00  0.00    +0.000 OA
ATOM      9  O   UNL     1       7.128   4.338  18.108  0.00  0.00    +0.000 OA
ATOM     10  F   UNL     1       6.471   3.664  15.891  0.00  0.00    +0.000 F 
ENDBRANCH   6   7
BRANCH   1  11
ATOM     11  C   UNL     1       3.897   3.090  17.718  0.00  0.00    +0.000 C 
BRANCH  11  12
ATOM     12  C   UNL     1       2.522   2.422  17.563  0.00  0.00    +0.000 C 
BRANCH  12  13
ATOM     13  N   UNL     1       2.165   1.600  18.715  0.00  0.00    +0.000 NA
ATOM     14  H   UNL     1       1.575   0.826  18.406  0.00  0.00    +0.000 HD
ATOM     15  H   UNL     1       1.590   2.140  19.362  0.00  0.00    +0.000 HD
ENDBRANCH  12  13
ENDBRANCH  11  12
ENDBRANCH   1  11
TORSDOF 4
ENDMDL
MODEL 7
REMARK VINA RESULT:      -5.4      2.886      3.495
REMARK  Name = 
REMARK  4 active torsions:
REMARK  status: ('A' for Active; 'I' for Inactive)
REMARK    1  A    between atoms: N_1  and  C_2
REMARK    2  A    between atoms: C_2  and  C_3
REMARK    3  A    between atoms: C_3  and  C_4
REMARK    4  A    between atoms: C_9  and  S_10
REMARK                            x       y       z     vdW  Elec       q    Type
REMARK                         _______ _______ _______ _____ _____    ______ ____
ROOT
ATOM      1  C   UNL     1       5.557   5.052  18.192  0.00  0.00    +0.000 A 
ATOM      2  C   UNL     1       4.884   4.461  19.282  0.00  0.00    +0.000 A 
ATOM      3  C   UNL     1       3.900   3.486  19.096  0.00  0.00    +0.000 A 
ATOM      4  C   UNL     1       3.564   3.073  17.814  0.00  0.00    +0.000 A 
ATOM      5  C   UNL     1       4.218   3.632  16.719  0.00  0.00    +0.000 A 
ATOM      6  C   UNL     1       5.209   4.616  16.902  0.00  0.00    +0.000 A 
ENDROOT
BRANCH   6   7
ATOM      7  S   UNL     1       5.920   5.244  15.400  0.00  0.00    +0.000 S 
ATOM      8  O   UNL     1       5.486   6.617  15.242  0.00  0.00    +0.000 OA
ATOM      9  O   UNL     1       7.329   4.894  15.431  0.00  0.00    +0.000 OA
ATOM     10  F   UNL     1       5.337   4.475  14.144  0.00  0.00    +0.000 F 
ENDBRANCH   6   7
BRANCH   1  11
ATOM     11  C   UNL     1       6.596   6.101  18.520  0.00  0.00    +0.000 C 
BRANCH  11  12
ATOM     12  C   UNL     1       7.942   5.516  18.974  0.00  0.00    +0.000 C 
BRANCH  12  13
ATOM     13  N   UNL     1       8.078   5.483  20.427  0.00  0.00    +0.000 NA
ATOM     14  H   UNL     1       7.635   6.312  20.825  0.00  0.00    +0.000 HD
ATOM     15  H   UNL     1       9.063   5.550  20.686  0.00  0.00    +0.000 HD
ENDBRANCH  12  13
ENDBRANCH  11  12
ENDBRANCH   1  11
TORSDOF 4
ENDMDL
MODEL 8
REMARK VINA RESULT:      -5.4      3.099      3.419
REMARK  Name = 
REMARK  4 active torsions:
REMARK  status: ('A' for Active; 'I' for Inactive)
REMARK    1  A    between atoms: N_1  and  C_2
REMARK    2  A    between atoms: C_2  and  C_3
REMARK    3  A    between atoms: C_3  and  C_4
REMARK    4  A    between atoms: C_9  and  S_10
REMARK                            x       y       z     vdW  Elec       q    Type
REMARK                         _______ _______ _______ _____ _____    ______ ____
ROOT
ATOM      1  C   UNL     1       4.179   4.942  17.705  0.00  0.00    +0.000 A 
ATOM      2  C   UNL     1       3.941   6.290  17.358  0.00  0.00    +0.000 A 
ATOM      3  C   UNL     1       3.123   7.114  18.134  0.00  0.00    +0.000 A 
ATOM      4  C   UNL     1       2.520   6.614  19.282  0.00  0.00    +0.000 A 
ATOM      5  C   UNL     1       2.744   5.292  19.653  0.00  0.00    +0.000 A 
ATOM      6  C   UNL     1       3.567   4.456  18.873  0.00  0.00    +0.000 A 
ENDROOT
BRANCH   6   7
ATOM      7  S   UNL     1       3.721   2.792  19.474  0.00  0.00    +0.000 S 
ATOM      8  O   UNL     1       5.090   2.600  19.907  0.00  0.00    +0.000 OA
ATOM      9  O   UNL     1       2.604   2.571  20.375  0.00  0.00    +0.000 OA
ATOM     10  F   UNL     1       3.506   1.753  18.298  0.00  0.00    +0.000 F 
ENDBRANCH   6   7
BRANCH   1  11
ATOM     11  C   UNL     1       5.077   4.148  16.782  0.00  0.00    +0.000 C 
BRANCH  11  12
ATOM     12  C   UNL     1       6.560   4.537  16.879  0.00  0.00    +0.000 C 
BRANCH  12  13
ATOM     13  N   UNL     1       7.124   4.274  18.199  0.00  0.00    +0.000 NA
ATOM     14  H   UNL     1       8.118   4.506  18.193  0.00  0.00    +0.000 HD
ATOM     15  H   UNL     1       7.079   3.275  18.403  0.00  0.00    +0.000 HD
ENDBRANCH  12  13
ENDBRANCH  11  12
ENDBRANCH   1  11
TORSDOF 4
ENDMDL
MODEL 9
REMARK VINA RESULT:      -5.4      3.784      4.369
REMARK  Name = 
REMARK  4 active torsions:
REMARK  status: ('A' for Active; 'I' for Inactive)
REMARK    1  A    between atoms: N_1  and  C_2
REMARK    2  A    between atoms: C_2  and  C_3
REMARK    3  A    between atoms: C_3  and  C_4
REMARK    4  A    between atoms: C_9  and  S_10
REMARK                            x       y       z     vdW  Elec       q    Type
REMARK                         _______ _______ _______ _____ _____    ______ ____
ROOT
ATOM      1  C   UNL     1       2.923   4.803  18.556  0.00  0.00    +0.000 A 
ATOM      2  C   UNL     1       2.827   6.129  18.084  0.00  0.00    +0.000 A 
ATOM      3  C   UNL     1       2.368   7.167  18.898  0.00  0.00    +0.000 A 
ATOM      4  C   UNL     1       1.993   6.908  20.210  0.00  0.00    +0.000 A 
ATOM      5  C   UNL     1       2.085   5.610  20.706  0.00  0.00    +0.000 A 
ATOM      6  C   UNL     1       2.546   4.561  19.889  0.00  0.00    +0.000 A 
ENDROOT
BRANCH   6   7
ATOM      7  S   UNL     1       2.573   2.966  20.670  0.00  0.00    +0.000 S 
ATOM      8  O   UNL     1       3.898   2.408  20.498  0.00  0.00    +0.000 OA
ATOM      9  O   UNL     1       1.989   3.140  21.988  0.00  0.00    +0.000 OA
ATOM     10  F   UNL     1       1.599   1.963  19.923  0.00  0.00    +0.000 F 
ENDBRANCH   6   7
BRANCH   1  11
ATOM     11  C   UNL     1       3.428   3.765  17.578  0.00  0.00    +0.000 C 
BRANCH  11  12
ATOM     12  C   UNL     1       4.928   3.886  17.269  0.00  0.00    +0.000 C 
BRANCH  12  13
ATOM     13  N   UNL     1       5.759   3.749  18.460  0.00  0.00    +0.000 NA
ATOM     14  H   UNL     1       5.192   3.929  19.289  0.00  0.00    +0.000 HD
ATOM     15  H   UNL     1       6.482   4.470  18.463  0.00  0.00    +0.000 HD
ENDBRANCH  12  13
ENDBRANCH  11  12
ENDBRANCH   1  11
TORSDOF 4
ENDMDL
