MODEL 1
REMARK VINA RESULT:      -6.0      0.000      0.000
REMARK  Name = 
REMARK  12 active torsions:
REMARK  status: ('A' for Active; 'I' for Inactive)
REMARK    1  A    between atoms: C_1  and  C_2
REMARK    2  A    between atoms: C_2  and  N_3
REMARK    3  A    between atoms: N_3  and  C_4
REMARK    4  A    between atoms: N_3  and  C_6
REMARK    5  A    between atoms: C_4  and  C_5
REMARK    6  A    between atoms: C_6  and  C_7
REMARK    7  A    between atoms: C_7  and  C_8
REMARK    8  A    between atoms: C_8  and  N_9
REMARK    9  A    between atoms: N_9  and  C_10
REMARK   10  A    between atoms: N_9  and  C_16
REMARK   11  A    between atoms: C_10  and  N_11
REMARK   12  A    between atoms: C_16  and  N_17
REMARK                            x       y       z     vdW  Elec       q    Type
REMARK                         _______ _______ _______ _____ _____    ______ ____
ROOT
ATOM      1  N   UNL     1       2.412   5.631  18.183  0.00  0.00    +0.000 NA
ENDROOT
BRANCH   1   2
ATOM      2  C   UNL     1       3.694   5.234  17.521  0.00  0.00    +0.000 C 
BRANCH   2   3
ATOM      3  C   UNL     1       4.550   6.434  17.068  0.00  0.00    +0.000 C 
BRANCH   3   4
ATOM      4  C   UNL     1       5.267   6.223  15.719  0.00  0.00    +0.000 C 
BRANCH   4   5
ATOM      5  N   UNL     1       6.720   5.981  15.796  0.00  0.00    +0.000 NA
BRANCH   5   7
ATOM      6  C   UNL     1       7.645   4.603  17.688  0.00  0.00    +0.000 C 
ATOM      7  C   UNL     1       7.239   5.981  17.173  0.00  0.00    +0.000 C 
ENDBRANCH   5   7
BRANCH   5   8
ATOM      8  C   UNL     1       7.108   4.787  15.017  0.00  0.00    +0.000 C 
ATOM      9  C   UNL     1       5.983   4.025  14.317  0.00  0.00    +0.000 C 
ENDBRANCH   5   8
ENDBRANCH   4   5
ENDBRANCH   3   4
ENDBRANCH   2   3
ENDBRANCH   1   2
BRANCH   1  10
ATOM     10  C   UNL     1       1.652   4.397  18.523  0.00  0.00    +0.000 C 
BRANCH  10  11
ATOM     11  N   UNL     1       2.086   3.829  19.799  0.00  0.00    +0.000 N 
ATOM     12  C   UNL     1       1.435   3.880  20.993  0.00  0.00    +0.000 A 
ATOM     13  N   UNL     1       2.059   3.122  21.867  0.00  0.00    +0.000 NA
ATOM     14  C   UNL     1       3.097   2.607  21.143  0.00  0.00    +0.000 A 
ATOM     15  N   UNL     1       3.150   2.998  19.867  0.00  0.00    +0.000 NA
ENDBRANCH  10  11
ENDBRANCH   1  10
BRANCH   1  16
ATOM     16  C   UNL     1       2.701   6.362  19.452  0.00  0.00    +0.000 C 
BRANCH  16  17
ATOM     17  N   UNL     1       2.104   7.698  19.458  0.00  0.00    +0.000 N 
ATOM     18  C   UNL     1       1.931   8.544  18.403  0.00  0.00    +0.000 A 
ATOM     19  N   UNL     1       1.225   9.585  18.783  0.00  0.00    +0.000 NA
ATOM     20  C   UNL     1       0.966   9.312  20.097  0.00  0.00    +0.000 A 
ATOM     21  N   UNL     1       1.487   8.174  20.560  0.00  0.00    +0.000 NA
ENDBRANCH  16  17
ENDBRANCH   1  16
TORSDOF 10
ENDMDL
MODEL 2
REMARK VINA RESULT:      -5.9      2.099      7.115
REMARK  Name = 
REMARK  12 active torsions:
REMARK  status: ('A' for Active; 'I' for Inactive)
REMARK    1  A    between atoms: C_1  and  C_2
REMARK    2  A    between atoms: C_2  and  N_3
REMARK    3  A    between atoms: N_3  and  C_4
REMARK    4  A    between atoms: N_3  and  C_6
REMARK    5  A    between atoms: C_4  and  C_5
REMARK    6  A    between atoms: C_6  and  C_7
REMARK    7  A    between atoms: C_7  and  C_8
REMARK    8  A    between atoms: C_8  and  N_9
REMARK    9  A    between atoms: N_9  and  C_10
REMARK   10  A    between atoms: N_9  and  C_16
REMARK   11  A    between atoms: C_10  and  N_11
REMARK   12  A    between atoms: C_16  and  N_17
REMARK                            x       y       z     vdW  Elec       q    Type
REMARK                         _______ _______ _______ _____ _____    ______ ____
ROOT
ATOM      1  N   UNL     1       5.710   4.826  16.183  0.00  0.00    +0.000 NA
ENDROOT
BRANCH   1   2
ATOM      2  C   UNL     1       4.320   4.732  16.727  0.00  0.00    +0.000 C 
BRANCH   2   3
ATOM      3  C   UNL     1       4.271   4.481  18.248  0.00  0.00    +0.000 C 
BRANCH   3   4
ATOM      4  C   UNL     1       2.902   3.987  18.761  0.00  0.00    +0.000 C 
BRANCH   4   5
ATOM      5  N   UNL     1       2.090   4.985  19.481  0.00  0.00    +0.000 NA
BRANCH   5   7
ATOM      6  C   UNL     1       0.988   3.121  20.763  0.00  0.00    +0.000 C 
ATOM      7  C   UNL     1       1.612   4.513  20.791  0.00  0.00    +0.000 C 
ENDBRANCH   5   7
BRANCH   5   8
ATOM      8  C   UNL     1       2.770   6.295  19.536  0.00  0.00    +0.000 C 
ATOM      9  C   UNL     1       1.959   7.470  20.083  0.00  0.00    +0.000 C 
ENDBRANCH   5   8
ENDBRANCH   4   5
ENDBRANCH   3   4
ENDBRANCH   2   3
ENDBRANCH   1   2
BRANCH   1  10
ATOM     10  C   UNL     1       6.671   4.742  17.317  0.00  0.00    +0.000 C 
BRANCH  10  11
ATOM     11  N   UNL     1       7.181   6.059  17.694  0.00  0.00    +0.000 N 
ATOM     12  C   UNL     1       7.977   6.369  18.753  0.00  0.00    +0.000 A 
ATOM     13  N   UNL     1       8.353   7.625  18.669  0.00  0.00    +0.000 NA
ATOM     14  C   UNL     1       7.762   8.046  17.511  0.00  0.00    +0.000 A 
ATOM     15  N   UNL     1       7.044   7.122  16.869  0.00  0.00    +0.000 NA
ENDBRANCH  10  11
ENDBRANCH   1  10
BRANCH   1  16
ATOM     16  C   UNL     1       5.975   3.677  15.266  0.00  0.00    +0.000 C 
BRANCH  16  17
ATOM     17  N   UNL     1       6.664   4.103  14.047  0.00  0.00    +0.000 N 
ATOM     18  C   UNL     1       6.457   3.671  12.771  0.00  0.00    +0.000 A 
ATOM     19  N   UNL     1       7.168   4.398  11.938  0.00  0.00    +0.000 NA
ATOM     20  C   UNL     1       7.784   5.293  12.766  0.00  0.00    +0.000 A 
ATOM     21  N   UNL     1       7.516   5.151  14.066  0.00  0.00    +0.000 NA
ENDBRANCH  16  17
ENDBRANCH   1  16
TORSDOF 10
ENDMDL
MODEL 3
REMARK VINA RESULT:      -5.9      1.185      2.103
REMARK  Name = 
REMARK  12 active torsions:
REMARK  status: ('A' for Active; 'I' for Inactive)
REMARK    1  A    between atoms: C_1  and  C_2
REMARK    2  A    between atoms: C_2  and  N_3
REMARK    3  A    between atoms: N_3  and  C_4
REMARK    4  A    between atoms: N_3  and  C_6
REMARK    5  A    between atoms: C_4  and  C_5
REMARK    6  A    between atoms: C_6  and  C_7
REMARK    7  A    between atoms: C_7  and  C_8
REMARK    8  A    between atoms: C_8  and  N_9
REMARK    9  A    between atoms: N_9  and  C_10
REMARK   10  A    between atoms: N_9  and  C_16
REMARK   11  A    between atoms: C_10  and  N_11
REMARK   12  A    between atoms: C_16  and  N_17
REMARK                            x       y       z     vdW  Elec       q    Type
REMARK                         _______ _______ _______ _____ _____    ______ ____
ROOT
ATOM      1  N   UNL     1       2.851   5.514  18.580  0.00  0.00    +0.000 NA
ENDROOT
BRANCH   1   2
ATOM      2  C   UNL     1       2.753   4.535  17.452  0.00  0.00    +0.000 C 
BRANCH   2   3
ATOM      3  C   UNL     1       4.087   3.831  17.132  0.00  0.00    +0.000 C 
BRANCH   3   4
ATOM      4  C   UNL     1       4.916   4.524  16.031  0.00  0.00    +0.000 C 
BRANCH   4   5
ATOM      5  N   UNL     1       6.366   4.258  16.056  0.00  0.00    +0.000 NA
BRANCH   5   7
ATOM      6  C   UNL     1       6.315   3.964  13.557  0.00  0.00    +0.000 C 
ATOM      7  C   UNL     1       7.034   4.539  14.775  0.00  0.00    +0.000 C 
ENDBRANCH   5   7
BRANCH   5   8
ATOM      8  C   UNL     1       7.013   4.906  17.215  0.00  0.00    +0.000 C 
ATOM      9  C   UNL     1       7.153   6.428  17.163  0.00  0.00    +0.000 C 
ENDBRANCH   5   8
ENDBRANCH   4   5
ENDBRANCH   3   4
ENDBRANCH   2   3
ENDBRANCH   1   2
BRANCH   1  10
ATOM     10  C   UNL     1       3.840   5.002  19.568  0.00  0.00    +0.000 C 
BRANCH  10  11
ATOM     11  N   UNL     1       3.223   4.086  20.526  0.00  0.00    +0.000 N 
ATOM     12  C   UNL     1       2.181   4.339  21.363  0.00  0.00    +0.000 A 
ATOM     13  N   UNL     1       1.810   3.226  21.954  0.00  0.00    +0.000 NA
ATOM     14  C   UNL     1       2.661   2.298  21.424  0.00  0.00    +0.000 A 
ATOM     15  N   UNL     1       3.537   2.771  20.533  0.00  0.00    +0.000 NA
ENDBRANCH  10  11
ENDBRANCH   1  10
BRANCH   1  16
ATOM     16  C   UNL     1       3.344   6.829  18.070  0.00  0.00    +0.000 C 
BRANCH  16  17
ATOM     17  N   UNL     1       2.406   7.912  18.365  0.00  0.00    +0.000 N 
ATOM     18  C   UNL     1       1.801   8.199  19.553  0.00  0.00    +0.000 A 
ATOM     19  N   UNL     1       1.146   9.333  19.452  0.00  0.00    +0.000 NA
ATOM     20  C   UNL     1       1.404   9.720  18.168  0.00  0.00    +0.000 A 
ATOM     21  N   UNL     1       2.164   8.882  17.458  0.00  0.00    +0.000 NA
ENDBRANCH  16  17
ENDBRANCH   1  16
TORSDOF 10
ENDMDL
MODEL 4
REMARK VINA RESULT:      -5.9      1.341      5.885
REMARK  Name = 
REMARK  12 active torsions:
REMARK  status: ('A' for Active; 'I' for Inactive)
REMARK    1  A    between atoms: C_1  and  C_2
REMARK    2  A    between atoms: C_2  and  N_3
REMARK    3  A    between atoms: N_3  and  C_4
REMARK    4  A    between atoms: N_3  and  C_6
REMARK    5  A    between atoms: C_4  and  C_5
REMARK    6  A    between atoms: C_6  and  C_7
REMARK    7  A    between atoms: C_7  and  C_8
REMARK    8  A    between atoms: C_8  and  N_9
REMARK    9  A    between atoms: N_9  and  C_10
REMARK   10  A    between atoms: N_9  and  C_16
REMARK   11  A    between atoms: C_10  and  N_11
REMARK   12  A    between atoms: C_16  and  N_17
REMARK                            x       y       z     vdW  Elec       q    Type
REMARK                         _______ _______ _______ _____ _____    ______ ____
ROOT
ATOM      1  N   UNL     1       3.882   5.903  17.454  0.00  0.00    +0.000 NA
ENDROOT
BRANCH   1   2
ATOM      2  C   UNL     1       4.121   4.433  17.306  0.00  0.00    +0.000 C 
BRANCH   2   3
ATOM      3  C   UNL     1       2.823   3.605  17.220  0.00  0.00    +0.000 C 
BRANCH   3   4
ATOM      4  C   UNL     1       2.880   2.266  17.984  0.00  0.00    +0.000 C 
BRANCH   4   5
ATOM      5  N   UNL     1       2.210   2.249  19.298  0.00  0.00    +0.000 NA
BRANCH   5   7
ATOM      6  C   UNL     1       4.558   2.130  20.196  0.00  0.00    +0.000 C 
ATOM      7  C   UNL     1       3.113   2.567  20.416  0.00  0.00    +0.000 C 
ENDBRANCH   5   7
BRANCH   5   8
ATOM      8  C   UNL     1       0.976   3.060  19.284  0.00  0.00    +0.000 C 
ATOM      9  C   UNL     1       0.806   4.075  20.415  0.00  0.00    +0.000 C 
ENDBRANCH   5   8
ENDBRANCH   4   5
ENDBRANCH   3   4
ENDBRANCH   2   3
ENDBRANCH   1   2
BRANCH   1  10
ATOM     10  C   UNL     1       3.347   6.161  18.819  0.00  0.00    +0.000 C 
BRANCH  10  11
ATOM     11  N   UNL     1       2.464   7.327  18.843  0.00  0.00    +0.000 N 
ATOM     12  C   UNL     1       1.892   7.912  19.930  0.00  0.00    +0.000 A 
ATOM     13  N   UNL     1       1.298   9.027  19.569  0.00  0.00    +0.000 NA
ATOM     14  C   UNL     1       1.552   9.090  18.228  0.00  0.00    +0.000 A 
ATOM     15  N   UNL     1       2.275   8.081  17.737  0.00  0.00    +0.000 NA
ENDBRANCH  10  11
ENDBRANCH   1  10
BRANCH   1  16
ATOM     16  C   UNL     1       5.172   6.644  17.315  0.00  0.00    +0.000 C 
BRANCH  16  17
ATOM     17  N   UNL     1       6.142   5.897  16.514  0.00  0.00    +0.000 N 
ATOM     18  C   UNL     1       7.176   5.125  16.954  0.00  0.00    +0.000 A 
ATOM     19  N   UNL     1       7.727   4.503  15.936  0.00  0.00    +0.000 NA
ATOM     20  C   UNL     1       6.966   4.917  14.879  0.00  0.00    +0.000 A 
ATOM     21  N   UNL     1       5.988   5.776  15.178  0.00  0.00    +0.000 NA
ENDBRANCH  16  17
ENDBRANCH   1  16
TORSDOF 10
ENDMDL
MODEL 5
REMARK VINA RESULT:      -5.9      1.654      5.559
REMARK  Name = 
REMARK  12 active torsions:
REMARK  status: ('A' for Active; 'I' for Inactive)
REMARK    1  A    between atoms: C_1  and  C_2
REMARK    2  A    between atoms: C_2  and  N_3
REMARK    3  A    between atoms: N_3  and  C_4
REMARK    4  A    between atoms: N_3  and  C_6
REMARK    5  A    between atoms: C_4  and  C_5
REMARK    6  A    between atoms: C_6  and  C_7
REMARK    7  A    between atoms: C_7  and  C_8
REMARK    8  A    between atoms: C_8  and  N_9
REMARK    9  A    between atoms: N_9  and  C_10
REMARK   10  A    between atoms: N_9  and  C_16
REMARK   11  A    between atoms: C_10  and  N_11
REMARK   12  A    between atoms: C_16  and  N_17
REMARK                            x       y       z     vdW  Elec       q    Type
REMARK                         _______ _______ _______ _____ _____    ______ ____
ROOT
ATOM      1  N   UNL     1       3.499   4.989  18.462  0.00  0.00    +0.000 NA
ENDROOT
BRANCH   1   2
ATOM      2  C   UNL     1       2.435   5.996  18.156  0.00  0.00    +0.000 C 
BRANCH   2   3
ATOM      3  C   UNL     1       2.929   7.454  18.231  0.00  0.00    +0.000 C 
BRANCH   3   4
ATOM      4  C   UNL     1       1.829   8.505  17.970  0.00  0.00    +0.000 C 
BRANCH   4   5
ATOM      5  N   UNL     1       1.489   9.374  19.111  0.00  0.00    +0.000 NA
BRANCH   5   7
ATOM      6  C   UNL     1      -0.809  10.354  18.813  0.00  0.00    +0.000 C 
ATOM      7  C   UNL     1       0.701  10.557  18.729  0.00  0.00    +0.000 C 
ENDBRANCH   5   7
BRANCH   5   8
ATOM      8  C   UNL     1       0.895   8.600  20.219  0.00  0.00    +0.000 C 
ATOM      9  C   UNL     1       1.377   8.935  21.631  0.00  0.00    +0.000 C 
ENDBRANCH   5   8
ENDBRANCH   4   5
ENDBRANCH   3   4
ENDBRANCH   2   3
ENDBRANCH   1   2
BRANCH   1  10
ATOM     10  C   UNL     1       2.895   3.629  18.412  0.00  0.00    +0.000 C 
BRANCH  10  11
ATOM     11  N   UNL     1       2.520   3.154  19.743  0.00  0.00    +0.000 N 
ATOM     12  C   UNL     1       3.350   2.779  20.754  0.00  0.00    +0.000 A 
ATOM     13  N   UNL     1       2.647   2.567  21.844  0.00  0.00    +0.000 NA
ATOM     14  C   UNL     1       1.370   2.845  21.446  0.00  0.00    +0.000 A 
ATOM     15  N   UNL     1       1.240   3.223  20.172  0.00  0.00    +0.000 NA
ENDBRANCH  10  11
ENDBRANCH   1  10
BRANCH   1  16
ATOM     16  C   UNL     1       4.575   5.057  17.428  0.00  0.00    +0.000 C 
BRANCH  16  17
ATOM     17  N   UNL     1       5.866   5.421  18.011  0.00  0.00    +0.000 N 
ATOM     18  C   UNL     1       6.750   6.362  17.572  0.00  0.00    +0.000 A 
ATOM     19  N   UNL     1       7.723   6.496  18.445  0.00  0.00    +0.000 NA
ATOM     20  C   UNL     1       7.369   5.617  19.430  0.00  0.00    +0.000 A 
ATOM     21  N   UNL     1       6.246   4.929  19.209  0.00  0.00    +0.000 NA
ENDBRANCH  16  17
ENDBRANCH   1  16
TORSDOF 10
ENDMDL
MODEL 6
REMARK VINA RESULT:      -5.8      1.564      6.422
REMARK  Name = 
REMARK  12 active torsions:
REMARK  status: ('A' for Active; 'I' for Inactive)
REMARK    1  A    between atoms: C_1  and  C_2
REMARK    2  A    between atoms: C_2  and  N_3
REMARK    3  A    between atoms: N_3  and  C_4
REMARK    4  A    between atoms: N_3  and  C_6
REMARK    5  A    between atoms: C_4  and  C_5
REMARK    6  A    between atoms: C_6  and  C_7
REMARK    7  A    between atoms: C_7  and  C_8
REMARK    8  A    between atoms: C_8  and  N_9
REMARK    9  A    between atoms: N_9  and  C_10
REMARK   10  A    between atoms: N_9  and  C_16
REMARK   11  A    between atoms: C_10  and  N_11
REMARK   12  A    between atoms: C_16  and  N_17
REMARK                            x       y       z     vdW  Elec       q    Type
REMARK                         _______ _______ _______ _____ _____    ______ ____
ROOT
ATOM      1  N   UNL     1       4.758   4.447  18.286  0.00  0.00    +0.000 NA
ENDROOT
BRANCH   1   2
ATOM      2  C   UNL     1       4.374   5.715  18.981  0.00  0.00    +0.000 C 
BRANCH   2   3
ATOM      3  C   UNL     1       2.947   6.193  18.643  0.00  0.00    +0.000 C 
BRANCH   3   4
ATOM      4  C   UNL     1       2.192   6.815  19.836  0.00  0.00    +0.000 C 
BRANCH   4   5
ATOM      5  N   UNL     1       1.954   8.268  19.757  0.00  0.00    +0.000 NA
BRANCH   5   7
ATOM      6  C   UNL     1       0.896   9.997  18.264  0.00  0.00    +0.000 C 
ATOM      7  C   UNL     1       1.777   8.756  18.379  0.00  0.00    +0.000 C 
ENDBRANCH   5   7
BRANCH   5   8
ATOM      8  C   UNL     1       0.876   8.687  20.675  0.00  0.00    +0.000 C 
ATOM      9  C   UNL     1       1.287   9.036  22.106  0.00  0.00    +0.000 C 
ENDBRANCH   5   8
ENDBRANCH   4   5
ENDBRANCH   3   4
ENDBRANCH   2   3
ENDBRANCH   1   2
BRANCH   1  10
ATOM     10  C   UNL     1       6.198   4.527  17.915  0.00  0.00    +0.000 C 
BRANCH  10  11
ATOM     11  N   UNL     1       6.391   4.428  16.469  0.00  0.00    +0.000 N 
ATOM     12  C   UNL     1       5.518   3.939  15.548  0.00  0.00    +0.000 A 
ATOM     13  N   UNL     1       5.983   4.162  14.339  0.00  0.00    +0.000 NA
ATOM     14  C   UNL     1       7.158   4.815  14.577  0.00  0.00    +0.000 A 
ATOM     15  N   UNL     1       7.448   5.016  15.865  0.00  0.00    +0.000 NA
ENDBRANCH  10  11
ENDBRANCH   1  10
BRANCH   1  16
ATOM     16  C   UNL     1       4.582   3.288  19.211  0.00  0.00    +0.000 C 
BRANCH  16  17
ATOM     17  N   UNL     1       3.169   3.007  19.466  0.00  0.00    +0.000 N 
ATOM     18  C   UNL     1       2.250   2.477  18.609  0.00  0.00    +0.000 A 
ATOM     19  N   UNL     1       1.129   2.241  19.253  0.00  0.00    +0.000 NA
ATOM     20  C   UNL     1       1.426   2.629  20.529  0.00  0.00    +0.000 A 
ATOM     21  N   UNL     1       2.658   3.112  20.711  0.00  0.00    +0.000 NA
ENDBRANCH  16  17
ENDBRANCH   1  16
TORSDOF 10
ENDMDL
MODEL 7
REMARK VINA RESULT:      -5.8      1.650      5.493
REMARK  Name = 
REMARK  12 active torsions:
REMARK  status: ('A' for Active; 'I' for Inactive)
REMARK    1  A    between atoms: C_1  and  C_2
REMARK    2  A    between atoms: C_2  and  N_3
REMARK    3  A    between atoms: N_3  and  C_4
REMARK    4  A    between atoms: N_3  and  C_6
REMARK    5  A    between atoms: C_4  and  C_5
REMARK    6  A    between atoms: C_6  and  C_7
REMARK    7  A    between atoms: C_7  and  C_8
REMARK    8  A    between atoms: C_8  and  N_9
REMARK    9  A    between atoms: N_9  and  C_10
REMARK   10  A    between atoms: N_9  and  C_16
REMARK   11  A    between atoms: C_10  and  N_11
REMARK   12  A    between atoms: C_16  and  N_17
REMARK                            x       y       z     vdW  Elec       q    Type
REMARK                         _______ _______ _______ _____ _____    ______ ____
ROOT
ATOM      1  N   UNL     1       3.529   4.633  18.436  0.00  0.00    +0.000 NA
ENDROOT
BRANCH   1   2
ATOM      2  C   UNL     1       2.423   5.558  18.033  0.00  0.00    +0.000 C 
BRANCH   2   3
ATOM      3  C   UNL     1       2.714   7.038  18.351  0.00  0.00    +0.000 C 
BRANCH   3   4
ATOM      4  C   UNL     1       2.292   7.472  19.770  0.00  0.00    +0.000 C 
BRANCH   4   5
ATOM      5  N   UNL     1       1.187   8.445  19.841  0.00  0.00    +0.000 NA
BRANCH   5   7
ATOM      6  C   UNL     1      -0.296   8.772  21.848  0.00  0.00    +0.000 C 
ATOM      7  C   UNL     1       1.039   9.063  21.169  0.00  0.00    +0.000 C 
ENDBRANCH   5   7
BRANCH   5   8
ATOM      8  C   UNL     1       1.260   9.424  18.738  0.00  0.00    +0.000 C 
ATOM      9  C   UNL     1       1.207  10.903  19.124  0.00  0.00    +0.000 C 
ENDBRANCH   5   8
ENDBRANCH   4   5
ENDBRANCH   3   4
ENDBRANCH   2   3
ENDBRANCH   1   2
BRANCH   1  10
ATOM     10  C   UNL     1       2.984   3.250  18.517  0.00  0.00    +0.000 C 
BRANCH  10  11
ATOM     11  N   UNL     1       2.531   2.925  19.869  0.00  0.00    +0.000 N 
ATOM     12  C   UNL     1       3.299   2.667  20.962  0.00  0.00    +0.000 A 
ATOM     13  N   UNL     1       2.534   2.576  22.026  0.00  0.00    +0.000 NA
ATOM     14  C   UNL     1       1.283   2.805  21.526  0.00  0.00    +0.000 A 
ATOM     15  N   UNL     1       1.228   3.038  20.213  0.00  0.00    +0.000 NA
ENDBRANCH  10  11
ENDBRANCH   1  10
BRANCH   1  16
ATOM     16  C   UNL     1       4.605   4.647  17.400  0.00  0.00    +0.000 C 
BRANCH  16  17
ATOM     17  N   UNL     1       5.851   5.210  17.920  0.00  0.00    +0.000 N 
ATOM     18  C   UNL     1       6.545   6.288  17.454  0.00  0.00    +0.000 A 
ATOM     19  N   UNL     1       7.531   6.568  18.277  0.00  0.00    +0.000 NA
ATOM     20  C   UNL     1       7.381   5.631  19.261  0.00  0.00    +0.000 A 
ATOM     21  N   UNL     1       6.373   4.772  19.086  0.00  0.00    +0.000 NA
ENDBRANCH  16  17
ENDBRANCH   1  16
TORSDOF 10
ENDMDL
MODEL 8
REMARK VINA RESULT:      -5.8      1.669      5.897
REMARK  Name = 
REMARK  12 active torsions:
REMARK  status: ('A' for Active; 'I' for Inactive)
REMARK    1  A    between atoms: C_1  and  C_2
REMARK    2  A    between atoms: C_2  and  N_3
REMARK    3  A    between atoms: N_3  and  C_4
REMARK    4  A    between atoms: N_3  and  C_6
REMARK    5  A    between atoms: C_4  and  C_5
REMARK    6  A    between atoms: C_6  and  C_7
REMARK    7  A    between atoms: C_7  and  C_8
REMARK    8  A    between atoms: C_8  and  N_9
REMARK    9  A    between atoms: N_9  and  C_10
REMARK   10  A    between atoms: N_9  and  C_16
REMARK   11  A    between atoms: C_10  and  N_11
REMARK   12  A    between atoms: C_16  and  N_17
REMARK                            x       y       z     vdW  Elec       q    Type
REMARK                         _______ _______ _______ _____ _____    ______ ____
ROOT
ATOM      1  N   UNL     1       3.211   6.319  18.719  0.00  0.00    +0.000 NA
ENDROOT
BRANCH   1   2
ATOM      2  C   UNL     1       2.285   7.471  18.958  0.00  0.00    +0.000 C 
BRANCH   2   3
ATOM      3  C   UNL     1       2.265   8.492  17.803  0.00  0.00    +0.000 C 
BRANCH   3   4
ATOM      4  C   UNL     1       1.650   9.856  18.180  0.00  0.00    +0.000 C 
BRANCH   4   5
ATOM      5  N   UNL     1       0.520   9.810  19.126  0.00  0.00    +0.000 NA
BRANCH   5   7
ATOM      6  C   UNL     1      -0.244  10.081  21.508  0.00  0.00    +0.000 C 
ATOM      7  C   UNL     1       0.886  10.218  20.492  0.00  0.00    +0.000 C 
ENDBRANCH   5   7
BRANCH   5   8
ATOM      8  C   UNL     1      -0.658  10.523  18.592  0.00  0.00    +0.000 C 
ATOM      9  C   UNL     1      -1.374   9.879  17.405  0.00  0.00    +0.000 C 
ENDBRANCH   5   8
ENDBRANCH   4   5
ENDBRANCH   3   4
ENDBRANCH   2   3
ENDBRANCH   1   2
BRANCH   1  10
ATOM     10  C   UNL     1       2.402   5.137  18.314  0.00  0.00    +0.000 C 
BRANCH  10  11
ATOM     11  N   UNL     1       2.254   4.180  19.410  0.00  0.00    +0.000 N 
ATOM     12  C   UNL     1       3.226   3.420  19.984  0.00  0.00    +0.000 A 
ATOM     13  N   UNL     1       2.739   2.806  21.038  0.00  0.00    +0.000 NA
ATOM     14  C   UNL     1       1.445   3.242  21.078  0.00  0.00    +0.000 A 
ATOM     15  N   UNL     1       1.102   4.096  20.111  0.00  0.00    +0.000 NA
ENDBRANCH  10  11
ENDBRANCH   1  10
BRANCH   1  16
ATOM     16  C   UNL     1       4.148   6.644  17.603  0.00  0.00    +0.000 C 
BRANCH  16  17
ATOM     17  N   UNL     1       5.393   5.881  17.700  0.00  0.00    +0.000 N 
ATOM     18  C   UNL     1       6.035   5.461  18.827  0.00  0.00    +0.000 A 
ATOM     19  N   UNL     1       7.039   4.680  18.498  0.00  0.00    +0.000 NA
ATOM     20  C   UNL     1       6.953   4.632  17.136  0.00  0.00    +0.000 A 
ATOM     21  N   UNL     1       5.968   5.356  16.597  0.00  0.00    +0.000 NA
ENDBRANCH  16  17
ENDBRANCH   1  16
TORSDOF 10
ENDMDL
MODEL 9
REMARK VINA RESULT:      -5.7      1.490      6.326
REMARK  Name = 
REMARK  12 active torsions:
REMARK  status: ('A' for Active; 'I' for Inactive)
REMARK    1  A    between atoms: C_1  and  C_2
REMARK    2  A    between atoms: C_2  and  N_3
REMARK    3  A    between atoms: N_3  and  C_4
REMARK    4  A    between atoms: N_3  and  C_6
REMARK    5  A    between atoms: C_4  and  C_5
REMARK    6  A    between atoms: C_6  and  C_7
REMARK    7  A    between atoms: C_7  and  C_8
REMARK    8  A    between atoms: C_8  and  N_9
REMARK    9  A    between atoms: N_9  and  C_10
REMARK   10  A    between atoms: N_9  and  C_16
REMARK   11  A    between atoms: C_10  and  N_11
REMARK   12  A    between atoms: C_16  and  N_17
REMARK                            x       y       z     vdW  Elec       q    Type
REMARK                         _______ _______ _______ _____ _____    ______ ____
ROOT
ATOM      1  N   UNL     1       4.549   4.518  18.673  0.00  0.00    +0.000 NA
ENDROOT
BRANCH   1   2
ATOM      2  C   UNL     1       3.986   5.697  19.404  0.00  0.00    +0.000 C 
BRANCH   2   3
ATOM      3  C   UNL     1       2.616   6.157  18.866  0.00  0.00    +0.000 C 
BRANCH   3   4
ATOM      4  C   UNL     1       2.592   7.617  18.369  0.00  0.00    +0.000 C 
BRANCH   4   5
ATOM      5  N   UNL     1       2.005   8.601  19.297  0.00  0.00    +0.000 NA
BRANCH   5   7
ATOM      6  C   UNL     1       1.471  10.956  18.589  0.00  0.00    +0.000 C 
ATOM      7  C   UNL     1       1.029   9.497  18.655  0.00  0.00    +0.000 C 
ENDBRANCH   5   7
BRANCH   5   8
ATOM      8  C   UNL     1       1.495   7.949  20.520  0.00  0.00    +0.000 C 
ATOM      9  C   UNL     1       1.187   8.860  21.709  0.00  0.00    +0.000 C 
ENDBRANCH   5   8
ENDBRANCH   4   5
ENDBRANCH   3   4
ENDBRANCH   2   3
ENDBRANCH   1   2
BRANCH   1  10
ATOM     10  C   UNL     1       5.968   4.807  18.330  0.00  0.00    +0.000 C 
BRANCH  10  11
ATOM     11  N   UNL     1       6.165   4.909  16.884  0.00  0.00    +0.000 N 
ATOM     12  C   UNL     1       5.338   5.491  15.974  0.00  0.00    +0.000 A 
ATOM     13  N   UNL     1       5.930   5.524  14.800  0.00  0.00    +0.000 NA
ATOM     14  C   UNL     1       7.145   4.954  15.052  0.00  0.00    +0.000 A 
ATOM     15  N   UNL     1       7.345   4.572  16.316  0.00  0.00    +0.000 NA
ENDBRANCH  10  11
ENDBRANCH   1  10
BRANCH   1  16
ATOM     16  C   UNL     1       4.521   3.314  19.556  0.00  0.00    +0.000 C 
BRANCH  16  17
ATOM     17  N   UNL     1       3.153   2.914  19.886  0.00  0.00    +0.000 N 
ATOM     18  C   UNL     1       2.528   2.976  21.096  0.00  0.00    +0.000 A 
ATOM     19  N   UNL     1       1.259   2.665  20.955  0.00  0.00    +0.000 NA
ATOM     20  C   UNL     1       1.150   2.439  19.612  0.00  0.00    +0.000 A 
ATOM     21  N   UNL     1       2.281   2.571  18.914  0.00  0.00    +0.000 NA
ENDBRANCH  16  17
ENDBRANCH   1  16
TORSDOF 10
ENDMDL
