MODEL 1
REMARK VINA RESULT:      -7.9      0.000      0.000
REMARK  Name = 
REMARK  4 active torsions:
REMARK  status: ('A' for Active; 'I' for Inactive)
REMARK    1  A    between atoms: C_1  and  C_2
REMARK    2  A    between atoms: C_4  and  C_5
REMARK    3  A    between atoms: C_12  and  C_13
REMARK    4  A    between atoms: N_15  and  C_16
REMARK                            x       y       z     vdW  Elec       q    Type
REMARK                         _______ _______ _______ _____ _____    ______ ____
ROOT
ATOM      1  C   UNL     1       1.736   6.683  20.898  0.00  0.00    +0.000 C 
ATOM      2  C   UNL     1       2.264   5.685  19.913  0.00  0.00    +0.000 A 
ATOM      3  C   UNL     1       1.606   4.502  19.669  0.00  0.00    +0.000 A 
ATOM      4  C   UNL     1       2.203   3.657  18.758  0.00  0.00    +0.000 A 
ATOM      5  C   UNL     1       1.616   2.321  18.428  0.00  0.00    +0.000 C 
ATOM      6  N   UNL     1       3.359   3.965  18.140  0.00  0.00    +0.000 NA
ATOM      7  C   UNL     1       3.955   5.125  18.437  0.00  0.00    +0.000 A 
ATOM      8  N   UNL     1       5.203   5.391  17.901  0.00  0.00    +0.000 N 
ATOM      9  C   UNL     1       5.622   4.610  16.742  0.00  0.00    +0.000 C 
ATOM     10  C   UNL     1       7.151   4.579  16.703  0.00  0.00    +0.000 C 
ATOM     11  C   UNL     1       7.755   5.978  16.784  0.00  0.00    +0.000 C 
ATOM     12  C   UNL     1       7.179   6.798  17.954  0.00  0.00    +0.000 C 
ATOM     13  C   UNL     1       5.650   6.779  17.918  0.00  0.00    +0.000 C 
ATOM     14  N   UNL     1       3.424   6.002  19.308  0.00  0.00    +0.000 NA
ENDROOT
BRANCH  12  15
ATOM     15  C   UNL     1       7.668   8.240  17.883  0.00  0.00    +0.000 C 
ATOM     16  O   UNL     1       7.248   9.005  17.018  0.00  0.00    +0.000 OA
ATOM     17  N   UNL     1       8.626   8.565  18.836  0.00  0.00    +0.000 N 
ATOM     18  H   UNL     1       9.090   7.800  19.316  0.00  0.00    +0.000 HD
BRANCH  17  19
ATOM     19  C   UNL     1       9.160   9.857  19.040  0.00  0.00    +0.000 A 
ATOM     20  C   UNL     1       9.228  10.451  20.316  0.00  0.00    +0.000 A 
ATOM     21  C   UNL     1       9.667  11.767  20.483  0.00  0.00    +0.000 A 
ATOM     22  C   UNL     1      10.041  12.457  19.357  0.00  0.00    +0.000 A 
ATOM     23  C   UNL     1      10.033  11.869  18.114  0.00  0.00    +0.000 A 
ATOM     24  C   UNL     1       9.625  10.563  17.923  0.00  0.00    +0.000 A 
ATOM     25  O   UNL     1      10.437  12.729  17.138  0.00  0.00    +0.000 OA
ATOM     26  C   UNL     1      10.593  13.946  17.901  0.00  0.00    +0.000 C 
ATOM     27  O   UNL     1      10.437  13.756  19.321  0.00  0.00    +0.000 OA
ENDBRANCH  17  19
ENDBRANCH  12  15
TORSDOF 2
ENDMDL
MODEL 2
REMARK VINA RESULT:      -7.8      3.453      9.321
REMARK  Name = 
REMARK  4 active torsions:
REMARK  status: ('A' for Active; 'I' for Inactive)
REMARK    1  A    between atoms: C_1  and  C_2
REMARK    2  A    between atoms: C_4  and  C_5
REMARK    3  A    between atoms: C_12  and  C_13
REMARK    4  A    between atoms: N_15  and  C_16
REMARK                            x       y       z     vdW  Elec       q    Type
REMARK                         _______ _______ _______ _____ _____    ______ ____
ROOT
ATOM      1  C   UNL     1       5.143  15.637  18.827  0.00  0.00    +0.000 C 
ATOM      2  C   UNL     1       6.619  15.820  18.655  0.00  0.00    +0.000 A 
ATOM      3  C   UNL     1       7.177  17.071  18.519  0.00  0.00    +0.000 A 
ATOM      4  C   UNL     1       8.543  17.107  18.344  0.00  0.00    +0.000 A 
ATOM      5  C   UNL     1       9.273  18.397  18.145  0.00  0.00    +0.000 C 
ATOM      6  N   UNL     1       9.294  15.989  18.308  0.00  0.00    +0.000 NA
ATOM      7  C   UNL     1       8.686  14.804  18.430  0.00  0.00    +0.000 A 
ATOM      8  N   UNL     1       9.433  13.650  18.270  0.00  0.00    +0.000 N 
ATOM      9  C   UNL     1      10.884  13.762  18.386  0.00  0.00    +0.000 C 
ATOM     10  C   UNL     1      11.525  12.624  17.592  0.00  0.00    +0.000 C 
ATOM     11  C   UNL     1      10.955  11.262  17.980  0.00  0.00    +0.000 C 
ATOM     12  C   UNL     1       9.415  11.244  17.960  0.00  0.00    +0.000 C 
ATOM     13  C   UNL     1       8.856  12.411  18.777  0.00  0.00    +0.000 C 
ATOM     14  N   UNL     1       7.358  14.695  18.614  0.00  0.00    +0.000 NA
ENDROOT
BRANCH  12  15
ATOM     15  C   UNL     1       8.892   9.931  18.531  0.00  0.00    +0.000 C 
ATOM     16  O   UNL     1       9.018   9.670  19.725  0.00  0.00    +0.000 OA
ATOM     17  N   UNL     1       8.319   9.087  17.588  0.00  0.00    +0.000 N 
ATOM     18  H   UNL     1       8.506   9.280  16.610  0.00  0.00    +0.000 HD
BRANCH  17  19
ATOM     19  C   UNL     1       7.675   7.864  17.881  0.00  0.00    +0.000 A 
ATOM     20  C   UNL     1       8.205   6.933  18.797  0.00  0.00    +0.000 A 
ATOM     21  C   UNL     1       7.605   5.688  18.997  0.00  0.00    +0.000 A 
ATOM     22  C   UNL     1       6.472   5.408  18.276  0.00  0.00    +0.000 A 
ATOM     23  C   UNL     1       5.913   6.329  17.422  0.00  0.00    +0.000 A 
ATOM     24  C   UNL     1       6.473   7.577  17.221  0.00  0.00    +0.000 A 
ATOM     25  O   UNL     1       4.798   5.848  16.806  0.00  0.00    +0.000 OA
ATOM     26  C   UNL     1       4.789   4.488  17.293  0.00  0.00    +0.000 C 
ATOM     27  O   UNL     1       5.790   4.233  18.297  0.00  0.00    +0.000 OA
ENDBRANCH  17  19
ENDBRANCH  12  15
TORSDOF 2
ENDMDL
MODEL 3
REMARK VINA RESULT:      -7.8      4.971      8.678
REMARK  Name = 
REMARK  4 active torsions:
REMARK  status: ('A' for Active; 'I' for Inactive)
REMARK    1  A    between atoms: C_1  and  C_2
REMARK    2  A    between atoms: C_4  and  C_5
REMARK    3  A    between atoms: C_12  and  C_13
REMARK    4  A    between atoms: N_15  and  C_16
REMARK                            x       y       z     vdW  Elec       q    Type
REMARK                         _______ _______ _______ _____ _____    ______ ____
ROOT
ATOM      1  C   UNL     1       2.247  14.616  19.152  0.00  0.00    +0.000 C 
ATOM      2  C   UNL     1       1.380  13.912  20.151  0.00  0.00    +0.000 A 
ATOM      3  C   UNL     1       0.663  14.610  21.096  0.00  0.00    +0.000 A 
ATOM      4  C   UNL     1      -0.080  13.849  21.972  0.00  0.00    +0.000 A 
ATOM      5  C   UNL     1      -0.874  14.476  23.074  0.00  0.00    +0.000 C 
ATOM      6  N   UNL     1      -0.108  12.504  21.913  0.00  0.00    +0.000 NA
ATOM      7  C   UNL     1       0.626  11.888  20.979  0.00  0.00    +0.000 A 
ATOM      8  N   UNL     1       0.700  10.506  20.991  0.00  0.00    +0.000 N 
ATOM      9  C   UNL     1      -0.324   9.781  21.737  0.00  0.00    +0.000 C 
ATOM     10  C   UNL     1       0.247   8.425  22.156  0.00  0.00    +0.000 C 
ATOM     11  C   UNL     1       0.839   7.663  20.973  0.00  0.00    +0.000 C 
ATOM     12  C   UNL     1       1.816   8.523  20.151  0.00  0.00    +0.000 C 
ATOM     13  C   UNL     1       1.168   9.856  19.773  0.00  0.00    +0.000 C 
ATOM     14  N   UNL     1       1.366  12.567  20.085  0.00  0.00    +0.000 NA
ENDROOT
BRANCH  12  15
ATOM     15  C   UNL     1       2.235   7.787  18.883  0.00  0.00    +0.000 C 
ATOM     16  O   UNL     1       1.819   8.143  17.783  0.00  0.00    +0.000 OA
ATOM     17  N   UNL     1       3.067   6.697  19.105  0.00  0.00    +0.000 N 
ATOM     18  H   UNL     1       3.128   6.337  20.051  0.00  0.00    +0.000 HD
BRANCH  17  19
ATOM     19  C   UNL     1       3.669   5.918  18.091  0.00  0.00    +0.000 A 
ATOM     20  C   UNL     1       3.231   4.614  17.782  0.00  0.00    +0.000 A 
ATOM     21  C   UNL     1       3.902   3.825  16.846  0.00  0.00    +0.000 A 
ATOM     22  C   UNL     1       4.999   4.371  16.228  0.00  0.00    +0.000 A 
ATOM     23  C   UNL     1       5.402   5.661  16.479  0.00  0.00    +0.000 A 
ATOM     24  C   UNL     1       4.743   6.472  17.384  0.00  0.00    +0.000 A 
ATOM     25  O   UNL     1       6.510   6.001  15.765  0.00  0.00    +0.000 OA
ATOM     26  C   UNL     1       6.812   4.741  15.124  0.00  0.00    +0.000 C 
ATOM     27  O   UNL     1       5.805   3.734  15.338  0.00  0.00    +0.000 OA
ENDBRANCH  17  19
ENDBRANCH  12  15
TORSDOF 2
ENDMDL
MODEL 4
REMARK VINA RESULT:      -7.8      5.944      9.326
REMARK  Name = 
REMARK  4 active torsions:
REMARK  status: ('A' for Active; 'I' for Inactive)
REMARK    1  A    between atoms: C_1  and  C_2
REMARK    2  A    between atoms: C_4  and  C_5
REMARK    3  A    between atoms: C_12  and  C_13
REMARK    4  A    between atoms: N_15  and  C_16
REMARK                            x       y       z     vdW  Elec       q    Type
REMARK                         _______ _______ _______ _____ _____    ______ ____
ROOT
ATOM      1  C   UNL     1      -3.709  10.185  14.533  0.00  0.00    +0.000 C 
ATOM      2  C   UNL     1      -3.697  10.732  15.927  0.00  0.00    +0.000 A 
ATOM      3  C   UNL     1      -4.745  11.478  16.415  0.00  0.00    +0.000 A 
ATOM      4  C   UNL     1      -4.606  11.943  17.704  0.00  0.00    +0.000 A 
ATOM      5  C   UNL     1      -5.653  12.800  18.344  0.00  0.00    +0.000 C 
ATOM      6  N   UNL     1      -3.513  11.688  18.448  0.00  0.00    +0.000 NA
ATOM      7  C   UNL     1      -2.523  10.970  17.906  0.00  0.00    +0.000 A 
ATOM      8  N   UNL     1      -1.347  10.809  18.619  0.00  0.00    +0.000 N 
ATOM      9  C   UNL     1      -1.387  11.065  20.056  0.00  0.00    +0.000 C 
ATOM     10  C   UNL     1       0.018  11.451  20.520  0.00  0.00    +0.000 C 
ATOM     11  C   UNL     1       1.067  10.434  20.079  0.00  0.00    +0.000 C 
ATOM     12  C   UNL     1       0.975  10.111  18.577  0.00  0.00    +0.000 C 
ATOM     13  C   UNL     1      -0.458   9.734  18.197  0.00  0.00    +0.000 C 
ATOM     14  N   UNL     1      -2.595  10.475  16.658  0.00  0.00    +0.000 NA
ENDROOT
BRANCH  12  15
ATOM     15  C   UNL     1       1.911   8.960  18.223  0.00  0.00    +0.000 C 
ATOM     16  O   UNL     1       2.573   8.983  17.188  0.00  0.00    +0.000 OA
ATOM     17  N   UNL     1       1.901   7.915  19.138  0.00  0.00    +0.000 N 
ATOM     18  H   UNL     1       1.134   7.878  19.802  0.00  0.00    +0.000 HD
BRANCH  17  19
ATOM     19  C   UNL     1       2.749   6.786  19.088  0.00  0.00    +0.000 A 
ATOM     20  C   UNL     1       3.837   6.699  18.195  0.00  0.00    +0.000 A 
ATOM     21  C   UNL     1       4.602   5.535  18.092  0.00  0.00    +0.000 A 
ATOM     22  C   UNL     1       4.261   4.480  18.902  0.00  0.00    +0.000 A 
ATOM     23  C   UNL     1       3.239   4.573  19.817  0.00  0.00    +0.000 A 
ATOM     24  C   UNL     1       2.481   5.720  19.956  0.00  0.00    +0.000 A 
ATOM     25  O   UNL     1       3.068   3.415  20.513  0.00  0.00    +0.000 OA
ATOM     26  C   UNL     1       4.029   2.561  19.853  0.00  0.00    +0.000 C 
ATOM     27  O   UNL     1       4.852   3.257  18.898  0.00  0.00    +0.000 OA
ENDBRANCH  17  19
ENDBRANCH  12  15
TORSDOF 2
ENDMDL
MODEL 5
REMARK VINA RESULT:      -7.7      5.831     10.289
REMARK  Name = 
REMARK  4 active torsions:
REMARK  status: ('A' for Active; 'I' for Inactive)
REMARK    1  A    between atoms: C_1  and  C_2
REMARK    2  A    between atoms: C_4  and  C_5
REMARK    3  A    between atoms: C_12  and  C_13
REMARK    4  A    between atoms: N_15  and  C_16
REMARK                            x       y       z     vdW  Elec       q    Type
REMARK                         _______ _______ _______ _____ _____    ______ ____
ROOT
ATOM      1  C   UNL     1       3.028  14.801  19.253  0.00  0.00    +0.000 C 
ATOM      2  C   UNL     1       1.910  14.548  20.216  0.00  0.00    +0.000 A 
ATOM      3  C   UNL     1       1.272  15.581  20.863  0.00  0.00    +0.000 A 
ATOM      4  C   UNL     1       0.275  15.219  21.742  0.00  0.00    +0.000 A 
ATOM      5  C   UNL     1      -0.473  16.239  22.541  0.00  0.00    +0.000 C 
ATOM      6  N   UNL     1      -0.061  13.933  21.960  0.00  0.00    +0.000 NA
ATOM      7  C   UNL     1       0.612  12.976  21.310  0.00  0.00    +0.000 A 
ATOM      8  N   UNL     1       0.357  11.651  21.622  0.00  0.00    +0.000 N 
ATOM      9  C   UNL     1      -0.888  11.348  22.321  0.00  0.00    +0.000 C 
ATOM     10  C   UNL     1      -0.703  10.046  23.102  0.00  0.00    +0.000 C 
ATOM     11  C   UNL     1      -0.172   8.919  22.219  0.00  0.00    +0.000 C 
ATOM     12  C   UNL     1       1.069   9.342  21.411  0.00  0.00    +0.000 C 
ATOM     13  C   UNL     1       0.799  10.648  20.662  0.00  0.00    +0.000 C 
ATOM     14  N   UNL     1       1.589  13.257  20.431  0.00  0.00    +0.000 NA
ENDROOT
BRANCH  12  15
ATOM     15  C   UNL     1       1.447   8.254  20.412  0.00  0.00    +0.000 C 
ATOM     16  O   UNL     1       1.482   8.492  19.207  0.00  0.00    +0.000 OA
ATOM     17  N   UNL     1       1.698   7.014  20.986  0.00  0.00    +0.000 N 
ATOM     18  H   UNL     1       1.384   6.866  21.939  0.00  0.00    +0.000 HD
BRANCH  17  19
ATOM     19  C   UNL     1       2.162   5.877  20.288  0.00  0.00    +0.000 A 
ATOM     20  C   UNL     1       3.337   5.898  19.509  0.00  0.00    +0.000 A 
ATOM     21  C   UNL     1       3.723   4.793  18.748  0.00  0.00    +0.000 A 
ATOM     22  C   UNL     1       2.922   3.680  18.795  0.00  0.00    +0.000 A 
ATOM     23  C   UNL     1       1.805   3.628  19.594  0.00  0.00    +0.000 A 
ATOM     24  C   UNL     1       1.411   4.698  20.375  0.00  0.00    +0.000 A 
ATOM     25  O   UNL     1       1.153   2.437  19.488  0.00  0.00    +0.000 OA
ATOM     26  C   UNL     1       1.932   1.797  18.453  0.00  0.00    +0.000 C 
ATOM     27  O   UNL     1       3.108   2.540  18.079  0.00  0.00    +0.000 OA
ENDBRANCH  17  19
ENDBRANCH  12  15
TORSDOF 2
ENDMDL
MODEL 6
REMARK VINA RESULT:      -7.7      5.762      8.853
REMARK  Name = 
REMARK  4 active torsions:
REMARK  status: ('A' for Active; 'I' for Inactive)
REMARK    1  A    between atoms: C_1  and  C_2
REMARK    2  A    between atoms: C_4  and  C_5
REMARK    3  A    between atoms: C_12  and  C_13
REMARK    4  A    between atoms: N_15  and  C_16
REMARK                            x       y       z     vdW  Elec       q    Type
REMARK                         _______ _______ _______ _____ _____    ______ ____
ROOT
ATOM      1  C   UNL     1      -3.722  10.203  14.476  0.00  0.00    +0.000 C 
ATOM      2  C   UNL     1      -3.719  10.729  15.878  0.00  0.00    +0.000 A 
ATOM      3  C   UNL     1      -4.780  11.449  16.377  0.00  0.00    +0.000 A 
ATOM      4  C   UNL     1      -4.650  11.897  17.673  0.00  0.00    +0.000 A 
ATOM      5  C   UNL     1      -5.711  12.725  18.326  0.00  0.00    +0.000 C 
ATOM      6  N   UNL     1      -3.552  11.649  18.414  0.00  0.00    +0.000 NA
ATOM      7  C   UNL     1      -2.550  10.957  17.861  0.00  0.00    +0.000 A 
ATOM      8  N   UNL     1      -1.371  10.806  18.572  0.00  0.00    +0.000 N 
ATOM      9  C   UNL     1      -1.416  11.039  20.012  0.00  0.00    +0.000 C 
ATOM     10  C   UNL     1      -0.018  11.443  20.483  0.00  0.00    +0.000 C 
ATOM     11  C   UNL     1       1.049  10.450  20.027  0.00  0.00    +0.000 C 
ATOM     12  C   UNL     1       0.963  10.148  18.520  0.00  0.00    +0.000 C 
ATOM     13  C   UNL     1      -0.463   9.753  18.134  0.00  0.00    +0.000 C 
ATOM     14  N   UNL     1      -2.613  10.480  16.606  0.00  0.00    +0.000 NA
ENDROOT
BRANCH  12  15
ATOM     15  C   UNL     1       1.918   9.019  18.149  0.00  0.00    +0.000 C 
ATOM     16  O   UNL     1       2.564   9.060  17.104  0.00  0.00    +0.000 OA
ATOM     17  N   UNL     1       1.946   7.972  19.062  0.00  0.00    +0.000 N 
ATOM     18  H   UNL     1       1.190   7.917  19.736  0.00  0.00    +0.000 HD
BRANCH  17  19
ATOM     19  C   UNL     1       2.818   6.863  18.995  0.00  0.00    +0.000 A 
ATOM     20  C   UNL     1       2.657   5.728  19.815  0.00  0.00    +0.000 A 
ATOM     21  C   UNL     1       3.587   4.685  19.804  0.00  0.00    +0.000 A 
ATOM     22  C   UNL     1       4.659   4.803  18.955  0.00  0.00    +0.000 A 
ATOM     23  C   UNL     1       4.797   5.878  18.110  0.00  0.00    +0.000 A 
ATOM     24  C   UNL     1       3.880   6.913  18.084  0.00  0.00    +0.000 A 
ATOM     25  O   UNL     1       5.929   5.798  17.359  0.00  0.00    +0.000 OA
ATOM     26  C   UNL     1       6.532   4.606  17.909  0.00  0.00    +0.000 C 
ATOM     27  O   UNL     1       5.687   3.920  18.853  0.00  0.00    +0.000 OA
ENDBRANCH  17  19
ENDBRANCH  12  15
TORSDOF 2
ENDMDL
MODEL 7
REMARK VINA RESULT:      -7.6      0.709      1.445
REMARK  Name = 
REMARK  4 active torsions:
REMARK  status: ('A' for Active; 'I' for Inactive)
REMARK    1  A    between atoms: C_1  and  C_2
REMARK    2  A    between atoms: C_4  and  C_5
REMARK    3  A    between atoms: C_12  and  C_13
REMARK    4  A    between atoms: N_15  and  C_16
REMARK                            x       y       z     vdW  Elec       q    Type
REMARK                         _______ _______ _______ _____ _____    ______ ____
ROOT
ATOM      1  C   UNL     1       1.699   6.489  20.916  0.00  0.00    +0.000 C 
ATOM      2  C   UNL     1       2.255   5.490  19.948  0.00  0.00    +0.000 A 
ATOM      3  C   UNL     1       1.638   4.279  19.732  0.00  0.00    +0.000 A 
ATOM      4  C   UNL     1       2.258   3.436  18.836  0.00  0.00    +0.000 A 
ATOM      5  C   UNL     1       1.716   2.074  18.538  0.00  0.00    +0.000 C 
ATOM      6  N   UNL     1       3.400   3.771  18.204  0.00  0.00    +0.000 NA
ATOM      7  C   UNL     1       3.956   4.958  18.473  0.00  0.00    +0.000 A 
ATOM      8  N   UNL     1       5.192   5.255  17.923  0.00  0.00    +0.000 N 
ATOM      9  C   UNL     1       5.631   4.465  16.778  0.00  0.00    +0.000 C 
ATOM     10  C   UNL     1       7.159   4.486  16.729  0.00  0.00    +0.000 C 
ATOM     11  C   UNL     1       7.714   5.907  16.778  0.00  0.00    +0.000 C 
ATOM     12  C   UNL     1       7.117   6.730  17.934  0.00  0.00    +0.000 C 
ATOM     13  C   UNL     1       5.590   6.658  17.909  0.00  0.00    +0.000 C 
ATOM     14  N   UNL     1       3.401   5.834  19.328  0.00  0.00    +0.000 NA
ENDROOT
BRANCH  12  15
ATOM     15  C   UNL     1       7.556   8.187  17.830  0.00  0.00    +0.000 C 
ATOM     16  O   UNL     1       7.033   8.945  17.016  0.00  0.00    +0.000 OA
ATOM     17  N   UNL     1       8.590   8.534  18.690  0.00  0.00    +0.000 N 
ATOM     18  H   UNL     1       9.119   7.781  19.117  0.00  0.00    +0.000 HD
BRANCH  17  19
ATOM     19  C   UNL     1       9.103   9.840  18.854  0.00  0.00    +0.000 A 
ATOM     20  C   UNL     1       9.704  10.553  17.797  0.00  0.00    +0.000 A 
ATOM     21  C   UNL     1      10.293  11.802  18.004  0.00  0.00    +0.000 A 
ATOM     22  C   UNL     1      10.256  12.316  19.277  0.00  0.00    +0.000 A 
ATOM     23  C   UNL     1       9.624  11.656  20.304  0.00  0.00    +0.000 A 
ATOM     24  C   UNL     1       9.013  10.429  20.122  0.00  0.00    +0.000 A 
ATOM     25  O   UNL     1       9.708  12.337  21.480  0.00  0.00    +0.000 OA
ATOM     26  C   UNL     1      10.555  13.441  21.089  0.00  0.00    +0.000 C 
ATOM     27  O   UNL     1      10.825  13.483  19.675  0.00  0.00    +0.000 OA
ENDBRANCH  17  19
ENDBRANCH  12  15
TORSDOF 2
ENDMDL
MODEL 8
REMARK VINA RESULT:      -7.6      5.760      9.473
REMARK  Name = 
REMARK  4 active torsions:
REMARK  status: ('A' for Active; 'I' for Inactive)
REMARK    1  A    between atoms: C_1  and  C_2
REMARK    2  A    between atoms: C_4  and  C_5
REMARK    3  A    between atoms: C_12  and  C_13
REMARK    4  A    between atoms: N_15  and  C_16
REMARK                            x       y       z     vdW  Elec       q    Type
REMARK                         _______ _______ _______ _____ _____    ______ ____
ROOT
ATOM      1  C   UNL     1       3.797  15.437  17.541  0.00  0.00    +0.000 C 
ATOM      2  C   UNL     1       2.574  15.220  18.377  0.00  0.00    +0.000 A 
ATOM      3  C   UNL     1       1.914  16.272  18.971  0.00  0.00    +0.000 A 
ATOM      4  C   UNL     1       0.815  15.941  19.733  0.00  0.00    +0.000 A 
ATOM      5  C   UNL     1       0.030  16.982  20.466  0.00  0.00    +0.000 C 
ATOM      6  N   UNL     1       0.405  14.668  19.892  0.00  0.00    +0.000 NA
ATOM      7  C   UNL     1       1.102  13.692  19.300  0.00  0.00    +0.000 A 
ATOM      8  N   UNL     1       0.760  12.376  19.559  0.00  0.00    +0.000 N 
ATOM      9  C   UNL     1      -0.563  12.118  20.117  0.00  0.00    +0.000 C 
ATOM     10  C   UNL     1      -0.517  10.799  20.890  0.00  0.00    +0.000 C 
ATOM     11  C   UNL     1       0.057   9.662  20.049  0.00  0.00    +0.000 C 
ATOM     12  C   UNL     1       1.393  10.041  19.384  0.00  0.00    +0.000 C 
ATOM     13  C   UNL     1       1.259  11.367  18.633  0.00  0.00    +0.000 C 
ATOM     14  N   UNL     1       2.178  13.942  18.533  0.00  0.00    +0.000 NA
ENDROOT
BRANCH  12  15
ATOM     15  C   UNL     1       1.830   8.951  18.411  0.00  0.00    +0.000 C 
ATOM     16  O   UNL     1       1.749   9.123  17.197  0.00  0.00    +0.000 OA
ATOM     17  N   UNL     1       2.270   7.784  19.022  0.00  0.00    +0.000 N 
ATOM     18  H   UNL     1       2.045   7.653  20.003  0.00  0.00    +0.000 HD
BRANCH  17  19
ATOM     19  C   UNL     1       2.819   6.672  18.345  0.00  0.00    +0.000 A 
ATOM     20  C   UNL     1       2.211   5.400  18.366  0.00  0.00    +0.000 A 
ATOM     21  C   UNL     1       2.820   4.293  17.773  0.00  0.00    +0.000 A 
ATOM     22  C   UNL     1       4.031   4.491  17.158  0.00  0.00    +0.000 A 
ATOM     23  C   UNL     1       4.607   5.737  17.080  0.00  0.00    +0.000 A 
ATOM     24  C   UNL     1       4.015   6.854  17.639  0.00  0.00    +0.000 A 
ATOM     25  O   UNL     1       5.804   5.709  16.433  0.00  0.00    +0.000 OA
ATOM     26  C   UNL     1       5.956   4.290  16.211  0.00  0.00    +0.000 C 
ATOM     27  O   UNL     1       4.793   3.525  16.582  0.00  0.00    +0.000 OA
ENDBRANCH  17  19
ENDBRANCH  12  15
TORSDOF 2
ENDMDL
MODEL 9
REMARK VINA RESULT:      -7.6      5.729      9.918
REMARK  Name = 
REMARK  4 active torsions:
REMARK  status: ('A' for Active; 'I' for Inactive)
REMARK    1  A    between atoms: C_1  and  C_2
REMARK    2  A    between atoms: C_4  and  C_5
REMARK    3  A    between atoms: C_12  and  C_13
REMARK    4  A    between atoms: N_15  and  C_16
REMARK                            x       y       z     vdW  Elec       q    Type
REMARK                         _______ _______ _______ _____ _____    ______ ____
ROOT
ATOM      1  C   UNL     1       5.122  14.617  17.859  0.00  0.00    +0.000 C 
ATOM      2  C   UNL     1       3.727  14.748  18.390  0.00  0.00    +0.000 A 
ATOM      3  C   UNL     1       3.204  15.972  18.738  0.00  0.00    +0.000 A 
ATOM      4  C   UNL     1       1.919  15.961  19.235  0.00  0.00    +0.000 A 
ATOM      5  C   UNL     1       1.244  17.216  19.688  0.00  0.00    +0.000 C 
ATOM      6  N   UNL     1       1.211  14.823  19.375  0.00  0.00    +0.000 NA
ATOM      7  C   UNL     1       1.787  13.665  19.032  0.00  0.00    +0.000 A 
ATOM      8  N   UNL     1       1.113  12.483  19.289  0.00  0.00    +0.000 N 
ATOM      9  C   UNL     1      -0.325  12.563  19.530  0.00  0.00    +0.000 C 
ATOM     10  C   UNL     1      -0.744  11.360  20.376  0.00  0.00    +0.000 C 
ATOM     11  C   UNL     1      -0.267  10.041  19.774  0.00  0.00    +0.000 C 
ATOM     12  C   UNL     1       1.232  10.064  19.424  0.00  0.00    +0.000 C 
ATOM     13  C   UNL     1       1.565  11.294  18.578  0.00  0.00    +0.000 C 
ATOM     14  N   UNL     1       3.033  13.603  18.531  0.00  0.00    +0.000 NA
ENDROOT
BRANCH  12  15
ATOM     15  C   UNL     1       1.618   8.803  18.659  0.00  0.00    +0.000 C 
ATOM     16  O   UNL     1       1.414   8.715  17.450  0.00  0.00    +0.000 OA
ATOM     17  N   UNL     1       2.164   7.800  19.450  0.00  0.00    +0.000 N 
ATOM     18  H   UNL     1       2.040   7.874  20.454  0.00  0.00    +0.000 HD
BRANCH  17  19
ATOM     19  C   UNL     1       2.691   6.583  18.965  0.00  0.00    +0.000 A 
ATOM     20  C   UNL     1       3.705   6.536  17.986  0.00  0.00    +0.000 A 
ATOM     21  C   UNL     1       4.141   5.323  17.449  0.00  0.00    +0.000 A 
ATOM     22  C   UNL     1       3.553   4.175  17.917  0.00  0.00    +0.000 A 
ATOM     23  C   UNL     1       2.604   4.203  18.912  0.00  0.00    +0.000 A 
ATOM     24  C   UNL     1       2.169   5.387  19.477  0.00  0.00    +0.000 A 
ATOM     25  O   UNL     1       2.150   2.958  19.224  0.00  0.00    +0.000 OA
ATOM     26  C   UNL     1       2.847   2.165  18.238  0.00  0.00    +0.000 C 
ATOM     27  O   UNL     1       3.807   2.917  17.472  0.00  0.00    +0.000 OA
ENDBRANCH  17  19
ENDBRANCH  12  15
TORSDOF 2
ENDMDL
