MODEL 1
REMARK VINA RESULT:      -7.9      0.000      0.000
REMARK  Name = 
REMARK  11 active torsions:
REMARK  status: ('A' for Active; 'I' for Inactive)
REMARK    1  A    between atoms: C_1  and  O_2
REMARK    2  A    between atoms: O_2  and  C_3
REMARK    3  A    between atoms: C_5  and  C_6
REMARK    4  A    between atoms: C_14  and  C_15
REMARK    5  A    between atoms: C_15  and  O_17
REMARK    6  A    between atoms: C_18  and  C_19
REMARK    7  A    between atoms: C_19  and  O_21
REMARK    8  A    between atoms: C_26  and  O_27
REMARK    9  A    between atoms: O_27  and  C_28
REMARK   10  A    between atoms: C_29  and  O_30
REMARK   11  A    between atoms: O_30  and  C_31
REMARK                            x       y       z     vdW  Elec       q    Type
REMARK                         _______ _______ _______ _____ _____    ______ ____
ROOT
ATOM      1  C   UNL     1       4.161   5.939  18.560  0.00  0.00    +0.000 C 
ATOM      2  C   UNL     1       4.689   5.505  17.139  0.00  0.00    +0.000 A 
ATOM      3  C   UNL     1       5.966   5.873  16.651  0.00  0.00    +0.000 A 
ATOM      4  C   UNL     1       6.433   5.291  15.466  0.00  0.00    +0.000 A 
ATOM      5  C   UNL     1       5.719   4.333  14.783  0.00  0.00    +0.000 A 
ATOM      6  C   UNL     1       4.530   3.864  15.257  0.00  0.00    +0.000 A 
ATOM      7  C   UNL     1       4.045   4.441  16.446  0.00  0.00    +0.000 A 
ATOM      8  C   UNL     1       2.928   3.776  17.071  0.00  0.00    +0.000 C 
ATOM      9  C   UNL     1       2.821   3.841  18.409  0.00  0.00    +0.000 C 
ATOM     10  C   UNL     1       3.809   4.603  19.288  0.00  0.00    +0.000 C 
ATOM     11  O   UNL     1       6.337   3.903  13.650  0.00  0.00    +0.000 OA
ATOM     12  C   UNL     1       7.345   4.923  13.546  0.00  0.00    +0.000 C 
ATOM     13  O   UNL     1       7.614   5.548  14.825  0.00  0.00    +0.000 OA
ENDROOT
BRANCH   1  16
ATOM     14  C   UNL     1       1.356   8.089  20.359  0.00  0.00    +0.000 A 
ATOM     15  C   UNL     1       2.227   6.976  20.085  0.00  0.00    +0.000 A 
ATOM     16  C   UNL     1       2.971   6.907  18.902  0.00  0.00    +0.000 A 
ATOM     17  C   UNL     1       2.794   8.009  18.014  0.00  0.00    +0.000 A 
ATOM     18  C   UNL     1       1.989   9.144  18.285  0.00  0.00    +0.000 A 
ATOM     19  C   UNL     1       1.221   9.178  19.454  0.00  0.00    +0.000 A 
BRANCH  14  21
ATOM     20  C   UNL     1       1.099   9.068  22.537  0.00  0.00    +0.000 C 
ATOM     21  O   UNL     1       0.629   8.205  21.516  0.00  0.00    +0.000 OA
ENDBRANCH  14  21
BRANCH  18  22
ATOM     22  O   UNL     1       2.091  10.112  17.312  0.00  0.00    +0.000 OA
ATOM     23  C   UNL     1       2.513  11.422  17.678  0.00  0.00    +0.000 C 
ENDBRANCH  18  22
BRANCH  19  24
ATOM     24  O   UNL     1       0.560  10.349  19.730  0.00  0.00    +0.000 OA
ATOM     25  C   UNL     1      -0.789  10.564  19.338  0.00  0.00    +0.000 C 
ENDBRANCH  19  24
ENDBRANCH   1  16
BRANCH   9  26
ATOM     26  C   UNL     1       1.435   3.575  18.828  0.00  0.00    +0.000 C 
ATOM     27  O   UNL     1       0.980   3.726  19.954  0.00  0.00    +0.000 OA
BRANCH  26  28
ATOM     28  O   UNL     1       0.679   3.065  17.858  0.00  0.00    +0.000 OA
ATOM     29  H   UNL     1       0.154   2.395  18.350  0.00  0.00    +0.000 HD
ENDBRANCH  26  28
ENDBRANCH   9  26
BRANCH  10  30
ATOM     30  C   UNL     1       5.153   4.021  19.752  0.00  0.00    +0.000 C 
ATOM     31  O   UNL     1       6.113   4.742  20.011  0.00  0.00    +0.000 OA
BRANCH  30  32
ATOM     32  O   UNL     1       5.269   2.684  19.804  0.00  0.00    +0.000 OA
ATOM     33  H   UNL     1       4.842   2.264  20.570  0.00  0.00    +0.000 HD
ENDBRANCH  30  32
ENDBRANCH  10  30
TORSDOF 8
ENDMDL
MODEL 2
REMARK VINA RESULT:      -7.5      3.402      7.291
REMARK  Name = 
REMARK  11 active torsions:
REMARK  status: ('A' for Active; 'I' for Inactive)
REMARK    1  A    between atoms: C_1  and  O_2
REMARK    2  A    between atoms: O_2  and  C_3
REMARK    3  A    between atoms: C_5  and  C_6
REMARK    4  A    between atoms: C_14  and  C_15
REMARK    5  A    between atoms: C_15  and  O_17
REMARK    6  A    between atoms: C_18  and  C_19
REMARK    7  A    between atoms: C_19  and  O_21
REMARK    8  A    between atoms: C_26  and  O_27
REMARK    9  A    between atoms: O_27  and  C_28
REMARK   10  A    between atoms: C_29  and  O_30
REMARK   11  A    between atoms: O_30  and  C_31
REMARK                            x       y       z     vdW  Elec       q    Type
REMARK                         _______ _______ _______ _____ _____    ______ ____
ROOT
ATOM      1  C   UNL     1      -0.158  11.112  19.152  0.00  0.00    +0.000 C 
ATOM      2  C   UNL     1       0.656   9.761  19.136  0.00  0.00    +0.000 A 
ATOM      3  C   UNL     1       1.509   9.393  18.069  0.00  0.00    +0.000 A 
ATOM      4  C   UNL     1       2.340   8.276  18.217  0.00  0.00    +0.000 A 
ATOM      5  C   UNL     1       2.396   7.549  19.384  0.00  0.00    +0.000 A 
ATOM      6  C   UNL     1       1.675   7.914  20.482  0.00  0.00    +0.000 A 
ATOM      7  C   UNL     1       0.832   9.033  20.348  0.00  0.00    +0.000 A 
ATOM      8  C   UNL     1       0.270   9.561  21.566  0.00  0.00    +0.000 C 
ATOM      9  C   UNL     1       0.018  10.880  21.630  0.00  0.00    +0.000 C 
ATOM     10  C   UNL     1       0.278  11.833  20.467  0.00  0.00    +0.000 C 
ATOM     11  O   UNL     1       3.254   6.494  19.322  0.00  0.00    +0.000 OA
ATOM     12  C   UNL     1       3.470   6.466  17.901  0.00  0.00    +0.000 C 
ATOM     13  O   UNL     1       3.196   7.750  17.288  0.00  0.00    +0.000 OA
ENDROOT
BRANCH   1  16
ATOM     14  C   UNL     1      -3.878  12.442  19.498  0.00  0.00    +0.000 A 
ATOM     15  C   UNL     1      -2.512  12.165  19.856  0.00  0.00    +0.000 A 
ATOM     16  C   UNL     1      -1.716  11.309  19.086  0.00  0.00    +0.000 A 
ATOM     17  C   UNL     1      -2.364  10.750  17.944  0.00  0.00    +0.000 A 
ATOM     18  C   UNL     1      -3.687  11.052  17.537  0.00  0.00    +0.000 A 
ATOM     19  C   UNL     1      -4.481  11.878  18.340  0.00  0.00    +0.000 A 
BRANCH  14  21
ATOM     20  C   UNL     1      -4.983  12.979  21.561  0.00  0.00    +0.000 C 
ATOM     21  O   UNL     1      -4.683  13.293  20.213  0.00  0.00    +0.000 OA
ENDBRANCH  14  21
BRANCH  18  22
ATOM     22  O   UNL     1      -4.020  10.469  16.336  0.00  0.00    +0.000 OA
ATOM     23  C   UNL     1      -3.157  10.644  15.216  0.00  0.00    +0.000 C 
ENDBRANCH  18  22
BRANCH  19  24
ATOM     24  O   UNL     1      -5.707  12.240  17.839  0.00  0.00    +0.000 OA
ATOM     25  C   UNL     1      -6.896  11.539  18.176  0.00  0.00    +0.000 C 
ENDBRANCH  19  24
ENDBRANCH   1  16
BRANCH   9  26
ATOM     26  C   UNL     1      -0.976  11.164  22.676  0.00  0.00    +0.000 C 
ATOM     27  O   UNL     1      -1.426  12.266  22.964  0.00  0.00    +0.000 OA
BRANCH  26  28
ATOM     28  O   UNL     1      -1.326  10.089  23.380  0.00  0.00    +0.000 OA
ATOM     29  H   UNL     1      -1.114   9.365  22.750  0.00  0.00    +0.000 HD
ENDBRANCH  26  28
ENDBRANCH   9  26
BRANCH  10  30
ATOM     30  C   UNL     1       1.655  12.444  20.163  0.00  0.00    +0.000 C 
ATOM     31  O   UNL     1       2.057  12.587  19.011  0.00  0.00    +0.000 OA
BRANCH  30  32
ATOM     32  O   UNL     1       2.441  12.758  21.206  0.00  0.00    +0.000 OA
ATOM     33  H   UNL     1       1.987  12.804  22.064  0.00  0.00    +0.000 HD
ENDBRANCH  30  32
ENDBRANCH  10  30
TORSDOF 8
ENDMDL
MODEL 3
REMARK VINA RESULT:      -7.1      0.959      1.032
REMARK  Name = 
REMARK  11 active torsions:
REMARK  status: ('A' for Active; 'I' for Inactive)
REMARK    1  A    between atoms: C_1  and  O_2
REMARK    2  A    between atoms: O_2  and  C_3
REMARK    3  A    between atoms: C_5  and  C_6
REMARK    4  A    between atoms: C_14  and  C_15
REMARK    5  A    between atoms: C_15  and  O_17
REMARK    6  A    between atoms: C_18  and  C_19
REMARK    7  A    between atoms: C_19  and  O_21
REMARK    8  A    between atoms: C_26  and  O_27
REMARK    9  A    between atoms: O_27  and  C_28
REMARK   10  A    between atoms: C_29  and  O_30
REMARK   11  A    between atoms: O_30  and  C_31
REMARK                            x       y       z     vdW  Elec       q    Type
REMARK                         _______ _______ _______ _____ _____    ______ ____
ROOT
ATOM      1  C   UNL     1       4.760   6.227  18.018  0.00  0.00    +0.000 C 
ATOM      2  C   UNL     1       5.083   5.562  16.624  0.00  0.00    +0.000 A 
ATOM      3  C   UNL     1       6.099   6.042  15.764  0.00  0.00    +0.000 A 
ATOM      4  C   UNL     1       6.450   5.285  14.639  0.00  0.00    +0.000 A 
ATOM      5  C   UNL     1       5.880   4.063  14.366  0.00  0.00    +0.000 A 
ATOM      6  C   UNL     1       4.970   3.501  15.211  0.00  0.00    +0.000 A 
ATOM      7  C   UNL     1       4.604   4.250  16.344  0.00  0.00    +0.000 A 
ATOM      8  C   UNL     1       3.843   3.556  17.353  0.00  0.00    +0.000 C 
ATOM      9  C   UNL     1       3.994   3.934  18.634  0.00  0.00    +0.000 C 
ATOM     10  C   UNL     1       4.913   5.075  19.062  0.00  0.00    +0.000 C 
ATOM     11  O   UNL     1       6.346   3.493  13.221  0.00  0.00    +0.000 OA
ATOM     12  C   UNL     1       7.019   4.635  12.663  0.00  0.00    +0.000 C 
ATOM     13  O   UNL     1       7.373   5.603  13.680  0.00  0.00    +0.000 OA
ENDROOT
BRANCH   1  16
ATOM     14  C   UNL     1       1.710   7.788  20.014  0.00  0.00    +0.000 A 
ATOM     15  C   UNL     1       2.715   6.832  19.628  0.00  0.00    +0.000 A 
ATOM     16  C   UNL     1       3.457   6.991  18.452  0.00  0.00    +0.000 A 
ATOM     17  C   UNL     1       3.138   8.154  17.690  0.00  0.00    +0.000 A 
ATOM     18  C   UNL     1       2.196   9.140  18.077  0.00  0.00    +0.000 A 
ATOM     19  C   UNL     1       1.434   8.945  19.235  0.00  0.00    +0.000 A 
BRANCH  14  21
ATOM     20  C   UNL     1       1.127   8.672  22.169  0.00  0.00    +0.000 C 
ATOM     21  O   UNL     1       0.978   7.680  21.169  0.00  0.00    +0.000 OA
ENDBRANCH  14  21
BRANCH  18  22
ATOM     22  O   UNL     1       2.170  10.215  17.219  0.00  0.00    +0.000 OA
ATOM     23  C   UNL     1       2.528  11.504  17.710  0.00  0.00    +0.000 C 
ENDBRANCH  18  22
BRANCH  19  24
ATOM     24  O   UNL     1       0.630   9.985  19.632  0.00  0.00    +0.000 OA
ATOM     25  C   UNL     1      -0.699  10.136  19.152  0.00  0.00    +0.000 C 
ENDBRANCH  19  24
ENDBRANCH   1  16
BRANCH   9  26
ATOM     26  C   UNL     1       2.835   3.511  19.436  0.00  0.00    +0.000 C 
ATOM     27  O   UNL     1       2.860   3.147  20.604  0.00  0.00    +0.000 OA
BRANCH  26  28
ATOM     28  O   UNL     1       1.696   3.484  18.746  0.00  0.00    +0.000 OA
ATOM     29  H   UNL     1       1.339   4.384  18.921  0.00  0.00    +0.000 HD
ENDBRANCH  26  28
ENDBRANCH   9  26
BRANCH  10  30
ATOM     30  C   UNL     1       6.425   4.911  19.274  0.00  0.00    +0.000 C 
ATOM     31  O   UNL     1       7.031   5.559  20.124  0.00  0.00    +0.000 OA
BRANCH  30  32
ATOM     32  O   UNL     1       7.084   4.079  18.451  0.00  0.00    +0.000 OA
ATOM     33  H   UNL     1       7.930   4.419  18.114  0.00  0.00    +0.000 HD
ENDBRANCH  30  32
ENDBRANCH  10  30
TORSDOF 8
ENDMDL
MODEL 4
REMARK VINA RESULT:      -7.1      1.294      6.929
REMARK  Name = 
REMARK  11 active torsions:
REMARK  status: ('A' for Active; 'I' for Inactive)
REMARK    1  A    between atoms: C_1  and  O_2
REMARK    2  A    between atoms: O_2  and  C_3
REMARK    3  A    between atoms: C_5  and  C_6
REMARK    4  A    between atoms: C_14  and  C_15
REMARK    5  A    between atoms: C_15  and  O_17
REMARK    6  A    between atoms: C_18  and  C_19
REMARK    7  A    between atoms: C_19  and  O_21
REMARK    8  A    between atoms: C_26  and  O_27
REMARK    9  A    between atoms: O_27  and  C_28
REMARK   10  A    between atoms: C_29  and  O_30
REMARK   11  A    between atoms: O_30  and  C_31
REMARK                            x       y       z     vdW  Elec       q    Type
REMARK                         _______ _______ _______ _____ _____    ______ ____
ROOT
ATOM      1  C   UNL     1       3.142   5.270  17.191  0.00  0.00    +0.000 C 
ATOM      2  C   UNL     1       2.750   6.436  18.179  0.00  0.00    +0.000 A 
ATOM      3  C   UNL     1       1.835   7.459  17.834  0.00  0.00    +0.000 A 
ATOM      4  C   UNL     1       1.397   8.342  18.828  0.00  0.00    +0.000 A 
ATOM      5  C   UNL     1       1.782   8.222  20.143  0.00  0.00    +0.000 A 
ATOM      6  C   UNL     1       2.580   7.197  20.557  0.00  0.00    +0.000 A 
ATOM      7  C   UNL     1       3.032   6.302  19.569  0.00  0.00    +0.000 A 
ATOM      8  C   UNL     1       3.660   5.092  20.040  0.00  0.00    +0.000 C 
ATOM      9  C   UNL     1       3.542   3.983  19.290  0.00  0.00    +0.000 C 
ATOM     10  C   UNL     1       2.797   3.955  17.958  0.00  0.00    +0.000 C 
ATOM     11  O   UNL     1       1.259   9.185  20.950  0.00  0.00    +0.000 OA
ATOM     12  C   UNL     1       0.776  10.085  19.937  0.00  0.00    +0.000 C 
ATOM     13  O   UNL     1       0.552   9.407  18.676  0.00  0.00    +0.000 OA
ENDROOT
BRANCH   1  16
ATOM     14  C   UNL     1       6.091   4.163  14.782  0.00  0.00    +0.000 A 
ATOM     15  C   UNL     1       4.828   4.112  15.472  0.00  0.00    +0.000 A 
ATOM     16  C   UNL     1       4.536   4.990  16.522  0.00  0.00    +0.000 A 
ATOM     17  C   UNL     1       5.574   5.916  16.840  0.00  0.00    +0.000 A 
ATOM     18  C   UNL     1       6.800   6.026  16.139  0.00  0.00    +0.000 A 
ATOM     19  C   UNL     1       7.093   5.115  15.118  0.00  0.00    +0.000 A 
BRANCH  14  21
ATOM     20  C   UNL     1       5.602   3.371  12.569  0.00  0.00    +0.000 C 
ATOM     21  O   UNL     1       6.406   3.336  13.734  0.00  0.00    +0.000 OA
ENDBRANCH  14  21
BRANCH  18  22
ATOM     22  O   UNL     1       7.569   7.081  16.576  0.00  0.00    +0.000 OA
ATOM     23  C   UNL     1       7.797   7.241  17.973  0.00  0.00    +0.000 C 
ENDBRANCH  18  22
BRANCH  19  24
ATOM     24  O   UNL     1       8.234   5.342  14.389  0.00  0.00    +0.000 OA
ATOM     25  C   UNL     1       8.190   5.762  13.032  0.00  0.00    +0.000 C 
ENDBRANCH  19  24
ENDBRANCH   1  16
BRANCH   9  26
ATOM     26  C   UNL     1       4.608   3.023  19.619  0.00  0.00    +0.000 C 
ATOM     27  O   UNL     1       4.526   2.100  20.419  0.00  0.00    +0.000 OA
BRANCH  26  28
ATOM     28  O   UNL     1       5.760   3.281  19.003  0.00  0.00    +0.000 OA
ATOM     29  H   UNL     1       6.130   2.377  18.894  0.00  0.00    +0.000 HD
ENDBRANCH  26  28
ENDBRANCH   9  26
BRANCH  10  30
ATOM     30  C   UNL     1       1.273   3.799  17.843  0.00  0.00    +0.000 C 
ATOM     31  O   UNL     1       0.630   4.372  16.967  0.00  0.00    +0.000 OA
BRANCH  30  32
ATOM     32  O   UNL     1       0.649   3.063  18.778  0.00  0.00    +0.000 OA
ATOM     33  H   UNL     1      -0.011   3.543  19.306  0.00  0.00    +0.000 HD
ENDBRANCH  30  32
ENDBRANCH  10  30
TORSDOF 8
ENDMDL
MODEL 5
REMARK VINA RESULT:      -6.8      6.306      8.678
REMARK  Name = 
REMARK  11 active torsions:
REMARK  status: ('A' for Active; 'I' for Inactive)
REMARK    1  A    between atoms: C_1  and  O_2
REMARK    2  A    between atoms: O_2  and  C_3
REMARK    3  A    between atoms: C_5  and  C_6
REMARK    4  A    between atoms: C_14  and  C_15
REMARK    5  A    between atoms: C_15  and  O_17
REMARK    6  A    between atoms: C_18  and  C_19
REMARK    7  A    between atoms: C_19  and  O_21
REMARK    8  A    between atoms: C_26  and  O_27
REMARK    9  A    between atoms: O_27  and  C_28
REMARK   10  A    between atoms: C_29  and  O_30
REMARK   11  A    between atoms: O_30  and  C_31
REMARK                            x       y       z     vdW  Elec       q    Type
REMARK                         _______ _______ _______ _____ _____    ______ ____
ROOT
ATOM      1  C   UNL     1      -0.574  12.498  19.997  0.00  0.00    +0.000 C 
ATOM      2  C   UNL     1      -1.333  11.642  18.911  0.00  0.00    +0.000 A 
ATOM      3  C   UNL     1      -1.815  12.193  17.700  0.00  0.00    +0.000 A 
ATOM      4  C   UNL     1      -2.305  11.332  16.710  0.00  0.00    +0.000 A 
ATOM      5  C   UNL     1      -2.289   9.963  16.849  0.00  0.00    +0.000 A 
ATOM      6  C   UNL     1      -1.745   9.369  17.949  0.00  0.00    +0.000 A 
ATOM      7  C   UNL     1      -1.250  10.220  18.955  0.00  0.00    +0.000 A 
ATOM      8  C   UNL     1      -0.459   9.599  19.988  0.00  0.00    +0.000 C 
ATOM      9  C   UNL     1       0.513  10.327  20.565  0.00  0.00    +0.000 C 
ATOM     10  C   UNL     1       0.798  11.779  20.193  0.00  0.00    +0.000 C 
ATOM     11  O   UNL     1      -2.821   9.305  15.784  0.00  0.00    +0.000 OA
ATOM     12  C   UNL     1      -3.451  10.419  15.127  0.00  0.00    +0.000 C 
ATOM     13  O   UNL     1      -2.843  11.680  15.501  0.00  0.00    +0.000 OA
ENDROOT
BRANCH   1  16
ATOM     14  C   UNL     1      -1.137  14.197  23.536  0.00  0.00    +0.000 A 
ATOM     15  C   UNL     1      -0.446  13.751  22.354  0.00  0.00    +0.000 A 
ATOM     16  C   UNL     1      -1.046  12.867  21.450  0.00  0.00    +0.000 A 
ATOM     17  C   UNL     1      -2.368  12.457  21.795  0.00  0.00    +0.000 A 
ATOM     18  C   UNL     1      -3.091  12.927  22.919  0.00  0.00    +0.000 A 
ATOM     19  C   UNL     1      -2.462  13.778  23.834  0.00  0.00    +0.000 A 
BRANCH  14  21
ATOM     20  C   UNL     1      -0.384  16.422  24.032  0.00  0.00    +0.000 C 
ATOM     21  O   UNL     1      -0.593  15.080  24.433  0.00  0.00    +0.000 OA
ENDBRANCH  14  21
BRANCH  18  22
ATOM     22  O   UNL     1      -4.387  12.463  22.949  0.00  0.00    +0.000 OA
ATOM     23  C   UNL     1      -5.271  12.805  21.886  0.00  0.00    +0.000 C 
ENDBRANCH  18  22
BRANCH  19  24
ATOM     24  O   UNL     1      -3.244  14.303  24.834  0.00  0.00    +0.000 OA
ATOM     25  C   UNL     1      -3.987  15.501  24.659  0.00  0.00    +0.000 C 
ENDBRANCH  19  24
ENDBRANCH   1  16
BRANCH   9  26
ATOM     26  C   UNL     1       0.866   9.764  21.878  0.00  0.00    +0.000 C 
ATOM     27  O   UNL     1       0.525  10.206  22.968  0.00  0.00    +0.000 OA
BRANCH  26  28
ATOM     28  O   UNL     1       1.687   8.718  21.802  0.00  0.00    +0.000 OA
ATOM     29  H   UNL     1       1.051   7.978  21.682  0.00  0.00    +0.000 HD
ENDBRANCH  26  28
ENDBRANCH   9  26
BRANCH  10  30
ATOM     30  C   UNL     1       1.656  12.193  18.989  0.00  0.00    +0.000 C 
ATOM     31  O   UNL     1       1.938  13.369  18.771  0.00  0.00    +0.000 OA
BRANCH  30  32
ATOM     32  O   UNL     1       2.038  11.229  18.134  0.00  0.00    +0.000 OA
ATOM     33  H   UNL     1       1.732  10.335  18.361  0.00  0.00    +0.000 HD
ENDBRANCH  30  32
ENDBRANCH  10  30
TORSDOF 8
ENDMDL
MODEL 6
REMARK VINA RESULT:      -6.6      2.445      7.713
REMARK  Name = 
REMARK  11 active torsions:
REMARK  status: ('A' for Active; 'I' for Inactive)
REMARK    1  A    between atoms: C_1  and  O_2
REMARK    2  A    between atoms: O_2  and  C_3
REMARK    3  A    between atoms: C_5  and  C_6
REMARK    4  A    between atoms: C_14  and  C_15
REMARK    5  A    between atoms: C_15  and  O_17
REMARK    6  A    between atoms: C_18  and  C_19
REMARK    7  A    between atoms: C_19  and  O_21
REMARK    8  A    between atoms: C_26  and  O_27
REMARK    9  A    between atoms: O_27  and  C_28
REMARK   10  A    between atoms: C_29  and  O_30
REMARK   11  A    between atoms: O_30  and  C_31
REMARK                            x       y       z     vdW  Elec       q    Type
REMARK                         _______ _______ _______ _____ _____    ______ ____
ROOT
ATOM      1  C   UNL     1       1.337   9.934  18.593  0.00  0.00    +0.000 C 
ATOM      2  C   UNL     1       1.779  11.401  18.968  0.00  0.00    +0.000 A 
ATOM      3  C   UNL     1       2.109  12.374  17.996  0.00  0.00    +0.000 A 
ATOM      4  C   UNL     1       2.304  13.701  18.401  0.00  0.00    +0.000 A 
ATOM      5  C   UNL     1       2.135  14.105  19.705  0.00  0.00    +0.000 A 
ATOM      6  C   UNL     1       1.719  13.236  20.669  0.00  0.00    +0.000 A 
ATOM      7  C   UNL     1       1.521  11.898  20.278  0.00  0.00    +0.000 A 
ATOM      8  C   UNL     1       0.848  11.047  21.227  0.00  0.00    +0.000 C 
ATOM      9  C   UNL     1       0.093  10.040  20.753  0.00  0.00    +0.000 C 
ATOM     10  C   UNL     1      -0.061   9.747  19.263  0.00  0.00    +0.000 C 
ATOM     11  O   UNL     1       2.385  15.429  19.896  0.00  0.00    +0.000 OA
ATOM     12  C   UNL     1       3.029  15.717  18.643  0.00  0.00    +0.000 C 
ATOM     13  O   UNL     1       2.664  14.763  17.617  0.00  0.00    +0.000 OA
ENDROOT
BRANCH   1  16
ATOM     14  C   UNL     1       2.414   6.309  19.788  0.00  0.00    +0.000 A 
ATOM     15  C   UNL     1       1.802   7.611  19.831  0.00  0.00    +0.000 A 
ATOM     16  C   UNL     1       2.098   8.587  18.873  0.00  0.00    +0.000 A 
ATOM     17  C   UNL     1       3.037   8.188  17.876  0.00  0.00    +0.000 A 
ATOM     18  C   UNL     1       3.609   6.895  17.777  0.00  0.00    +0.000 A 
ATOM     19  C   UNL     1       3.333   5.944  18.766  0.00  0.00    +0.000 A 
BRANCH  14  21
ATOM     20  C   UNL     1       1.021   4.473  20.461  0.00  0.00    +0.000 C 
ATOM     21  O   UNL     1       2.133   5.319  20.694  0.00  0.00    +0.000 OA
ENDBRANCH  14  21
BRANCH  18  22
ATOM     22  O   UNL     1       4.389   6.744  16.653  0.00  0.00    +0.000 OA
ATOM     23  C   UNL     1       5.807   6.756  16.786  0.00  0.00    +0.000 C 
ENDBRANCH  18  22
BRANCH  19  24
ATOM     24  O   UNL     1       3.809   4.673  18.557  0.00  0.00    +0.000 OA
ATOM     25  C   UNL     1       3.210   3.789  17.619  0.00  0.00    +0.000 C 
ENDBRANCH  19  24
ENDBRANCH   1  16
BRANCH   9  26
ATOM     26  C   UNL     1      -0.095   9.008  21.784  0.00  0.00    +0.000 C 
ATOM     27  O   UNL     1      -0.896   8.083  21.741  0.00  0.00    +0.000 OA
BRANCH  26  28
ATOM     28  O   UNL     1       0.662   9.194  22.864  0.00  0.00    +0.000 OA
ATOM     29  H   UNL     1       0.773  10.171  22.859  0.00  0.00    +0.000 HD
ENDBRANCH  26  28
ENDBRANCH   9  26
BRANCH  10  30
ATOM     30  C   UNL     1      -1.055  10.485  18.353  0.00  0.00    +0.000 C 
ATOM     31  O   UNL     1      -1.766  11.392  18.776  0.00  0.00    +0.000 OA
BRANCH  30  32
ATOM     32  O   UNL     1      -1.172  10.060  17.084  0.00  0.00    +0.000 OA
ATOM     33  H   UNL     1      -1.747   9.285  16.961  0.00  0.00    +0.000 HD
ENDBRANCH  30  32
ENDBRANCH  10  30
TORSDOF 8
ENDMDL
MODEL 7
REMARK VINA RESULT:      -6.4      4.345      8.966
REMARK  Name = 
REMARK  11 active torsions:
REMARK  status: ('A' for Active; 'I' for Inactive)
REMARK    1  A    between atoms: C_1  and  O_2
REMARK    2  A    between atoms: O_2  and  C_3
REMARK    3  A    between atoms: C_5  and  C_6
REMARK    4  A    between atoms: C_14  and  C_15
REMARK    5  A    between atoms: C_15  and  O_17
REMARK    6  A    between atoms: C_18  and  C_19
REMARK    7  A    between atoms: C_19  and  O_21
REMARK    8  A    between atoms: C_26  and  O_27
REMARK    9  A    between atoms: O_27  and  C_28
REMARK   10  A    between atoms: C_29  and  O_30
REMARK   11  A    between atoms: O_30  and  C_31
REMARK                            x       y       z     vdW  Elec       q    Type
REMARK                         _______ _______ _______ _____ _____    ______ ____
ROOT
ATOM      1  C   UNL     1      -1.378  12.104  19.926  0.00  0.00    +0.000 C 
ATOM      2  C   UNL     1      -0.567  10.767  20.136  0.00  0.00    +0.000 A 
ATOM      3  C   UNL     1       0.308  10.241  19.157  0.00  0.00    +0.000 A 
ATOM      4  C   UNL     1       1.132   9.159  19.494  0.00  0.00    +0.000 A 
ATOM      5  C   UNL     1       1.161   8.621  20.760  0.00  0.00    +0.000 A 
ATOM      6  C   UNL     1       0.417   9.150  21.772  0.00  0.00    +0.000 A 
ATOM      7  C   UNL     1      -0.419  10.235  21.449  0.00  0.00    +0.000 A 
ATOM      8  C   UNL     1      -1.007  10.943  22.559  0.00  0.00    +0.000 C 
ATOM      9  C   UNL     1      -1.256  12.256  22.413  0.00  0.00    +0.000 C 
ATOM     10  C   UNL     1      -0.968  13.019  21.124  0.00  0.00    +0.000 C 
ATOM     11  O   UNL     1       2.017   7.569  20.880  0.00  0.00    +0.000 OA
ATOM     12  C   UNL     1       2.264   7.323  19.485  0.00  0.00    +0.000 C 
ATOM     13  O   UNL     1       2.007   8.497  18.676  0.00  0.00    +0.000 OA
ENDROOT
BRANCH   1  16
ATOM     14  C   UNL     1      -5.109  13.444  20.042  0.00  0.00    +0.000 A 
ATOM     15  C   UNL     1      -3.753  13.205  20.464  0.00  0.00    +0.000 A 
ATOM     16  C   UNL     1      -2.933  12.288  19.796  0.00  0.00    +0.000 A 
ATOM     17  C   UNL     1      -3.545  11.629  18.688  0.00  0.00    +0.000 A 
ATOM     18  C   UNL     1      -4.856  11.888  18.217  0.00  0.00    +0.000 A 
ATOM     19  C   UNL     1      -5.675  12.777  18.921  0.00  0.00    +0.000 A 
BRANCH  14  21
ATOM     20  C   UNL     1      -5.404  15.187  21.667  0.00  0.00    +0.000 C 
ATOM     21  O   UNL     1      -5.936  14.350  20.656  0.00  0.00    +0.000 OA
ENDBRANCH  14  21
BRANCH  18  22
ATOM     22  O   UNL     1      -5.151  11.201  17.062  0.00  0.00    +0.000 OA
ATOM     23  C   UNL     1      -4.122  10.984  16.101  0.00  0.00    +0.000 C 
ENDBRANCH  18  22
BRANCH  19  24
ATOM     24  O   UNL     1      -6.886  13.089  18.353  0.00  0.00    +0.000 OA
ATOM     25  C   UNL     1      -7.007  14.054  17.317  0.00  0.00    +0.000 C 
ENDBRANCH  19  24
ENDBRANCH   1  16
BRANCH   9  26
ATOM     26  C   UNL     1      -2.272  12.697  23.382  0.00  0.00    +0.000 C 
ATOM     27  O   UNL     1      -2.297  13.777  23.959  0.00  0.00    +0.000 OA
BRANCH  26  28
ATOM     28  O   UNL     1      -3.181  11.764  23.658  0.00  0.00    +0.000 OA
ATOM     29  H   UNL     1      -2.679  11.174  24.263  0.00  0.00    +0.000 HD
ENDBRANCH  26  28
ENDBRANCH   9  26
BRANCH  10  30
ATOM     30  C   UNL     1       0.417  13.577  20.760  0.00  0.00    +0.000 C 
ATOM     31  O   UNL     1       0.621  14.153  19.694  0.00  0.00    +0.000 OA
BRANCH  30  32
ATOM     32  O   UNL     1       1.424  13.355  21.621  0.00  0.00    +0.000 OA
ATOM     33  H   UNL     1       1.886  12.508  21.503  0.00  0.00    +0.000 HD
ENDBRANCH  30  32
ENDBRANCH  10  30
TORSDOF 8
ENDMDL
MODEL 8
REMARK VINA RESULT:      -6.4      6.079     11.960
REMARK  Name = 
REMARK  11 active torsions:
REMARK  status: ('A' for Active; 'I' for Inactive)
REMARK    1  A    between atoms: C_1  and  O_2
REMARK    2  A    between atoms: O_2  and  C_3
REMARK    3  A    between atoms: C_5  and  C_6
REMARK    4  A    between atoms: C_14  and  C_15
REMARK    5  A    between atoms: C_15  and  O_17
REMARK    6  A    between atoms: C_18  and  C_19
REMARK    7  A    between atoms: C_19  and  O_21
REMARK    8  A    between atoms: C_26  and  O_27
REMARK    9  A    between atoms: O_27  and  C_28
REMARK   10  A    between atoms: C_29  and  O_30
REMARK   11  A    between atoms: O_30  and  C_31
REMARK                            x       y       z     vdW  Elec       q    Type
REMARK                         _______ _______ _______ _____ _____    ______ ____
ROOT
ATOM      1  C   UNL     1      -2.659  12.493  21.177  0.00  0.00    +0.000 C 
ATOM      2  C   UNL     1      -3.885  13.334  21.706  0.00  0.00    +0.000 A 
ATOM      3  C   UNL     1      -4.788  12.843  22.679  0.00  0.00    +0.000 A 
ATOM      4  C   UNL     1      -5.731  13.718  23.233  0.00  0.00    +0.000 A 
ATOM      5  C   UNL     1      -5.780  15.053  22.904  0.00  0.00    +0.000 A 
ATOM      6  C   UNL     1      -4.873  15.607  22.050  0.00  0.00    +0.000 A 
ATOM      7  C   UNL     1      -3.920  14.740  21.483  0.00  0.00    +0.000 A 
ATOM      8  C   UNL     1      -2.822  15.364  20.787  0.00  0.00    +0.000 C 
ATOM      9  C   UNL     1      -1.635  14.733  20.782  0.00  0.00    +0.000 C 
ATOM     10  C   UNL     1      -1.407  13.383  21.457  0.00  0.00    +0.000 C 
ATOM     11  O   UNL     1      -6.775  15.730  23.540  0.00  0.00    +0.000 OA
ATOM     12  C   UNL     1      -7.522  14.608  24.041  0.00  0.00    +0.000 C 
ATOM     13  O   UNL     1      -6.701  13.419  24.150  0.00  0.00    +0.000 OA
ENDROOT
BRANCH   1  16
ATOM     14  C   UNL     1      -1.374  10.490  18.005  0.00  0.00    +0.000 A 
ATOM     15  C   UNL     1      -1.326  11.190  19.262  0.00  0.00    +0.000 A 
ATOM     16  C   UNL     1      -2.427  11.915  19.734  0.00  0.00    +0.000 A 
ATOM     17  C   UNL     1      -3.570  11.898  18.882  0.00  0.00    +0.000 A 
ATOM     18  C   UNL     1      -3.663  11.170  17.670  0.00  0.00    +0.000 A 
ATOM     19  C   UNL     1      -2.540  10.484  17.192  0.00  0.00    +0.000 A 
BRANCH  14  21
ATOM     20  C   UNL     1       0.889   9.725  18.247  0.00  0.00    +0.000 C 
ATOM     21  O   UNL     1      -0.325   9.751  17.519  0.00  0.00    +0.000 OA
ENDBRANCH  14  21
BRANCH  18  22
ATOM     22  O   UNL     1      -4.917  11.232  17.107  0.00  0.00    +0.000 OA
ATOM     23  C   UNL     1      -6.015  11.665  17.905  0.00  0.00    +0.000 C 
ENDBRANCH  18  22
BRANCH  19  24
ATOM     24  O   UNL     1      -2.719   9.694  16.084  0.00  0.00    +0.000 OA
ATOM     25  C   UNL     1      -2.911  10.245  14.788  0.00  0.00    +0.000 C 
ENDBRANCH  19  24
ENDBRANCH   1  16
BRANCH   9  26
ATOM     26  C   UNL     1      -0.805  15.205  19.662  0.00  0.00    +0.000 C 
ATOM     27  O   UNL     1       0.222  14.680  19.252  0.00  0.00    +0.000 OA
BRANCH  26  28
ATOM     28  O   UNL     1      -1.233  16.351  19.134  0.00  0.00    +0.000 OA
ATOM     29  H   UNL     1      -0.633  16.446  18.361  0.00  0.00    +0.000 HD
ENDBRANCH  26  28
ENDBRANCH   9  26
BRANCH  10  30
ATOM     30  C   UNL     1      -1.115  13.224  22.956  0.00  0.00    +0.000 C 
ATOM     31  O   UNL     1      -0.837  14.187  23.665  0.00  0.00    +0.000 OA
BRANCH  30  32
ATOM     32  O   UNL     1      -1.108  11.979  23.461  0.00  0.00    +0.000 OA
ATOM     33  H   UNL     1      -1.099  11.929  24.432  0.00  0.00    +0.000 HD
ENDBRANCH  30  32
ENDBRANCH  10  30
TORSDOF 8
ENDMDL
MODEL 9
REMARK VINA RESULT:      -6.4      3.881      8.208
REMARK  Name = 
REMARK  11 active torsions:
REMARK  status: ('A' for Active; 'I' for Inactive)
REMARK    1  A    between atoms: C_1  and  O_2
REMARK    2  A    between atoms: O_2  and  C_3
REMARK    3  A    between atoms: C_5  and  C_6
REMARK    4  A    between atoms: C_14  and  C_15
REMARK    5  A    between atoms: C_15  and  O_17
REMARK    6  A    between atoms: C_18  and  C_19
REMARK    7  A    between atoms: C_19  and  O_21
REMARK    8  A    between atoms: C_26  and  O_27
REMARK    9  A    between atoms: O_27  and  C_28
REMARK   10  A    between atoms: C_29  and  O_30
REMARK   11  A    between atoms: O_30  and  C_31
REMARK                            x       y       z     vdW  Elec       q    Type
REMARK                         _______ _______ _______ _____ _____    ______ ____
ROOT
ATOM      1  C   UNL     1      -0.366  11.939  19.506  0.00  0.00    +0.000 C 
ATOM      2  C   UNL     1       0.290  10.505  19.485  0.00  0.00    +0.000 A 
ATOM      3  C   UNL     1       1.099  10.047  18.418  0.00  0.00    +0.000 A 
ATOM      4  C   UNL     1       1.797   8.842  18.563  0.00  0.00    +0.000 A 
ATOM      5  C   UNL     1       1.769   8.109  19.727  0.00  0.00    +0.000 A 
ATOM      6  C   UNL     1       1.091   8.549  20.825  0.00  0.00    +0.000 A 
ATOM      7  C   UNL     1       0.381   9.757  20.695  0.00  0.00    +0.000 A 
ATOM      8  C   UNL     1      -0.120  10.340  21.914  0.00  0.00    +0.000 C 
ATOM      9  C   UNL     1      -0.222  11.678  21.982  0.00  0.00    +0.000 C 
ATOM     10  C   UNL     1       0.147  12.601  20.824  0.00  0.00    +0.000 C 
ATOM     11  O   UNL     1       2.501   6.964  19.662  0.00  0.00    +0.000 OA
ATOM     12  C   UNL     1       2.716   6.917  18.241  0.00  0.00    +0.000 C 
ATOM     13  O   UNL     1       2.590   8.226  17.633  0.00  0.00    +0.000 OA
ENDROOT
BRANCH   1  16
ATOM     14  C   UNL     1      -4.307  11.920  19.061  0.00  0.00    +0.000 A 
ATOM     15  C   UNL     1      -2.924  11.608  18.808  0.00  0.00    +0.000 A 
ATOM     16  C   UNL     1      -1.891  12.311  19.437  0.00  0.00    +0.000 A 
ATOM     17  C   UNL     1      -2.319  13.339  20.330  0.00  0.00    +0.000 A 
ATOM     18  C   UNL     1      -3.671  13.626  20.642  0.00  0.00    +0.000 A 
ATOM     19  C   UNL     1      -4.692  12.941  19.973  0.00  0.00    +0.000 A 
BRANCH  14  21
ATOM     20  C   UNL     1      -5.861  11.697  17.244  0.00  0.00    +0.000 C 
ATOM     21  O   UNL     1      -5.347  11.239  18.482  0.00  0.00    +0.000 OA
ENDBRANCH  14  21
BRANCH  18  22
ATOM     22  O   UNL     1      -3.798  14.584  21.622  0.00  0.00    +0.000 OA
ATOM     23  C   UNL     1      -3.696  15.959  21.267  0.00  0.00    +0.000 C 
ENDBRANCH  18  22
BRANCH  19  24
ATOM     24  O   UNL     1      -5.976  13.166  20.401  0.00  0.00    +0.000 OA
ATOM     25  C   UNL     1      -6.782  14.203  19.856  0.00  0.00    +0.000 C 
ENDBRANCH  19  24
ENDBRANCH   1  16
BRANCH   9  26
ATOM     26  C   UNL     1      -1.179  12.070  23.029  0.00  0.00    +0.000 C 
ATOM     27  O   UNL     1      -2.164  11.433  23.380  0.00  0.00    +0.000 OA
BRANCH  26  28
ATOM     28  O   UNL     1      -0.928  13.267  23.554  0.00  0.00    +0.000 OA
ATOM     29  H   UNL     1      -0.155  13.071  24.130  0.00  0.00    +0.000 HD
ENDBRANCH  26  28
ENDBRANCH   9  26
BRANCH  10  30
ATOM     30  C   UNL     1       1.584  13.053  20.524  0.00  0.00    +0.000 C 
ATOM     31  O   UNL     1       2.478  12.958  21.362  0.00  0.00    +0.000 OA
BRANCH  30  32
ATOM     32  O   UNL     1       1.823  13.622  19.331  0.00  0.00    +0.000 OA
ATOM     33  H   UNL     1       1.407  14.491  19.200  0.00  0.00    +0.000 HD
ENDBRANCH  30  32
ENDBRANCH  10  30
TORSDOF 8
ENDMDL
