MODEL 1
REMARK VINA RESULT:      -7.9      0.000      0.000
REMARK  Name = 
REMARK  12 active torsions:
REMARK  status: ('A' for Active; 'I' for Inactive)
REMARK    1  A    between atoms: C_1  and  N_2
REMARK    2  A    between atoms: N_4  and  C_5
REMARK    3  A    between atoms: C_5  and  C_6
REMARK    4  A    between atoms: C_9  and  C_10
REMARK    5  A    between atoms: N_12  and  C_13
REMARK    6  A    between atoms: C_13  and  C_14
REMARK    7  A    between atoms: C_13  and  C_15
REMARK    8  A    between atoms: C_18  and  O_19
REMARK    9  A    between atoms: O_19  and  C_20
REMARK   10  A    between atoms: C_20  and  C_21
REMARK   11  A    between atoms: C_21  and  C_22
REMARK   12  A    between atoms: C_21  and  C_23
REMARK                            x       y       z     vdW  Elec       q    Type
REMARK                         _______ _______ _______ _____ _____    ______ ____
ROOT
ATOM      1  C   UNL     1       8.099   5.633  19.783  0.00  0.00    +0.000 C 
ATOM      2  N   UNL     1       7.490   5.746  18.470  0.00  0.00    +0.000 NA
ATOM      3  C   UNL     1       7.585   6.843  17.804  0.00  0.00    +0.000 C 
ATOM      4  N   UNL     1       8.256   7.960  18.195  0.00  0.00    +0.000 N 
ATOM      5  N   UNL     1       7.004   6.947  16.575  0.00  0.00    +0.000 N 
ATOM      6  H   UNL     1       8.674   7.930  19.120  0.00  0.00    +0.000 HD
ATOM      7  H   UNL     1       7.092   7.794  16.039  0.00  0.00    +0.000 HD
ENDROOT
BRANCH   5   8
ATOM      8  C   UNL     1       6.230   5.895  15.936  0.00  0.00    +0.000 C 
ATOM      9  C   UNL     1       7.135   4.682  15.732  0.00  0.00    +0.000 C 
BRANCH   8  10
ATOM     10  C   UNL     1       4.982   5.644  16.776  0.00  0.00    +0.000 A 
ATOM     11  C   UNL     1       4.266   6.764  17.224  0.00  0.00    +0.000 A 
ATOM     12  C   UNL     1       3.120   6.627  18.006  0.00  0.00    +0.000 A 
ATOM     13  C   UNL     1       2.648   5.361  18.363  0.00  0.00    +0.000 A 
ATOM     14  C   UNL     1       3.345   4.236  17.920  0.00  0.00    +0.000 A 
ATOM     15  C   UNL     1       4.501   4.374  17.134  0.00  0.00    +0.000 A 
BRANCH  13  16
ATOM     16  O   UNL     1       1.534   5.123  19.133  0.00  0.00    +0.000 OA
BRANCH  16  17
ATOM     17  C   UNL     1       1.812   4.857  20.510  0.00  0.00    +0.000 C 
BRANCH  17  18
ATOM     18  C   UNL     1       1.284   3.489  20.955  0.00  0.00    +0.000 C 
ATOM     19  C   UNL     1       0.681   2.707  19.788  0.00  0.00    +0.000 C 
ATOM     20  C   UNL     1       2.436   2.703  21.584  0.00  0.00    +0.000 C 
ENDBRANCH  17  18
ENDBRANCH  16  17
ENDBRANCH  13  16
ENDBRANCH   8  10
ENDBRANCH   5   8
BRANCH   4  21
ATOM     21  C   UNL     1       7.978   9.327  17.774  0.00  0.00    +0.000 C 
BRANCH  21  22
ATOM     22  C   UNL     1       8.804  10.411  18.393  0.00  0.00    +0.000 A 
ATOM     23  N   UNL     1       9.061  11.566  17.759  0.00  0.00    +0.000 NA
ATOM     24  O   UNL     1       9.808  12.284  18.693  0.00  0.00    +0.000 OA
ATOM     25  C   UNL     1       9.927  11.488  19.791  0.00  0.00    +0.000 A 
ATOM     26  C   UNL     1      10.674  12.039  20.935  0.00  0.00    +0.000 C 
ATOM     27  N   UNL     1       9.331  10.321  19.664  0.00  0.00    +0.000 NA
ENDBRANCH  21  22
ENDBRANCH   4  21
TORSDOF 7
ENDMDL
MODEL 2
REMARK VINA RESULT:      -7.8      0.451      1.305
REMARK  Name = 
REMARK  12 active torsions:
REMARK  status: ('A' for Active; 'I' for Inactive)
REMARK    1  A    between atoms: C_1  and  N_2
REMARK    2  A    between atoms: N_4  and  C_5
REMARK    3  A    between atoms: C_5  and  C_6
REMARK    4  A    between atoms: C_9  and  C_10
REMARK    5  A    between atoms: N_12  and  C_13
REMARK    6  A    between atoms: C_13  and  C_14
REMARK    7  A    between atoms: C_13  and  C_15
REMARK    8  A    between atoms: C_18  and  O_19
REMARK    9  A    between atoms: O_19  and  C_20
REMARK   10  A    between atoms: C_20  and  C_21
REMARK   11  A    between atoms: C_21  and  C_22
REMARK   12  A    between atoms: C_21  and  C_23
REMARK                            x       y       z     vdW  Elec       q    Type
REMARK                         _______ _______ _______ _____ _____    ______ ____
ROOT
ATOM      1  C   UNL     1       7.943   5.570  19.852  0.00  0.00    +0.000 C 
ATOM      2  N   UNL     1       7.430   5.613  18.495  0.00  0.00    +0.000 NA
ATOM      3  C   UNL     1       7.548   6.683  17.791  0.00  0.00    +0.000 C 
ATOM      4  N   UNL     1       8.162   7.834  18.182  0.00  0.00    +0.000 N 
ATOM      5  N   UNL     1       7.057   6.722  16.520  0.00  0.00    +0.000 N 
ATOM      6  H   UNL     1       8.511   7.853  19.135  0.00  0.00    +0.000 HD
ATOM      7  H   UNL     1       7.164   7.548  15.956  0.00  0.00    +0.000 HD
ENDROOT
BRANCH   5   8
ATOM      8  C   UNL     1       6.358   5.624  15.872  0.00  0.00    +0.000 C 
ATOM      9  C   UNL     1       7.283   4.410  15.841  0.00  0.00    +0.000 C 
BRANCH   8  10
ATOM     10  C   UNL     1       5.029   5.414  16.592  0.00  0.00    +0.000 A 
ATOM     11  C   UNL     1       4.534   4.103  16.670  0.00  0.00    +0.000 A 
ATOM     12  C   UNL     1       3.323   3.822  17.300  0.00  0.00    +0.000 A 
ATOM     13  C   UNL     1       2.567   4.844  17.878  0.00  0.00    +0.000 A 
ATOM     14  C   UNL     1       3.048   6.153  17.816  0.00  0.00    +0.000 A 
ATOM     15  C   UNL     1       4.268   6.437  17.179  0.00  0.00    +0.000 A 
BRANCH  13  16
ATOM     16  O   UNL     1       1.361   4.669  18.515  0.00  0.00    +0.000 OA
BRANCH  16  17
ATOM     17  C   UNL     1       1.232   3.425  19.208  0.00  0.00    +0.000 C 
BRANCH  17  18
ATOM     18  C   UNL     1       1.441   3.579  20.719  0.00  0.00    +0.000 C 
ATOM     19  C   UNL     1       2.639   2.769  21.211  0.00  0.00    +0.000 C 
ATOM     20  C   UNL     1       1.635   5.064  21.035  0.00  0.00    +0.000 C 
ENDBRANCH  17  18
ENDBRANCH  16  17
ENDBRANCH  13  16
ENDBRANCH   8  10
ENDBRANCH   5   8
BRANCH   4  21
ATOM     21  C   UNL     1       7.883   9.174  17.684  0.00  0.00    +0.000 C 
BRANCH  21  22
ATOM     22  C   UNL     1       8.649  10.303  18.301  0.00  0.00    +0.000 A 
ATOM     23  N   UNL     1       8.674  11.531  17.760  0.00  0.00    +0.000 NA
ATOM     24  O   UNL     1       9.451  12.260  18.661  0.00  0.00    +0.000 OA
ATOM     25  C   UNL     1       9.816  11.397  19.648  0.00  0.00    +0.000 A 
ATOM     26  C   UNL     1      10.642  11.944  20.739  0.00  0.00    +0.000 C 
ATOM     27  N   UNL     1       9.354  10.176  19.478  0.00  0.00    +0.000 NA
ENDBRANCH  21  22
ENDBRANCH   4  21
TORSDOF 7
ENDMDL
MODEL 3
REMARK VINA RESULT:      -7.8      4.204      6.302
REMARK  Name = 
REMARK  12 active torsions:
REMARK  status: ('A' for Active; 'I' for Inactive)
REMARK    1  A    between atoms: C_1  and  N_2
REMARK    2  A    between atoms: N_4  and  C_5
REMARK    3  A    between atoms: C_5  and  C_6
REMARK    4  A    between atoms: C_9  and  C_10
REMARK    5  A    between atoms: N_12  and  C_13
REMARK    6  A    between atoms: C_13  and  C_14
REMARK    7  A    between atoms: C_13  and  C_15
REMARK    8  A    between atoms: C_18  and  O_19
REMARK    9  A    between atoms: O_19  and  C_20
REMARK   10  A    between atoms: C_20  and  C_21
REMARK   11  A    between atoms: C_21  and  C_22
REMARK   12  A    between atoms: C_21  and  C_23
REMARK                            x       y       z     vdW  Elec       q    Type
REMARK                         _______ _______ _______ _____ _____    ______ ____
ROOT
ATOM      1  C   UNL     1       4.405   2.241  20.490  0.00  0.00    +0.000 C 
ATOM      2  N   UNL     1       3.772   3.120  19.524  0.00  0.00    +0.000 NA
ATOM      3  C   UNL     1       4.485   3.754  18.660  0.00  0.00    +0.000 C 
ATOM      4  N   UNL     1       5.836   3.664  18.517  0.00  0.00    +0.000 N 
ATOM      5  N   UNL     1       3.887   4.585  17.759  0.00  0.00    +0.000 N 
ATOM      6  H   UNL     1       6.319   3.079  19.191  0.00  0.00    +0.000 HD
ATOM      7  H   UNL     1       4.435   5.066  17.067  0.00  0.00    +0.000 HD
ENDROOT
BRANCH   5   8
ATOM      8  C   UNL     1       2.458   4.851  17.706  0.00  0.00    +0.000 C 
ATOM      9  C   UNL     1       1.713   3.605  18.176  0.00  0.00    +0.000 C 
BRANCH   8  10
ATOM     10  C   UNL     1       2.179   6.120  18.506  0.00  0.00    +0.000 A 
ATOM     11  C   UNL     1       1.854   5.972  19.863  0.00  0.00    +0.000 A 
ATOM     12  C   UNL     1       1.574   7.075  20.667  0.00  0.00    +0.000 A 
ATOM     13  C   UNL     1       1.615   8.369  20.139  0.00  0.00    +0.000 A 
ATOM     14  C   UNL     1       1.944   8.535  18.794  0.00  0.00    +0.000 A 
ATOM     15  C   UNL     1       2.224   7.421  17.983  0.00  0.00    +0.000 A 
BRANCH  13  16
ATOM     16  O   UNL     1       1.350   9.518  20.847  0.00  0.00    +0.000 OA
BRANCH  16  17
ATOM     17  C   UNL     1       1.089  10.666  20.036  0.00  0.00    +0.000 C 
BRANCH  17  18
ATOM     18  C   UNL     1      -0.345  11.181  20.205  0.00  0.00    +0.000 C 
ATOM     19  C   UNL     1      -1.297  10.550  19.190  0.00  0.00    +0.000 C 
ATOM     20  C   UNL     1      -0.807  10.875  21.632  0.00  0.00    +0.000 C 
ENDBRANCH  17  18
ENDBRANCH  16  17
ENDBRANCH  13  16
ENDBRANCH   8  10
ENDBRANCH   5   8
BRANCH   4  21
ATOM     21  C   UNL     1       6.715   4.684  17.962  0.00  0.00    +0.000 C 
BRANCH  21  22
ATOM     22  C   UNL     1       6.811   4.761  16.470  0.00  0.00    +0.000 A 
ATOM     23  N   UNL     1       7.573   5.672  15.847  0.00  0.00    +0.000 NA
ATOM     24  O   UNL     1       7.405   5.363  14.498  0.00  0.00    +0.000 OA
ATOM     25  C   UNL     1       6.556   4.300  14.446  0.00  0.00    +0.000 A 
ATOM     26  C   UNL     1       6.229   3.773  13.109  0.00  0.00    +0.000 C 
ATOM     27  N   UNL     1       6.154   3.887  15.630  0.00  0.00    +0.000 NA
ENDBRANCH  21  22
ENDBRANCH   4  21
TORSDOF 7
ENDMDL
MODEL 4
REMARK VINA RESULT:      -7.7      6.469      9.210
REMARK  Name = 
REMARK  12 active torsions:
REMARK  status: ('A' for Active; 'I' for Inactive)
REMARK    1  A    between atoms: C_1  and  N_2
REMARK    2  A    between atoms: N_4  and  C_5
REMARK    3  A    between atoms: C_5  and  C_6
REMARK    4  A    between atoms: C_9  and  C_10
REMARK    5  A    between atoms: N_12  and  C_13
REMARK    6  A    between atoms: C_13  and  C_14
REMARK    7  A    between atoms: C_13  and  C_15
REMARK    8  A    between atoms: C_18  and  O_19
REMARK    9  A    between atoms: O_19  and  C_20
REMARK   10  A    between atoms: C_20  and  C_21
REMARK   11  A    between atoms: C_21  and  C_22
REMARK   12  A    between atoms: C_21  and  C_23
REMARK                            x       y       z     vdW  Elec       q    Type
REMARK                         _______ _______ _______ _____ _____    ______ ____
ROOT
ATOM      1  C   UNL     1       0.125  14.623  19.394  0.00  0.00    +0.000 C 
ATOM      2  N   UNL     1       0.224  13.217  19.740  0.00  0.00    +0.000 NA
ATOM      3  C   UNL     1      -0.587  12.363  19.223  0.00  0.00    +0.000 C 
ATOM      4  N   UNL     1      -1.560  12.635  18.310  0.00  0.00    +0.000 N 
ATOM      5  N   UNL     1      -0.496  11.044  19.558  0.00  0.00    +0.000 N 
ATOM      6  H   UNL     1      -1.678  13.612  18.061  0.00  0.00    +0.000 HD
ATOM      7  H   UNL     1      -1.113  10.368  19.141  0.00  0.00    +0.000 HD
ENDROOT
BRANCH   5   8
ATOM      8  C   UNL     1       0.458  10.500  20.512  0.00  0.00    +0.000 C 
ATOM      9  C   UNL     1      -0.287  10.148  21.797  0.00  0.00    +0.000 C 
BRANCH   8  10
ATOM     10  C   UNL     1       1.191   9.341  19.844  0.00  0.00    +0.000 A 
ATOM     11  C   UNL     1       1.531   9.482  18.490  0.00  0.00    +0.000 A 
ATOM     12  C   UNL     1       2.191   8.469  17.798  0.00  0.00    +0.000 A 
ATOM     13  C   UNL     1       2.540   7.278  18.441  0.00  0.00    +0.000 A 
ATOM     14  C   UNL     1       2.216   7.123  19.789  0.00  0.00    +0.000 A 
ATOM     15  C   UNL     1       1.548   8.145  20.486  0.00  0.00    +0.000 A 
BRANCH  13  16
ATOM     16  O   UNL     1       3.186   6.220  17.845  0.00  0.00    +0.000 OA
BRANCH  16  17
ATOM     17  C   UNL     1       3.628   5.208  18.753  0.00  0.00    +0.000 C 
BRANCH  17  18
ATOM     18  C   UNL     1       3.142   3.812  18.347  0.00  0.00    +0.000 C 
ATOM     19  C   UNL     1       1.679   3.826  17.906  0.00  0.00    +0.000 C 
ATOM     20  C   UNL     1       4.034   3.298  17.215  0.00  0.00    +0.000 C 
ENDBRANCH  17  18
ENDBRANCH  16  17
ENDBRANCH  13  16
ENDBRANCH   8  10
ENDBRANCH   5   8
BRANCH   4  21
ATOM     21  C   UNL     1      -2.783  11.873  18.098  0.00  0.00    +0.000 C 
BRANCH  21  22
ATOM     22  C   UNL     1      -2.828  10.977  16.900  0.00  0.00    +0.000 A 
ATOM     23  N   UNL     1      -2.274   9.755  16.899  0.00  0.00    +0.000 NA
ATOM     24  O   UNL     1      -2.580   9.266  15.629  0.00  0.00    +0.000 OA
ATOM     25  C   UNL     1      -3.284  10.243  14.995  0.00  0.00    +0.000 A 
ATOM     26  C   UNL     1      -3.739   9.954  13.624  0.00  0.00    +0.000 C 
ATOM     27  N   UNL     1      -3.465  11.322  15.728  0.00  0.00    +0.000 NA
ENDBRANCH  21  22
ENDBRANCH   4  21
TORSDOF 7
ENDMDL
MODEL 5
REMARK VINA RESULT:      -7.7      0.749      1.197
REMARK  Name = 
REMARK  12 active torsions:
REMARK  status: ('A' for Active; 'I' for Inactive)
REMARK    1  A    between atoms: C_1  and  N_2
REMARK    2  A    between atoms: N_4  and  C_5
REMARK    3  A    between atoms: C_5  and  C_6
REMARK    4  A    between atoms: C_9  and  C_10
REMARK    5  A    between atoms: N_12  and  C_13
REMARK    6  A    between atoms: C_13  and  C_14
REMARK    7  A    between atoms: C_13  and  C_15
REMARK    8  A    between atoms: C_18  and  O_19
REMARK    9  A    between atoms: O_19  and  C_20
REMARK   10  A    between atoms: C_20  and  C_21
REMARK   11  A    between atoms: C_21  and  C_22
REMARK   12  A    between atoms: C_21  and  C_23
REMARK                            x       y       z     vdW  Elec       q    Type
REMARK                         _______ _______ _______ _____ _____    ______ ____
ROOT
ATOM      1  C   UNL     1       7.925   5.416  19.763  0.00  0.00    +0.000 C 
ATOM      2  N   UNL     1       7.397   5.645  18.431  0.00  0.00    +0.000 NA
ATOM      3  C   UNL     1       7.590   6.773  17.842  0.00  0.00    +0.000 C 
ATOM      4  N   UNL     1       8.302   7.823  18.339  0.00  0.00    +0.000 N 
ATOM      5  N   UNL     1       7.086   6.988  16.594  0.00  0.00    +0.000 N 
ATOM      6  H   UNL     1       8.665   7.711  19.279  0.00  0.00    +0.000 HD
ATOM      7  H   UNL     1       7.251   7.859  16.119  0.00  0.00    +0.000 HD
ENDROOT
BRANCH   5   8
ATOM      8  C   UNL     1       6.290   6.024  15.850  0.00  0.00    +0.000 C 
ATOM      9  C   UNL     1       7.161   4.809  15.542  0.00  0.00    +0.000 C 
BRANCH   8  10
ATOM     10  C   UNL     1       5.023   5.734  16.648  0.00  0.00    +0.000 A 
ATOM     11  C   UNL     1       4.376   6.820  17.256  0.00  0.00    +0.000 A 
ATOM     12  C   UNL     1       3.219   6.645  18.013  0.00  0.00    +0.000 A 
ATOM     13  C   UNL     1       2.666   5.373  18.184  0.00  0.00    +0.000 A 
ATOM     14  C   UNL     1       3.293   4.282  17.581  0.00  0.00    +0.000 A 
ATOM     15  C   UNL     1       4.461   4.459  16.820  0.00  0.00    +0.000 A 
BRANCH  13  16
ATOM     16  O   UNL     1       1.535   5.096  18.915  0.00  0.00    +0.000 OA
BRANCH  16  17
ATOM     17  C   UNL     1       1.786   4.638  20.246  0.00  0.00    +0.000 C 
BRANCH  17  18
ATOM     18  C   UNL     1       1.774   3.108  20.344  0.00  0.00    +0.000 C 
ATOM     19  C   UNL     1       1.543   2.633  21.777  0.00  0.00    +0.000 C 
ATOM     20  C   UNL     1       0.678   2.570  19.421  0.00  0.00    +0.000 C 
ENDBRANCH  17  18
ENDBRANCH  16  17
ENDBRANCH  13  16
ENDBRANCH   8  10
ENDBRANCH   5   8
BRANCH   4  21
ATOM     21  C   UNL     1       8.125   9.226  17.993  0.00  0.00    +0.000 C 
BRANCH  21  22
ATOM     22  C   UNL     1       9.089  10.202  18.593  0.00  0.00    +0.000 A 
ATOM     23  N   UNL     1       9.247  10.328  19.919  0.00  0.00    +0.000 NA
ATOM     24  O   UNL     1      10.249  11.293  20.032  0.00  0.00    +0.000 OA
ATOM     25  C   UNL     1      10.588  11.650  18.763  0.00  0.00    +0.000 A 
ATOM     26  C   UNL     1      11.651  12.661  18.617  0.00  0.00    +0.000 C 
ATOM     27  N   UNL     1       9.905  11.014  17.835  0.00  0.00    +0.000 NA
ENDBRANCH  21  22
ENDBRANCH   4  21
TORSDOF 7
ENDMDL
MODEL 6
REMARK VINA RESULT:      -7.6      4.148      6.298
REMARK  Name = 
REMARK  12 active torsions:
REMARK  status: ('A' for Active; 'I' for Inactive)
REMARK    1  A    between atoms: C_1  and  N_2
REMARK    2  A    between atoms: N_4  and  C_5
REMARK    3  A    between atoms: C_5  and  C_6
REMARK    4  A    between atoms: C_9  and  C_10
REMARK    5  A    between atoms: N_12  and  C_13
REMARK    6  A    between atoms: C_13  and  C_14
REMARK    7  A    between atoms: C_13  and  C_15
REMARK    8  A    between atoms: C_18  and  O_19
REMARK    9  A    between atoms: O_19  and  C_20
REMARK   10  A    between atoms: C_20  and  C_21
REMARK   11  A    between atoms: C_21  and  C_22
REMARK   12  A    between atoms: C_21  and  C_23
REMARK                            x       y       z     vdW  Elec       q    Type
REMARK                         _______ _______ _______ _____ _____    ______ ____
ROOT
ATOM      1  C   UNL     1       4.351   2.236  20.510  0.00  0.00    +0.000 C 
ATOM      2  N   UNL     1       3.731   3.136  19.555  0.00  0.00    +0.000 NA
ATOM      3  C   UNL     1       4.455   3.788  18.714  0.00  0.00    +0.000 C 
ATOM      4  N   UNL     1       5.808   3.701  18.587  0.00  0.00    +0.000 N 
ATOM      5  N   UNL     1       3.869   4.640  17.824  0.00  0.00    +0.000 N 
ATOM      6  H   UNL     1       6.281   3.101  19.254  0.00  0.00    +0.000 HD
ATOM      7  H   UNL     1       4.426   5.136  17.150  0.00  0.00    +0.000 HD
ENDROOT
BRANCH   5   8
ATOM      8  C   UNL     1       2.441   4.909  17.759  0.00  0.00    +0.000 C 
ATOM      9  C   UNL     1       1.689   3.645  18.167  0.00  0.00    +0.000 C 
BRANCH   8  10
ATOM     10  C   UNL     1       2.150   6.145  18.605  0.00  0.00    +0.000 A 
ATOM     11  C   UNL     1       2.216   7.395  17.972  0.00  0.00    +0.000 A 
ATOM     12  C   UNL     1       1.975   8.576  18.671  0.00  0.00    +0.000 A 
ATOM     13  C   UNL     1       1.654   8.546  20.031  0.00  0.00    +0.000 A 
ATOM     14  C   UNL     1       1.576   7.310  20.674  0.00  0.00    +0.000 A 
ATOM     15  C   UNL     1       1.822   6.119  19.969  0.00  0.00    +0.000 A 
BRANCH  13  16
ATOM     16  O   UNL     1       1.405   9.653  20.807  0.00  0.00    +0.000 OA
BRANCH  16  17
ATOM     17  C   UNL     1       0.159   9.617  21.507  0.00  0.00    +0.000 C 
BRANCH  17  18
ATOM     18  C   UNL     1      -0.694  10.862  21.237  0.00  0.00    +0.000 C 
ATOM     19  C   UNL     1      -0.050  12.125  21.807  0.00  0.00    +0.000 C 
ATOM     20  C   UNL     1      -0.890  11.000  19.726  0.00  0.00    +0.000 C 
ENDBRANCH  17  18
ENDBRANCH  16  17
ENDBRANCH  13  16
ENDBRANCH   8  10
ENDBRANCH   5   8
BRANCH   4  21
ATOM     21  C   UNL     1       6.695   4.731  18.065  0.00  0.00    +0.000 C 
BRANCH  21  22
ATOM     22  C   UNL     1       6.802   4.847  16.576  0.00  0.00    +0.000 A 
ATOM     23  N   UNL     1       7.528   5.807  15.984  0.00  0.00    +0.000 NA
ATOM     24  O   UNL     1       7.388   5.521  14.625  0.00  0.00    +0.000 OA
ATOM     25  C   UNL     1       6.590   4.422  14.540  0.00  0.00    +0.000 A 
ATOM     26  C   UNL     1       6.303   3.911  13.188  0.00  0.00    +0.000 C 
ATOM     27  N   UNL     1       6.196   3.963  15.709  0.00  0.00    +0.000 NA
ENDBRANCH  21  22
ENDBRANCH   4  21
TORSDOF 7
ENDMDL
MODEL 7
REMARK VINA RESULT:      -7.6      5.200      8.271
REMARK  Name = 
REMARK  12 active torsions:
REMARK  status: ('A' for Active; 'I' for Inactive)
REMARK    1  A    between atoms: C_1  and  N_2
REMARK    2  A    between atoms: N_4  and  C_5
REMARK    3  A    between atoms: C_5  and  C_6
REMARK    4  A    between atoms: C_9  and  C_10
REMARK    5  A    between atoms: N_12  and  C_13
REMARK    6  A    between atoms: C_13  and  C_14
REMARK    7  A    between atoms: C_13  and  C_15
REMARK    8  A    between atoms: C_18  and  O_19
REMARK    9  A    between atoms: O_19  and  C_20
REMARK   10  A    between atoms: C_20  and  C_21
REMARK   11  A    between atoms: C_21  and  C_22
REMARK   12  A    between atoms: C_21  and  C_23
REMARK                            x       y       z     vdW  Elec       q    Type
REMARK                         _______ _______ _______ _____ _____    ______ ____
ROOT
ATOM      1  C   UNL     1       1.139   9.149  22.106  0.00  0.00    +0.000 C 
ATOM      2  N   UNL     1       1.719   8.265  21.111  0.00  0.00    +0.000 NA
ATOM      3  C   UNL     1       1.555   8.503  19.857  0.00  0.00    +0.000 C 
ATOM      4  N   UNL     1       0.894   9.568  19.326  0.00  0.00    +0.000 N 
ATOM      5  N   UNL     1       2.094   7.665  18.926  0.00  0.00    +0.000 N 
ATOM      6  H   UNL     1       0.452  10.196  19.989  0.00  0.00    +0.000 HD
ATOM      7  H   UNL     1       1.988   7.857  17.945  0.00  0.00    +0.000 HD
ENDROOT
BRANCH   5   8
ATOM      8  C   UNL     1       2.843   6.458  19.238  0.00  0.00    +0.000 C 
ATOM      9  C   UNL     1       1.859   5.375  19.674  0.00  0.00    +0.000 C 
BRANCH   8  10
ATOM     10  C   UNL     1       3.708   6.108  18.031  0.00  0.00    +0.000 A 
ATOM     11  C   UNL     1       4.208   7.169  17.262  0.00  0.00    +0.000 A 
ATOM     12  C   UNL     1       4.997   6.941  16.137  0.00  0.00    +0.000 A 
ATOM     13  C   UNL     1       5.318   5.638  15.744  0.00  0.00    +0.000 A 
ATOM     14  C   UNL     1       4.834   4.571  16.502  0.00  0.00    +0.000 A 
ATOM     15  C   UNL     1       4.036   4.802  17.636  0.00  0.00    +0.000 A 
BRANCH  13  16
ATOM     16  O   UNL     1       6.082   5.310  14.649  0.00  0.00    +0.000 OA
BRANCH  16  17
ATOM     17  C   UNL     1       6.174   3.907  14.391  0.00  0.00    +0.000 C 
BRANCH  17  18
ATOM     18  C   UNL     1       6.483   3.607  12.920  0.00  0.00    +0.000 C 
ATOM     19  C   UNL     1       5.208   3.442  12.094  0.00  0.00    +0.000 C 
ATOM     20  C   UNL     1       7.336   4.748  12.359  0.00  0.00    +0.000 C 
ENDBRANCH  17  18
ENDBRANCH  16  17
ENDBRANCH  13  16
ENDBRANCH   8  10
ENDBRANCH   5   8
BRANCH   4  21
ATOM     21  C   UNL     1       0.246   9.620  18.022  0.00  0.00    +0.000 C 
BRANCH  21  22
ATOM     22  C   UNL     1      -1.114  10.241  17.962  0.00  0.00    +0.000 A 
ATOM     23  N   UNL     1      -1.598  11.002  18.955  0.00  0.00    +0.000 NA
ATOM     24  O   UNL     1      -2.846  11.400  18.475  0.00  0.00    +0.000 OA
ATOM     25  C   UNL     1      -2.987  10.836  17.244  0.00  0.00    +0.000 A 
ATOM     26  C   UNL     1      -4.236  11.124  16.518  0.00  0.00    +0.000 C 
ATOM     27  N   UNL     1      -1.953  10.108  16.876  0.00  0.00    +0.000 NA
ENDBRANCH  21  22
ENDBRANCH   4  21
TORSDOF 7
ENDMDL
MODEL 8
REMARK VINA RESULT:      -7.4      6.120      9.019
REMARK  Name = 
REMARK  12 active torsions:
REMARK  status: ('A' for Active; 'I' for Inactive)
REMARK    1  A    between atoms: C_1  and  N_2
REMARK    2  A    between atoms: N_4  and  C_5
REMARK    3  A    between atoms: C_5  and  C_6
REMARK    4  A    between atoms: C_9  and  C_10
REMARK    5  A    between atoms: N_12  and  C_13
REMARK    6  A    between atoms: C_13  and  C_14
REMARK    7  A    between atoms: C_13  and  C_15
REMARK    8  A    between atoms: C_18  and  O_19
REMARK    9  A    between atoms: O_19  and  C_20
REMARK   10  A    between atoms: C_20  and  C_21
REMARK   11  A    between atoms: C_21  and  C_22
REMARK   12  A    between atoms: C_21  and  C_23
REMARK                            x       y       z     vdW  Elec       q    Type
REMARK                         _______ _______ _______ _____ _____    ______ ____
ROOT
ATOM      1  C   UNL     1       0.444  12.720  20.223  0.00  0.00    +0.000 C 
ATOM      2  N   UNL     1       0.829  11.322  20.154  0.00  0.00    +0.000 NA
ATOM      3  C   UNL     1       0.366  10.568  19.220  0.00  0.00    +0.000 C 
ATOM      4  N   UNL     1      -0.463  10.959  18.214  0.00  0.00    +0.000 N 
ATOM      5  N   UNL     1       0.724   9.253  19.164  0.00  0.00    +0.000 N 
ATOM      6  H   UNL     1      -0.776  11.924  18.241  0.00  0.00    +0.000 HD
ATOM      7  H   UNL     1       0.383   8.663  18.425  0.00  0.00    +0.000 HD
ENDROOT
BRANCH   5   8
ATOM      8  C   UNL     1       1.596   8.594  20.124  0.00  0.00    +0.000 C 
ATOM      9  C   UNL     1       0.759   8.165  21.327  0.00  0.00    +0.000 C 
BRANCH   8  10
ATOM     10  C   UNL     1       2.330   7.467  19.405  0.00  0.00    +0.000 A 
ATOM     11  C   UNL     1       2.434   6.234  20.067  0.00  0.00    +0.000 A 
ATOM     12  C   UNL     1       3.097   5.154  19.489  0.00  0.00    +0.000 A 
ATOM     13  C   UNL     1       3.677   5.268  18.222  0.00  0.00    +0.000 A 
ATOM     14  C   UNL     1       3.577   6.485  17.547  0.00  0.00    +0.000 A 
ATOM     15  C   UNL     1       2.910   7.576  18.131  0.00  0.00    +0.000 A 
BRANCH  13  16
ATOM     16  O   UNL     1       4.355   4.265  17.572  0.00  0.00    +0.000 OA
BRANCH  16  17
ATOM     17  C   UNL     1       4.777   4.598  16.247  0.00  0.00    +0.000 C 
BRANCH  17  18
ATOM     18  C   UNL     1       6.138   3.984  15.900  0.00  0.00    +0.000 C 
ATOM     19  C   UNL     1       6.535   4.266  14.452  0.00  0.00    +0.000 C 
ATOM     20  C   UNL     1       7.187   4.550  16.860  0.00  0.00    +0.000 C 
ENDBRANCH  17  18
ENDBRANCH  16  17
ENDBRANCH  13  16
ENDBRANCH   8  10
ENDBRANCH   5   8
BRANCH   4  21
ATOM     21  C   UNL     1      -1.396  10.111  17.485  0.00  0.00    +0.000 C 
BRANCH  21  22
ATOM     22  C   UNL     1      -2.683  10.736  17.045  0.00  0.00    +0.000 A 
ATOM     23  N   UNL     1      -3.009  10.868  15.750  0.00  0.00    +0.000 NA
ATOM     24  O   UNL     1      -4.278  11.447  15.797  0.00  0.00    +0.000 OA
ATOM     25  C   UNL     1      -4.584  11.606  17.114  0.00  0.00    +0.000 A 
ATOM     26  C   UNL     1      -5.898  12.195  17.426  0.00  0.00    +0.000 C 
ATOM     27  N   UNL     1      -3.638  11.189  17.930  0.00  0.00    +0.000 NA
ENDBRANCH  21  22
ENDBRANCH   4  21
TORSDOF 7
ENDMDL
MODEL 9
REMARK VINA RESULT:      -7.4      3.846      6.110
REMARK  Name = 
REMARK  12 active torsions:
REMARK  status: ('A' for Active; 'I' for Inactive)
REMARK    1  A    between atoms: C_1  and  N_2
REMARK    2  A    between atoms: N_4  and  C_5
REMARK    3  A    between atoms: C_5  and  C_6
REMARK    4  A    between atoms: C_9  and  C_10
REMARK    5  A    between atoms: N_12  and  C_13
REMARK    6  A    between atoms: C_13  and  C_14
REMARK    7  A    between atoms: C_13  and  C_15
REMARK    8  A    between atoms: C_18  and  O_19
REMARK    9  A    between atoms: O_19  and  C_20
REMARK   10  A    between atoms: C_20  and  C_21
REMARK   11  A    between atoms: C_21  and  C_22
REMARK   12  A    between atoms: C_21  and  C_23
REMARK                            x       y       z     vdW  Elec       q    Type
REMARK                         _______ _______ _______ _____ _____    ______ ____
ROOT
ATOM      1  C   UNL     1       3.777   1.370  18.332  0.00  0.00    +0.000 C 
ATOM      2  N   UNL     1       3.344   2.687  18.763  0.00  0.00    +0.000 NA
ATOM      3  C   UNL     1       4.191   3.652  18.850  0.00  0.00    +0.000 C 
ATOM      4  N   UNL     1       5.514   3.585  18.535  0.00  0.00    +0.000 N 
ATOM      5  N   UNL     1       3.782   4.884  19.264  0.00  0.00    +0.000 N 
ATOM      6  H   UNL     1       5.861   2.674  18.254  0.00  0.00    +0.000 HD
ATOM      7  H   UNL     1       4.434   5.648  19.314  0.00  0.00    +0.000 HD
ENDROOT
BRANCH   5   8
ATOM      8  C   UNL     1       2.421   5.212  19.660  0.00  0.00    +0.000 C 
ATOM      9  C   UNL     1       2.235   4.826  21.126  0.00  0.00    +0.000 C 
BRANCH   8  10
ATOM     10  C   UNL     1       2.170   6.681  19.335  0.00  0.00    +0.000 A 
ATOM     11  C   UNL     1       1.630   7.486  20.349  0.00  0.00    +0.000 A 
ATOM     12  C   UNL     1       1.359   8.837  20.136  0.00  0.00    +0.000 A 
ATOM     13  C   UNL     1       1.624   9.430  18.899  0.00  0.00    +0.000 A 
ATOM     14  C   UNL     1       2.168   8.645  17.881  0.00  0.00    +0.000 A 
ATOM     15  C   UNL     1       2.440   7.283  18.096  0.00  0.00    +0.000 A 
BRANCH  13  16
ATOM     16  O   UNL     1       1.387  10.748  18.589  0.00  0.00    +0.000 OA
BRANCH  16  17
ATOM     17  C   UNL     1       1.075  11.573  19.714  0.00  0.00    +0.000 C 
BRANCH  17  18
ATOM     18  C   UNL     1       0.304  12.836  19.311  0.00  0.00    +0.000 C 
ATOM     19  C   UNL     1       1.209  13.856  18.622  0.00  0.00    +0.000 C 
ATOM     20  C   UNL     1      -0.844  12.430  18.384  0.00  0.00    +0.000 C 
ENDBRANCH  17  18
ENDBRANCH  16  17
ENDBRANCH  13  16
ENDBRANCH   8  10
ENDBRANCH   5   8
BRANCH   4  21
ATOM     21  C   UNL     1       6.575   4.421  19.080  0.00  0.00    +0.000 C 
BRANCH  21  22
ATOM     22  C   UNL     1       7.034   5.572  18.240  0.00  0.00    +0.000 A 
ATOM     23  N   UNL     1       7.050   5.518  16.900  0.00  0.00    +0.000 NA
ATOM     24  O   UNL     1       7.495   6.789  16.534  0.00  0.00    +0.000 OA
ATOM     25  C   UNL     1       7.705   7.475  17.691  0.00  0.00    +0.000 A 
ATOM     26  C   UNL     1       8.172   8.867  17.564  0.00  0.00    +0.000 C 
ATOM     27  N   UNL     1       7.440   6.776  18.774  0.00  0.00    +0.000 NA
ENDBRANCH  21  22
ENDBRANCH   4  21
TORSDOF 7
ENDMDL
