MODEL 1
REMARK VINA RESULT:      -8.8      0.000      0.000
REMARK  Name = 
REMARK  8 active torsions:
REMARK  status: ('A' for Active; 'I' for Inactive)
REMARK    1  A    between atoms: C_1  and  C_2
REMARK    2  A    between atoms: C_2  and  C_3
REMARK    3  A    between atoms: C_7  and  C_8
REMARK    4  A    between atoms: N_10  and  C_11
REMARK    5  A    between atoms: C_11  and  C_12
REMARK    6  A    between atoms: C_16  and  C_17
REMARK    7  A    between atoms: C_21  and  C_22
REMARK    8  A    between atoms: C_22  and  N_23
REMARK                            x       y       z     vdW  Elec       q    Type
REMARK                         _______ _______ _______ _____ _____    ______ ____
ROOT
ATOM      1  C   UNL     1       4.295   4.515  18.961  0.00  0.00    +0.000 A 
ATOM      2  C   UNL     1       3.477   3.570  19.590  0.00  0.00    +0.000 A 
ATOM      3  C   UNL     1       2.207   3.930  20.046  0.00  0.00    +0.000 A 
ATOM      4  C   UNL     1       1.745   5.240  19.889  0.00  0.00    +0.000 A 
ATOM      5  C   UNL     1       2.545   6.224  19.288  0.00  0.00    +0.000 A 
ATOM      6  C   UNL     1       3.823   5.832  18.836  0.00  0.00    +0.000 A 
ENDROOT
BRANCH   5   7
ATOM      7  C   UNL     1       2.079   7.617  19.103  0.00  0.00    +0.000 A 
ATOM      8  C   UNL     1       2.122   8.269  17.859  0.00  0.00    +0.000 A 
ATOM      9  C   UNL     1       1.731   9.609  17.734  0.00  0.00    +0.000 A 
ATOM     10  C   UNL     1       1.315  10.334  18.855  0.00  0.00    +0.000 A 
ATOM     11  C   UNL     1       1.267   9.726  20.113  0.00  0.00    +0.000 A 
ATOM     12  C   UNL     1       1.607   8.362  20.199  0.00  0.00    +0.000 A 
BRANCH  11  13
ATOM     13  C   UNL     1       0.794  10.497  21.339  0.00  0.00    +0.000 C 
BRANCH  13  14
ATOM     14  N   UNL     1      -0.671  10.603  21.441  0.00  0.00    +0.000 NA
ATOM     15  C   UNL     1      -1.141  11.086  22.754  0.00  0.00    +0.000 C 
ATOM     16  C   UNL     1      -1.040  12.610  22.976  0.00  0.00    +0.000 C 
ATOM     17  N   UNL     1      -1.642  13.409  21.904  0.00  0.00    +0.000 NA
ATOM     18  C   UNL     1      -1.220  12.951  20.576  0.00  0.00    +0.000 C 
ATOM     19  C   UNL     1      -1.273  11.421  20.374  0.00  0.00    +0.000 C 
ATOM     20  H   UNL     1      -1.384  14.388  22.025  0.00  0.00    +0.000 HD
ENDBRANCH  13  14
ENDBRANCH  11  13
ENDBRANCH   5   7
BRANCH   1  21
ATOM     21  C   UNL     1       5.640   4.133  18.398  0.00  0.00    +0.000 C 
BRANCH  21  24
ATOM     22  C   UNL     1       6.931   4.407  16.345  0.00  0.00    +0.000 C 
ATOM     23  O   UNL     1       7.986   4.493  16.963  0.00  0.00    +0.000 OA
ATOM     24  N   UNL     1       5.702   4.254  16.959  0.00  0.00    +0.000 N 
ATOM     25  H   UNL     1       4.915   3.917  16.418  0.00  0.00    +0.000 HD
BRANCH  22  30
ATOM     26  C   UNL     1       6.039   3.726  12.710  0.00  0.00    +0.000 A 
ATOM     27  C   UNL     1       6.982   4.535  12.062  0.00  0.00    +0.000 A 
ATOM     28  C   UNL     1       7.887   5.294  12.803  0.00  0.00    +0.000 A 
ATOM     29  C   UNL     1       7.863   5.246  14.196  0.00  0.00    +0.000 A 
ATOM     30  C   UNL     1       6.934   4.436  14.857  0.00  0.00    +0.000 A 
ATOM     31  C   UNL     1       6.012   3.691  14.113  0.00  0.00    +0.000 A 
BRANCH  26  33
ATOM     32  C   UNL     1       5.859   1.607  11.423  0.00  0.00    +0.000 C 
ATOM     33  C   UNL     1       5.115   2.840  11.915  0.00  0.00    +0.000 C 
ENDBRANCH  26  33
ENDBRANCH  22  30
ENDBRANCH  21  24
ENDBRANCH   1  21
TORSDOF 7
ENDMDL
MODEL 2
REMARK VINA RESULT:      -8.7      3.199     10.654
REMARK  Name = 
REMARK  8 active torsions:
REMARK  status: ('A' for Active; 'I' for Inactive)
REMARK    1  A    between atoms: C_1  and  C_2
REMARK    2  A    between atoms: C_2  and  C_3
REMARK    3  A    between atoms: C_7  and  C_8
REMARK    4  A    between atoms: N_10  and  C_11
REMARK    5  A    between atoms: C_11  and  C_12
REMARK    6  A    between atoms: C_16  and  C_17
REMARK    7  A    between atoms: C_21  and  C_22
REMARK    8  A    between atoms: C_22  and  N_23
REMARK                            x       y       z     vdW  Elec       q    Type
REMARK                         _______ _______ _______ _____ _____    ______ ____
ROOT
ATOM      1  C   UNL     1       0.929  10.035  19.558  0.00  0.00    +0.000 A 
ATOM      2  C   UNL     1       0.775  10.400  20.900  0.00  0.00    +0.000 A 
ATOM      3  C   UNL     1       1.075   9.492  21.916  0.00  0.00    +0.000 A 
ATOM      4  C   UNL     1       1.523   8.204  21.604  0.00  0.00    +0.000 A 
ATOM      5  C   UNL     1       1.665   7.790  20.271  0.00  0.00    +0.000 A 
ATOM      6  C   UNL     1       1.355   8.729  19.264  0.00  0.00    +0.000 A 
ENDROOT
BRANCH   5   7
ATOM      7  C   UNL     1       2.143   6.436  19.912  0.00  0.00    +0.000 A 
ATOM      8  C   UNL     1       2.021   5.337  20.779  0.00  0.00    +0.000 A 
ATOM      9  C   UNL     1       2.541   4.083  20.431  0.00  0.00    +0.000 A 
ATOM     10  C   UNL     1       3.219   3.908  19.221  0.00  0.00    +0.000 A 
ATOM     11  C   UNL     1       3.371   4.977  18.333  0.00  0.00    +0.000 A 
ATOM     12  C   UNL     1       2.785   6.210  18.680  0.00  0.00    +0.000 A 
BRANCH  11  13
ATOM     13  C   UNL     1       4.086   4.795  17.000  0.00  0.00    +0.000 C 
BRANCH  13  14
ATOM     14  N   UNL     1       5.438   4.227  17.128  0.00  0.00    +0.000 NA
ATOM     15  C   UNL     1       6.015   3.775  15.848  0.00  0.00    +0.000 C 
ATOM     16  C   UNL     1       6.595   4.889  14.950  0.00  0.00    +0.000 C 
ATOM     17  N   UNL     1       7.537   5.778  15.638  0.00  0.00    +0.000 NA
ATOM     18  C   UNL     1       7.015   6.237  16.929  0.00  0.00    +0.000 C 
ATOM     19  C   UNL     1       6.388   5.128  17.803  0.00  0.00    +0.000 C 
ATOM     20  H   UNL     1       7.738   6.583  15.045  0.00  0.00    +0.000 HD
ENDBRANCH  13  14
ENDBRANCH  11  13
ENDBRANCH   5   7
BRANCH   1  21
ATOM     21  C   UNL     1       0.679  11.021  18.446  0.00  0.00    +0.000 C 
BRANCH  21  24
ATOM     22  C   UNL     1      -1.664  10.829  17.790  0.00  0.00    +0.000 C 
ATOM     23  O   UNL     1      -1.453   9.796  17.164  0.00  0.00    +0.000 OA
ATOM     24  N   UNL     1      -0.672  11.536  18.444  0.00  0.00    +0.000 N 
ATOM     25  H   UNL     1      -0.928  12.205  19.158  0.00  0.00    +0.000 HD
BRANCH  22  30
ATOM     26  C   UNL     1      -4.843  12.380  19.189  0.00  0.00    +0.000 A 
ATOM     27  C   UNL     1      -5.656  12.365  18.048  0.00  0.00    +0.000 A 
ATOM     28  C   UNL     1      -5.168  11.864  16.842  0.00  0.00    +0.000 A 
ATOM     29  C   UNL     1      -3.868  11.365  16.767  0.00  0.00    +0.000 A 
ATOM     30  C   UNL     1      -3.047  11.364  17.901  0.00  0.00    +0.000 A 
ATOM     31  C   UNL     1      -3.532  11.888  19.105  0.00  0.00    +0.000 A 
BRANCH  26  33
ATOM     32  C   UNL     1      -6.862  13.214  20.376  0.00  0.00    +0.000 C 
ATOM     33  C   UNL     1      -5.393  12.842  20.514  0.00  0.00    +0.000 C 
ENDBRANCH  26  33
ENDBRANCH  22  30
ENDBRANCH  21  24
ENDBRANCH   1  21
TORSDOF 7
ENDMDL
MODEL 3
REMARK VINA RESULT:      -8.6      3.737      9.634
REMARK  Name = 
REMARK  8 active torsions:
REMARK  status: ('A' for Active; 'I' for Inactive)
REMARK    1  A    between atoms: C_1  and  C_2
REMARK    2  A    between atoms: C_2  and  C_3
REMARK    3  A    between atoms: C_7  and  C_8
REMARK    4  A    between atoms: N_10  and  C_11
REMARK    5  A    between atoms: C_11  and  C_12
REMARK    6  A    between atoms: C_16  and  C_17
REMARK    7  A    between atoms: C_21  and  C_22
REMARK    8  A    between atoms: C_22  and  N_23
REMARK                            x       y       z     vdW  Elec       q    Type
REMARK                         _______ _______ _______ _____ _____    ______ ____
ROOT
ATOM      1  C   UNL     1       1.183  10.009  19.848  0.00  0.00    +0.000 A 
ATOM      2  C   UNL     1       1.063  10.319  21.207  0.00  0.00    +0.000 A 
ATOM      3  C   UNL     1       1.259   9.331  22.174  0.00  0.00    +0.000 A 
ATOM      4  C   UNL     1       1.566   8.021  21.794  0.00  0.00    +0.000 A 
ATOM      5  C   UNL     1       1.669   7.663  20.441  0.00  0.00    +0.000 A 
ATOM      6  C   UNL     1       1.466   8.682  19.486  0.00  0.00    +0.000 A 
ENDROOT
BRANCH   5   7
ATOM      7  C   UNL     1       1.998   6.286  20.011  0.00  0.00    +0.000 A 
ATOM      8  C   UNL     1       1.601   5.152  20.739  0.00  0.00    +0.000 A 
ATOM      9  C   UNL     1       1.985   3.866  20.336  0.00  0.00    +0.000 A 
ATOM     10  C   UNL     1       2.796   3.688  19.212  0.00  0.00    +0.000 A 
ATOM     11  C   UNL     1       3.222   4.790  18.465  0.00  0.00    +0.000 A 
ATOM     12  C   UNL     1       2.771   6.065  18.857  0.00  0.00    +0.000 A 
BRANCH  11  13
ATOM     13  C   UNL     1       4.087   4.610  17.223  0.00  0.00    +0.000 C 
BRANCH  13  14
ATOM     14  N   UNL     1       5.037   5.712  17.000  0.00  0.00    +0.000 NA
ATOM     15  C   UNL     1       6.279   5.593  17.786  0.00  0.00    +0.000 C 
ATOM     16  C   UNL     1       7.329   4.609  17.227  0.00  0.00    +0.000 C 
ATOM     17  N   UNL     1       7.650   4.823  15.812  0.00  0.00    +0.000 NA
ATOM     18  C   UNL     1       6.443   4.969  14.992  0.00  0.00    +0.000 C 
ATOM     19  C   UNL     1       5.373   5.914  15.580  0.00  0.00    +0.000 C 
ATOM     20  H   UNL     1       8.204   4.039  15.468  0.00  0.00    +0.000 HD
ENDBRANCH  13  14
ENDBRANCH  11  13
ENDBRANCH   5   7
BRANCH   1  21
ATOM     21  C   UNL     1       1.046  11.073  18.790  0.00  0.00    +0.000 C 
BRANCH  21  24
ATOM     22  C   UNL     1      -1.330  11.375  18.319  0.00  0.00    +0.000 C 
ATOM     23  O   UNL     1      -1.515  11.956  19.383  0.00  0.00    +0.000 OA
ATOM     24  N   UNL     1      -0.102  10.871  17.934  0.00  0.00    +0.000 N 
ATOM     25  H   UNL     1       0.063  10.655  16.959  0.00  0.00    +0.000 HD
BRANCH  22  30
ATOM     26  C   UNL     1      -3.321  10.479  15.205  0.00  0.00    +0.000 A 
ATOM     27  C   UNL     1      -4.596  10.922  15.583  0.00  0.00    +0.000 A 
ATOM     28  C   UNL     1      -4.799  11.496  16.837  0.00  0.00    +0.000 A 
ATOM     29  C   UNL     1      -3.731  11.640  17.721  0.00  0.00    +0.000 A 
ATOM     30  C   UNL     1      -2.450  11.211  17.354  0.00  0.00    +0.000 A 
ATOM     31  C   UNL     1      -2.252  10.616  16.103  0.00  0.00    +0.000 A 
BRANCH  26  33
ATOM     32  C   UNL     1      -4.380   9.900  13.031  0.00  0.00    +0.000 C 
ATOM     33  C   UNL     1      -3.079   9.936  13.820  0.00  0.00    +0.000 C 
ENDBRANCH  26  33
ENDBRANCH  22  30
ENDBRANCH  21  24
ENDBRANCH   1  21
TORSDOF 7
ENDMDL
MODEL 4
REMARK VINA RESULT:      -8.5      3.159     10.557
REMARK  Name = 
REMARK  8 active torsions:
REMARK  status: ('A' for Active; 'I' for Inactive)
REMARK    1  A    between atoms: C_1  and  C_2
REMARK    2  A    between atoms: C_2  and  C_3
REMARK    3  A    between atoms: C_7  and  C_8
REMARK    4  A    between atoms: N_10  and  C_11
REMARK    5  A    between atoms: C_11  and  C_12
REMARK    6  A    between atoms: C_16  and  C_17
REMARK    7  A    between atoms: C_21  and  C_22
REMARK    8  A    between atoms: C_22  and  N_23
REMARK                            x       y       z     vdW  Elec       q    Type
REMARK                         _______ _______ _______ _____ _____    ______ ____
ROOT
ATOM      1  C   UNL     1       0.815  10.059  19.701  0.00  0.00    +0.000 A 
ATOM      2  C   UNL     1       0.714  10.502  21.024  0.00  0.00    +0.000 A 
ATOM      3  C   UNL     1       1.045   9.651  22.080  0.00  0.00    +0.000 A 
ATOM      4  C   UNL     1       1.469   8.343  21.826  0.00  0.00    +0.000 A 
ATOM      5  C   UNL     1       1.558   7.850  20.516  0.00  0.00    +0.000 A 
ATOM      6  C   UNL     1       1.219   8.733  19.468  0.00  0.00    +0.000 A 
ENDROOT
BRANCH   5   7
ATOM      7  C   UNL     1       2.010   6.473  20.218  0.00  0.00    +0.000 A 
ATOM      8  C   UNL     1       1.380   5.338  20.756  0.00  0.00    +0.000 A 
ATOM      9  C   UNL     1       1.873   4.051  20.503  0.00  0.00    +0.000 A 
ATOM     10  C   UNL     1       3.024   3.873  19.731  0.00  0.00    +0.000 A 
ATOM     11  C   UNL     1       3.689   4.976  19.185  0.00  0.00    +0.000 A 
ATOM     12  C   UNL     1       3.136   6.252  19.404  0.00  0.00    +0.000 A 
BRANCH  11  13
ATOM     13  C   UNL     1       4.932   4.795  18.321  0.00  0.00    +0.000 C 
BRANCH  13  14
ATOM     14  N   UNL     1       4.912   5.592  17.084  0.00  0.00    +0.000 NA
ATOM     15  C   UNL     1       5.797   6.771  17.126  0.00  0.00    +0.000 C 
ATOM     16  C   UNL     1       7.296   6.487  16.889  0.00  0.00    +0.000 C 
ATOM     17  N   UNL     1       7.569   5.698  15.683  0.00  0.00    +0.000 NA
ATOM     18  C   UNL     1       6.696   4.523  15.588  0.00  0.00    +0.000 C 
ATOM     19  C   UNL     1       5.204   4.802  15.876  0.00  0.00    +0.000 C 
ATOM     20  H   UNL     1       8.544   5.400  15.687  0.00  0.00    +0.000 HD
ENDBRANCH  13  14
ENDBRANCH  11  13
ENDBRANCH   5   7
BRANCH   1  21
ATOM     21  C   UNL     1       0.532  10.981  18.544  0.00  0.00    +0.000 C 
BRANCH  21  24
ATOM     22  C   UNL     1      -1.813  10.868  17.878  0.00  0.00    +0.000 C 
ATOM     23  O   UNL     1      -1.620   9.867  17.196  0.00  0.00    +0.000 OA
ATOM     24  N   UNL     1      -0.810  11.520  18.569  0.00  0.00    +0.000 N 
ATOM     25  H   UNL     1      -1.054  12.155  19.319  0.00  0.00    +0.000 HD
BRANCH  22  30
ATOM     26  C   UNL     1      -4.942  12.459  19.342  0.00  0.00    +0.000 A 
ATOM     27  C   UNL     1      -5.778  12.458  18.217  0.00  0.00    +0.000 A 
ATOM     28  C   UNL     1      -5.321  11.953  17.001  0.00  0.00    +0.000 A 
ATOM     29  C   UNL     1      -4.030  11.437  16.899  0.00  0.00    +0.000 A 
ATOM     30  C   UNL     1      -3.187  11.422  18.017  0.00  0.00    +0.000 A 
ATOM     31  C   UNL     1      -3.640  11.949  19.231  0.00  0.00    +0.000 A 
BRANCH  26  33
ATOM     32  C   UNL     1      -4.360  12.845  21.728  0.00  0.00    +0.000 C 
ATOM     33  C   UNL     1      -5.459  12.926  20.679  0.00  0.00    +0.000 C 
ENDBRANCH  26  33
ENDBRANCH  22  30
ENDBRANCH  21  24
ENDBRANCH   1  21
TORSDOF 7
ENDMDL
MODEL 5
REMARK VINA RESULT:      -8.5      3.086     11.564
REMARK  Name = 
REMARK  8 active torsions:
REMARK  status: ('A' for Active; 'I' for Inactive)
REMARK    1  A    between atoms: C_1  and  C_2
REMARK    2  A    between atoms: C_2  and  C_3
REMARK    3  A    between atoms: C_7  and  C_8
REMARK    4  A    between atoms: N_10  and  C_11
REMARK    5  A    between atoms: C_11  and  C_12
REMARK    6  A    between atoms: C_16  and  C_17
REMARK    7  A    between atoms: C_21  and  C_22
REMARK    8  A    between atoms: C_22  and  N_23
REMARK                            x       y       z     vdW  Elec       q    Type
REMARK                         _______ _______ _______ _____ _____    ______ ____
ROOT
ATOM      1  C   UNL     1       0.922   9.320  21.043  0.00  0.00    +0.000 A 
ATOM      2  C   UNL     1       0.985  10.233  19.985  0.00  0.00    +0.000 A 
ATOM      3  C   UNL     1       1.488   9.838  18.743  0.00  0.00    +0.000 A 
ATOM      4  C   UNL     1       1.943   8.531  18.548  0.00  0.00    +0.000 A 
ATOM      5  C   UNL     1       1.921   7.592  19.591  0.00  0.00    +0.000 A 
ATOM      6  C   UNL     1       1.408   8.018  20.835  0.00  0.00    +0.000 A 
ENDROOT
BRANCH   5   7
ATOM      7  C   UNL     1       2.391   6.201  19.411  0.00  0.00    +0.000 A 
ATOM      8  C   UNL     1       2.326   5.243  20.437  0.00  0.00    +0.000 A 
ATOM      9  C   UNL     1       2.838   3.952  20.251  0.00  0.00    +0.000 A 
ATOM     10  C   UNL     1       3.450   3.598  19.045  0.00  0.00    +0.000 A 
ATOM     11  C   UNL     1       3.544   4.524  18.002  0.00  0.00    +0.000 A 
ATOM     12  C   UNL     1       2.967   5.794  18.193  0.00  0.00    +0.000 A 
BRANCH  11  13
ATOM     13  C   UNL     1       4.188   4.146  16.673  0.00  0.00    +0.000 C 
BRANCH  13  14
ATOM     14  N   UNL     1       5.614   3.800  16.785  0.00  0.00    +0.000 NA
ATOM     15  C   UNL     1       6.280   3.604  15.483  0.00  0.00    +0.000 C 
ATOM     16  C   UNL     1       6.678   4.898  14.739  0.00  0.00    +0.000 C 
ATOM     17  N   UNL     1       7.444   5.843  15.557  0.00  0.00    +0.000 NA
ATOM     18  C   UNL     1       6.830   6.053  16.872  0.00  0.00    +0.000 C 
ATOM     19  C   UNL     1       6.386   4.760  17.591  0.00  0.00    +0.000 C 
ATOM     20  H   UNL     1       7.516   6.734  15.067  0.00  0.00    +0.000 HD
ENDBRANCH  13  14
ENDBRANCH  11  13
ENDBRANCH   5   7
BRANCH   1  21
ATOM     21  C   UNL     1       0.318   9.703  22.369  0.00  0.00    +0.000 C 
BRANCH  21  24
ATOM     22  C   UNL     1      -1.088  11.697  22.409  0.00  0.00    +0.000 C 
ATOM     23  O   UNL     1      -0.143  12.416  22.714  0.00  0.00    +0.000 OA
ATOM     24  N   UNL     1      -0.978  10.330  22.238  0.00  0.00    +0.000 N 
ATOM     25  H   UNL     1      -1.698   9.833  21.729  0.00  0.00    +0.000 HD
BRANCH  22  30
ATOM     26  C   UNL     1      -4.643  12.937  22.949  0.00  0.00    +0.000 A 
ATOM     27  C   UNL     1      -4.938  13.428  21.670  0.00  0.00    +0.000 A 
ATOM     28  C   UNL     1      -3.987  13.360  20.653  0.00  0.00    +0.000 A 
ATOM     29  C   UNL     1      -2.737  12.795  20.902  0.00  0.00    +0.000 A 
ATOM     30  C   UNL     1      -2.431  12.292  22.172  0.00  0.00    +0.000 A 
ATOM     31  C   UNL     1      -3.380  12.380  23.197  0.00  0.00    +0.000 A 
BRANCH  26  33
ATOM     32  C   UNL     1      -6.552  14.186  23.938  0.00  0.00    +0.000 C 
ATOM     33  C   UNL     1      -5.696  12.931  24.028  0.00  0.00    +0.000 C 
ENDBRANCH  26  33
ENDBRANCH  22  30
ENDBRANCH  21  24
ENDBRANCH   1  21
TORSDOF 7
ENDMDL
MODEL 6
REMARK VINA RESULT:      -8.5      3.162     11.378
REMARK  Name = 
REMARK  8 active torsions:
REMARK  status: ('A' for Active; 'I' for Inactive)
REMARK    1  A    between atoms: C_1  and  C_2
REMARK    2  A    between atoms: C_2  and  C_3
REMARK    3  A    between atoms: C_7  and  C_8
REMARK    4  A    between atoms: N_10  and  C_11
REMARK    5  A    between atoms: C_11  and  C_12
REMARK    6  A    between atoms: C_16  and  C_17
REMARK    7  A    between atoms: C_21  and  C_22
REMARK    8  A    between atoms: C_22  and  N_23
REMARK                            x       y       z     vdW  Elec       q    Type
REMARK                         _______ _______ _______ _____ _____    ______ ____
ROOT
ATOM      1  C   UNL     1       0.967   9.891  20.773  0.00  0.00    +0.000 A 
ATOM      2  C   UNL     1       0.919  10.700  19.632  0.00  0.00    +0.000 A 
ATOM      3  C   UNL     1       1.285  10.185  18.388  0.00  0.00    +0.000 A 
ATOM      4  C   UNL     1       1.715   8.860  18.270  0.00  0.00    +0.000 A 
ATOM      5  C   UNL     1       1.803   8.024  19.393  0.00  0.00    +0.000 A 
ATOM      6  C   UNL     1       1.426   8.570  20.638  0.00  0.00    +0.000 A 
ENDROOT
BRANCH   5   7
ATOM      7  C   UNL     1       2.249   6.616  19.296  0.00  0.00    +0.000 A 
ATOM      8  C   UNL     1       2.117   5.707  20.360  0.00  0.00    +0.000 A 
ATOM      9  C   UNL     1       2.607   4.398  20.255  0.00  0.00    +0.000 A 
ATOM     10  C   UNL     1       3.264   3.978  19.095  0.00  0.00    +0.000 A 
ATOM     11  C   UNL     1       3.426   4.854  18.017  0.00  0.00    +0.000 A 
ATOM     12  C   UNL     1       2.870   6.143  18.125  0.00  0.00    +0.000 A 
BRANCH  11  13
ATOM     13  C   UNL     1       4.119   4.402  16.737  0.00  0.00    +0.000 C 
BRANCH  13  14
ATOM     14  N   UNL     1       5.525   4.014  16.932  0.00  0.00    +0.000 NA
ATOM     15  C   UNL     1       6.232   3.695  15.677  0.00  0.00    +0.000 C 
ATOM     16  C   UNL     1       6.709   4.913  14.856  0.00  0.00    +0.000 C 
ATOM     17  N   UNL     1       7.481   5.889  15.632  0.00  0.00    +0.000 NA
ATOM     18  C   UNL     1       6.826   6.221  16.901  0.00  0.00    +0.000 C 
ATOM     19  C   UNL     1       6.304   5.004  17.696  0.00  0.00    +0.000 C 
ATOM     20  H   UNL     1       7.606   6.737  15.080  0.00  0.00    +0.000 HD
ENDBRANCH  13  14
ENDBRANCH  11  13
ENDBRANCH   5   7
BRANCH   1  21
ATOM     21  C   UNL     1       0.510  10.404  22.114  0.00  0.00    +0.000 C 
BRANCH  21  24
ATOM     22  C   UNL     1      -1.255  11.984  22.705  0.00  0.00    +0.000 C 
ATOM     23  O   UNL     1      -0.461  12.735  23.261  0.00  0.00    +0.000 OA
ATOM     24  N   UNL     1      -0.885  10.785  22.124  0.00  0.00    +0.000 N 
ATOM     25  H   UNL     1      -1.504  10.346  21.455  0.00  0.00    +0.000 HD
BRANCH  22  30
ATOM     26  C   UNL     1      -4.677  12.853  21.290  0.00  0.00    +0.000 A 
ATOM     27  C   UNL     1      -5.396  13.058  22.475  0.00  0.00    +0.000 A 
ATOM     28  C   UNL     1      -4.773  12.906  23.713  0.00  0.00    +0.000 A 
ATOM     29  C   UNL     1      -3.425  12.557  23.778  0.00  0.00    +0.000 A 
ATOM     30  C   UNL     1      -2.691  12.358  22.604  0.00  0.00    +0.000 A 
ATOM     31  C   UNL     1      -3.323  12.490  21.362  0.00  0.00    +0.000 A 
BRANCH  26  33
ATOM     32  C   UNL     1      -6.013  11.835  19.458  0.00  0.00    +0.000 C 
ATOM     33  C   UNL     1      -5.322  13.098  19.950  0.00  0.00    +0.000 C 
ENDBRANCH  26  33
ENDBRANCH  22  30
ENDBRANCH  21  24
ENDBRANCH   1  21
TORSDOF 7
ENDMDL
MODEL 7
REMARK VINA RESULT:      -8.4      1.443      1.899
REMARK  Name = 
REMARK  8 active torsions:
REMARK  status: ('A' for Active; 'I' for Inactive)
REMARK    1  A    between atoms: C_1  and  C_2
REMARK    2  A    between atoms: C_2  and  C_3
REMARK    3  A    between atoms: C_7  and  C_8
REMARK    4  A    between atoms: N_10  and  C_11
REMARK    5  A    between atoms: C_11  and  C_12
REMARK    6  A    between atoms: C_16  and  C_17
REMARK    7  A    between atoms: C_21  and  C_22
REMARK    8  A    between atoms: C_22  and  N_23
REMARK                            x       y       z     vdW  Elec       q    Type
REMARK                         _______ _______ _______ _____ _____    ______ ____
ROOT
ATOM      1  C   UNL     1       3.434   3.662  20.091  0.00  0.00    +0.000 A 
ATOM      2  C   UNL     1       2.412   3.141  20.891  0.00  0.00    +0.000 A 
ATOM      3  C   UNL     1       1.270   3.900  21.157  0.00  0.00    +0.000 A 
ATOM      4  C   UNL     1       1.143   5.191  20.637  0.00  0.00    +0.000 A 
ATOM      5  C   UNL     1       2.157   5.761  19.853  0.00  0.00    +0.000 A 
ATOM      6  C   UNL     1       3.299   4.971  19.599  0.00  0.00    +0.000 A 
ENDROOT
BRANCH   5   7
ATOM      7  C   UNL     1       2.046   7.122  19.285  0.00  0.00    +0.000 A 
ATOM      8  C   UNL     1       2.563   7.459  18.022  0.00  0.00    +0.000 A 
ATOM      9  C   UNL     1       2.495   8.774  17.542  0.00  0.00    +0.000 A 
ATOM     10  C   UNL     1       1.934   9.786  18.326  0.00  0.00    +0.000 A 
ATOM     11  C   UNL     1       1.417   9.497  19.592  0.00  0.00    +0.000 A 
ATOM     12  C   UNL     1       1.442   8.157  20.024  0.00  0.00    +0.000 A 
BRANCH  11  13
ATOM     13  C   UNL     1       0.781  10.586  20.448  0.00  0.00    +0.000 C 
BRANCH  13  14
ATOM     14  N   UNL     1      -0.689  10.610  20.376  0.00  0.00    +0.000 NA
ATOM     15  C   UNL     1      -1.303  11.694  21.168  0.00  0.00    +0.000 C 
ATOM     16  C   UNL     1      -1.273  13.093  20.515  0.00  0.00    +0.000 C 
ATOM     17  N   UNL     1      -1.789  13.120  19.143  0.00  0.00    +0.000 NA
ATOM     18  C   UNL     1      -1.222  12.046  18.322  0.00  0.00    +0.000 C 
ATOM     19  C   UNL     1      -1.206  10.657  18.998  0.00  0.00    +0.000 C 
ATOM     20  H   UNL     1      -1.576  14.023  18.719  0.00  0.00    +0.000 HD
ENDBRANCH  13  14
ENDBRANCH  11  13
ENDBRANCH   5   7
BRANCH   1  21
ATOM     21  C   UNL     1       4.643   2.837  19.731  0.00  0.00    +0.000 C 
BRANCH  21  24
ATOM     22  C   UNL     1       4.866   3.278  17.341  0.00  0.00    +0.000 C 
ATOM     23  O   UNL     1       3.814   2.701  17.088  0.00  0.00    +0.000 OA
ATOM     24  N   UNL     1       5.386   3.383  18.617  0.00  0.00    +0.000 N 
ATOM     25  H   UNL     1       6.088   4.085  18.812  0.00  0.00    +0.000 HD
BRANCH  22  30
ATOM     26  C   UNL     1       6.305   4.113  13.921  0.00  0.00    +0.000 A 
ATOM     27  C   UNL     1       7.099   5.222  14.244  0.00  0.00    +0.000 A 
ATOM     28  C   UNL     1       7.154   5.691  15.555  0.00  0.00    +0.000 A 
ATOM     29  C   UNL     1       6.425   5.052  16.557  0.00  0.00    +0.000 A 
ATOM     30  C   UNL     1       5.635   3.938  16.252  0.00  0.00    +0.000 A 
ATOM     31  C   UNL     1       5.564   3.482  14.931  0.00  0.00    +0.000 A 
BRANCH  26  33
ATOM     32  C   UNL     1       4.882   3.355  12.029  0.00  0.00    +0.000 C 
ATOM     33  C   UNL     1       6.308   3.552  12.522  0.00  0.00    +0.000 C 
ENDBRANCH  26  33
ENDBRANCH  22  30
ENDBRANCH  21  24
ENDBRANCH   1  21
TORSDOF 7
ENDMDL
MODEL 8
REMARK VINA RESULT:      -8.4      3.711      9.837
REMARK  Name = 
REMARK  8 active torsions:
REMARK  status: ('A' for Active; 'I' for Inactive)
REMARK    1  A    between atoms: C_1  and  C_2
REMARK    2  A    between atoms: C_2  and  C_3
REMARK    3  A    between atoms: C_7  and  C_8
REMARK    4  A    between atoms: N_10  and  C_11
REMARK    5  A    between atoms: C_11  and  C_12
REMARK    6  A    between atoms: C_16  and  C_17
REMARK    7  A    between atoms: C_21  and  C_22
REMARK    8  A    between atoms: C_22  and  N_23
REMARK                            x       y       z     vdW  Elec       q    Type
REMARK                         _______ _______ _______ _____ _____    ______ ____
ROOT
ATOM      1  C   UNL     1       0.844  10.353  20.276  0.00  0.00    +0.000 A 
ATOM      2  C   UNL     1       0.659  10.535  21.651  0.00  0.00    +0.000 A 
ATOM      3  C   UNL     1       0.874   9.477  22.537  0.00  0.00    +0.000 A 
ATOM      4  C   UNL     1       1.265   8.223  22.059  0.00  0.00    +0.000 A 
ATOM      5  C   UNL     1       1.436   7.992  20.685  0.00  0.00    +0.000 A 
ATOM      6  C   UNL     1       1.212   9.079  19.813  0.00  0.00    +0.000 A 
ENDROOT
BRANCH   5   7
ATOM      7  C   UNL     1       1.855   6.677  20.152  0.00  0.00    +0.000 A 
ATOM      8  C   UNL     1       1.495   5.463  20.763  0.00  0.00    +0.000 A 
ATOM      9  C   UNL     1       1.963   4.240  20.267  0.00  0.00    +0.000 A 
ATOM     10  C   UNL     1       2.823   4.203  19.166  0.00  0.00    +0.000 A 
ATOM     11  C   UNL     1       3.215   5.388  18.534  0.00  0.00    +0.000 A 
ATOM     12  C   UNL     1       2.681   6.599  19.016  0.00  0.00    +0.000 A 
BRANCH  11  13
ATOM     13  C   UNL     1       4.134   5.362  17.319  0.00  0.00    +0.000 C 
BRANCH  13  14
ATOM     14  N   UNL     1       5.035   4.199  17.284  0.00  0.00    +0.000 NA
ATOM     15  C   UNL     1       5.375   3.752  15.919  0.00  0.00    +0.000 C 
ATOM     16  C   UNL     1       6.459   4.583  15.200  0.00  0.00    +0.000 C 
ATOM     17  N   UNL     1       7.683   4.770  15.985  0.00  0.00    +0.000 NA
ATOM     18  C   UNL     1       7.394   5.194  17.358  0.00  0.00    +0.000 C 
ATOM     19  C   UNL     1       6.273   4.395  18.058  0.00  0.00    +0.000 C 
ATOM     20  H   UNL     1       8.274   5.466  15.530  0.00  0.00    +0.000 HD
ENDBRANCH  13  14
ENDBRANCH  11  13
ENDBRANCH   5   7
BRANCH   1  21
ATOM     21  C   UNL     1       0.687  11.497  19.309  0.00  0.00    +0.000 C 
BRANCH  21  24
ATOM     22  C   UNL     1      -1.668  11.492  18.667  0.00  0.00    +0.000 C 
ATOM     23  O   UNL     1      -2.023  11.842  19.788  0.00  0.00    +0.000 OA
ATOM     24  N   UNL     1      -0.348  11.265  18.326  0.00  0.00    +0.000 N 
ATOM     25  H   UNL     1      -0.083  11.250  17.350  0.00  0.00    +0.000 HD
BRANCH  22  30
ATOM     26  C   UNL     1      -3.305  10.569  15.360  0.00  0.00    +0.000 A 
ATOM     27  C   UNL     1      -4.613  11.016  15.591  0.00  0.00    +0.000 A 
ATOM     28  C   UNL     1      -4.952  11.602  16.810  0.00  0.00    +0.000 A 
ATOM     29  C   UNL     1      -3.988  11.753  17.805  0.00  0.00    +0.000 A 
ATOM     30  C   UNL     1      -2.675  11.320  17.586  0.00  0.00    +0.000 A 
ATOM     31  C   UNL     1      -2.341  10.713  16.370  0.00  0.00    +0.000 A 
BRANCH  26  33
ATOM     32  C   UNL     1      -4.143   9.830  13.139  0.00  0.00    +0.000 C 
ATOM     33  C   UNL     1      -2.912  10.013  14.016  0.00  0.00    +0.000 C 
ENDBRANCH  26  33
ENDBRANCH  22  30
ENDBRANCH  21  24
ENDBRANCH   1  21
TORSDOF 7
ENDMDL
MODEL 9
REMARK VINA RESULT:      -8.4      3.215     11.585
REMARK  Name = 
REMARK  8 active torsions:
REMARK  status: ('A' for Active; 'I' for Inactive)
REMARK    1  A    between atoms: C_1  and  C_2
REMARK    2  A    between atoms: C_2  and  C_3
REMARK    3  A    between atoms: C_7  and  C_8
REMARK    4  A    between atoms: N_10  and  C_11
REMARK    5  A    between atoms: C_11  and  C_12
REMARK    6  A    between atoms: C_16  and  C_17
REMARK    7  A    between atoms: C_21  and  C_22
REMARK    8  A    between atoms: C_22  and  N_23
REMARK                            x       y       z     vdW  Elec       q    Type
REMARK                         _______ _______ _______ _____ _____    ______ ____
ROOT
ATOM      1  C   UNL     1       0.770   9.304  21.330  0.00  0.00    +0.000 A 
ATOM      2  C   UNL     1       0.868  10.155  20.223  0.00  0.00    +0.000 A 
ATOM      3  C   UNL     1       1.409   9.689  19.024  0.00  0.00    +0.000 A 
ATOM      4  C   UNL     1       1.868   8.373  18.919  0.00  0.00    +0.000 A 
ATOM      5  C   UNL     1       1.813   7.496  20.013  0.00  0.00    +0.000 A 
ATOM      6  C   UNL     1       1.262   7.993  21.213  0.00  0.00    +0.000 A 
ENDROOT
BRANCH   5   7
ATOM      7  C   UNL     1       2.287   6.097  19.928  0.00  0.00    +0.000 A 
ATOM      8  C   UNL     1       1.874   5.104  20.833  0.00  0.00    +0.000 A 
ATOM      9  C   UNL     1       2.392   3.804  20.762  0.00  0.00    +0.000 A 
ATOM     10  C   UNL     1       3.353   3.475  19.801  0.00  0.00    +0.000 A 
ATOM     11  C   UNL     1       3.798   4.436  18.888  0.00  0.00    +0.000 A 
ATOM     12  C   UNL     1       3.217   5.717  18.944  0.00  0.00    +0.000 A 
BRANCH  11  13
ATOM     13  C   UNL     1       4.829   4.085  17.821  0.00  0.00    +0.000 C 
BRANCH  13  14
ATOM     14  N   UNL     1       4.831   5.011  16.676  0.00  0.00    +0.000 NA
ATOM     15  C   UNL     1       5.596   6.249  16.917  0.00  0.00    +0.000 C 
ATOM     16  C   UNL     1       7.129   6.120  16.785  0.00  0.00    +0.000 C 
ATOM     17  N   UNL     1       7.567   5.497  15.532  0.00  0.00    +0.000 NA
ATOM     18  C   UNL     1       6.819   4.270  15.239  0.00  0.00    +0.000 C 
ATOM     19  C   UNL     1       5.290   4.388  15.423  0.00  0.00    +0.000 C 
ATOM     20  H   UNL     1       8.563   5.284  15.591  0.00  0.00    +0.000 HD
ENDBRANCH  13  14
ENDBRANCH  11  13
ENDBRANCH   5   7
BRANCH   1  21
ATOM     21  C   UNL     1       0.126   9.762  22.613  0.00  0.00    +0.000 C 
BRANCH  21  24
ATOM     22  C   UNL     1      -1.332  11.721  22.632  0.00  0.00    +0.000 C 
ATOM     23  O   UNL     1      -0.433  12.444  23.048  0.00  0.00    +0.000 OA
ATOM     24  N   UNL     1      -1.172  10.366  22.406  0.00  0.00    +0.000 N 
ATOM     25  H   UNL     1      -1.835   9.879  21.817  0.00  0.00    +0.000 HD
BRANCH  22  30
ATOM     26  C   UNL     1      -4.893  13.009  22.985  0.00  0.00    +0.000 A 
ATOM     27  C   UNL     1      -5.157  13.390  21.663  0.00  0.00    +0.000 A 
ATOM     28  C   UNL     1      -4.184  13.234  20.677  0.00  0.00    +0.000 A 
ATOM     29  C   UNL     1      -2.942  12.690  21.001  0.00  0.00    +0.000 A 
ATOM     30  C   UNL     1      -2.667  12.296  22.316  0.00  0.00    +0.000 A 
ATOM     31  C   UNL     1      -3.637  12.473  23.308  0.00  0.00    +0.000 A 
BRANCH  26  33
ATOM     32  C   UNL     1      -6.741  14.401  23.895  0.00  0.00    +0.000 C 
ATOM     33  C   UNL     1      -5.969  13.097  24.037  0.00  0.00    +0.000 C 
ENDBRANCH  26  33
ENDBRANCH  22  30
ENDBRANCH  21  24
ENDBRANCH   1  21
TORSDOF 7
ENDMDL
