MODEL 1
REMARK VINA RESULT:      -9.4      0.000      0.000
REMARK  Name = 
REMARK  4 active torsions:
REMARK  status: ('A' for Active; 'I' for Inactive)
REMARK    1  A    between atoms: C_4  and  C_5
REMARK    2  A    between atoms: C_10  and  N_11
REMARK    3  A    between atoms: N_11  and  S_12
REMARK    4  A    between atoms: S_12  and  C_15
REMARK                            x       y       z     vdW  Elec       q    Type
REMARK                         _______ _______ _______ _____ _____    ______ ____
ROOT
ATOM      1  C   UNL     1       3.575   3.702  19.525  0.00  0.00    +0.000 A 
ATOM      2  C   UNL     1       3.132   2.391  19.795  0.00  0.00    +0.000 A 
ATOM      3  C   UNL     1       2.054   2.155  20.645  0.00  0.00    +0.000 A 
ATOM      4  C   UNL     1       1.421   3.226  21.262  0.00  0.00    +0.000 A 
ATOM      5  C   UNL     1       1.858   4.531  21.016  0.00  0.00    +0.000 A 
ATOM      6  C   UNL     1       2.917   4.785  20.130  0.00  0.00    +0.000 A 
ENDROOT
BRANCH   1  10
ATOM      7  O   UNL     1       7.878   4.986  18.589  0.00  0.00    +0.000 OA
ATOM      8  C   UNL     1       6.801   4.585  18.163  0.00  0.00    +0.000 A 
ATOM      9  O   UNL     1       5.783   4.264  18.999  0.00  0.00    +0.000 OA
ATOM     10  C   UNL     1       4.629   3.790  18.486  0.00  0.00    +0.000 A 
ATOM     11  N   UNL     1       4.377   3.566  17.237  0.00  0.00    +0.000 NA
ATOM     12  C   UNL     1       5.354   3.921  16.313  0.00  0.00    +0.000 A 
ATOM     13  C   UNL     1       5.081   3.815  14.949  0.00  0.00    +0.000 A 
ATOM     14  C   UNL     1       5.997   4.287  14.004  0.00  0.00    +0.000 A 
ATOM     15  C   UNL     1       7.195   4.863  14.424  0.00  0.00    +0.000 A 
ATOM     16  C   UNL     1       7.483   4.953  15.785  0.00  0.00    +0.000 A 
ATOM     17  C   UNL     1       6.558   4.477  16.722  0.00  0.00    +0.000 A 
ENDBRANCH   1  10
BRANCH   6  18
ATOM     18  N   UNL     1       3.246   6.160  19.897  0.00  0.00    +0.000 N 
ATOM     19  H   UNL     1       4.219   6.415  20.077  0.00  0.00    +0.000 HD
BRANCH  18  20
ATOM     20  S   UNL     1       2.767   6.878  18.440  0.00  0.00    +0.000 S 
ATOM     21  O   UNL     1       3.980   7.381  17.827  0.00  0.00    +0.000 OA
ATOM     22  O   UNL     1       1.875   5.993  17.727  0.00  0.00    +0.000 OA
BRANCH  20  23
ATOM     23  C   UNL     1       1.847   8.288  19.003  0.00  0.00    +0.000 A 
ATOM     24  C   UNL     1       1.466   8.373  20.347  0.00  0.00    +0.000 A 
ATOM     25  C   UNL     1       0.684   9.450  20.772  0.00  0.00    +0.000 A 
ATOM     26  C   UNL     1       0.307  10.436  19.858  0.00  0.00    +0.000 A 
ATOM     27 CL   UNL     1      -0.713  11.725  20.363  0.00  0.00    +0.000 Cl
ATOM     28  C   UNL     1       0.732  10.373  18.530  0.00  0.00    +0.000 A 
ATOM     29  C   UNL     1       1.512   9.298  18.099  0.00  0.00    +0.000 A 
ENDBRANCH  20  23
ENDBRANCH  18  20
ENDBRANCH   6  18
TORSDOF 4
ENDMDL
MODEL 2
REMARK VINA RESULT:      -8.9      2.413      5.710
REMARK  Name = 
REMARK  4 active torsions:
REMARK  status: ('A' for Active; 'I' for Inactive)
REMARK    1  A    between atoms: C_4  and  C_5
REMARK    2  A    between atoms: C_10  and  N_11
REMARK    3  A    between atoms: N_11  and  S_12
REMARK    4  A    between atoms: S_12  and  C_15
REMARK                            x       y       z     vdW  Elec       q    Type
REMARK                         _______ _______ _______ _____ _____    ______ ____
ROOT
ATOM      1  C   UNL     1       5.164   3.965  16.250  0.00  0.00    +0.000 A 
ATOM      2  C   UNL     1       4.781   3.929  14.893  0.00  0.00    +0.000 A 
ATOM      3  C   UNL     1       5.703   4.168  13.878  0.00  0.00    +0.000 A 
ATOM      4  C   UNL     1       7.017   4.477  14.204  0.00  0.00    +0.000 A 
ATOM      5  C   UNL     1       7.408   4.532  15.544  0.00  0.00    +0.000 A 
ATOM      6  C   UNL     1       6.499   4.254  16.577  0.00  0.00    +0.000 A 
ENDROOT
BRANCH   1  10
ATOM      7  O   UNL     1       0.693   4.135  17.263  0.00  0.00    +0.000 OA
ATOM      8  C   UNL     1       1.822   3.810  17.611  0.00  0.00    +0.000 A 
ATOM      9  O   UNL     1       2.887   3.947  16.783  0.00  0.00    +0.000 OA
ATOM     10  C   UNL     1       4.105   3.540  17.196  0.00  0.00    +0.000 A 
ATOM     11  N   UNL     1       4.385   2.980  18.328  0.00  0.00    +0.000 NA
ATOM     12  C   UNL     1       3.354   2.853  19.253  0.00  0.00    +0.000 A 
ATOM     13  C   UNL     1       3.632   2.371  20.533  0.00  0.00    +0.000 A 
ATOM     14  C   UNL     1       2.640   2.356  21.516  0.00  0.00    +0.000 A 
ATOM     15  C   UNL     1       1.360   2.823  21.220  0.00  0.00    +0.000 A 
ATOM     16  C   UNL     1       1.069   3.287  19.938  0.00  0.00    +0.000 A 
ATOM     17  C   UNL     1       2.072   3.296  18.961  0.00  0.00    +0.000 A 
ENDBRANCH   1  10
BRANCH   6  18
ATOM     18  N   UNL     1       7.015   4.273  17.914  0.00  0.00    +0.000 N 
ATOM     19  H   UNL     1       7.911   3.801  18.045  0.00  0.00    +0.000 HD
BRANCH  18  20
ATOM     20  S   UNL     1       7.059   5.745  18.750  0.00  0.00    +0.000 S 
ATOM     21  O   UNL     1       7.133   5.401  20.156  0.00  0.00    +0.000 OA
ATOM     22  O   UNL     1       8.027   6.627  18.140  0.00  0.00    +0.000 OA
BRANCH  20  23
ATOM     23  C   UNL     1       5.432   6.390  18.459  0.00  0.00    +0.000 A 
ATOM     24  C   UNL     1       5.180   7.137  17.302  0.00  0.00    +0.000 A 
ATOM     25  C   UNL     1       3.916   7.700  17.110  0.00  0.00    +0.000 A 
ATOM     26  C   UNL     1       2.915   7.499  18.063  0.00  0.00    +0.000 A 
ATOM     27 CL   UNL     1       1.381   8.249  17.863  0.00  0.00    +0.000 Cl
ATOM     28  C   UNL     1       3.156   6.711  19.189  0.00  0.00    +0.000 A 
ATOM     29  C   UNL     1       4.417   6.146  19.388  0.00  0.00    +0.000 A 
ENDBRANCH  20  23
ENDBRANCH  18  20
ENDBRANCH   6  18
TORSDOF 4
ENDMDL
MODEL 3
REMARK VINA RESULT:      -8.6      0.669      1.186
REMARK  Name = 
REMARK  4 active torsions:
REMARK  status: ('A' for Active; 'I' for Inactive)
REMARK    1  A    between atoms: C_4  and  C_5
REMARK    2  A    between atoms: C_10  and  N_11
REMARK    3  A    between atoms: N_11  and  S_12
REMARK    4  A    between atoms: S_12  and  C_15
REMARK                            x       y       z     vdW  Elec       q    Type
REMARK                         _______ _______ _______ _____ _____    ______ ____
ROOT
ATOM      1  C   UNL     1       3.440   3.685  19.400  0.00  0.00    +0.000 A 
ATOM      2  C   UNL     1       3.577   2.626  20.321  0.00  0.00    +0.000 A 
ATOM      3  C   UNL     1       2.580   2.347  21.252  0.00  0.00    +0.000 A 
ATOM      4  C   UNL     1       1.442   3.141  21.296  0.00  0.00    +0.000 A 
ATOM      5  C   UNL     1       1.297   4.204  20.400  0.00  0.00    +0.000 A 
ATOM      6  C   UNL     1       2.277   4.472  19.430  0.00  0.00    +0.000 A 
ENDROOT
BRANCH   1  10
ATOM      7  O   UNL     1       7.816   4.786  18.576  0.00  0.00    +0.000 OA
ATOM      8  C   UNL     1       6.728   4.452  18.120  0.00  0.00    +0.000 A 
ATOM      9  O   UNL     1       5.682   4.155  18.928  0.00  0.00    +0.000 OA
ATOM     10  C   UNL     1       4.515   3.754  18.382  0.00  0.00    +0.000 A 
ATOM     11  N   UNL     1       4.275   3.582  17.122  0.00  0.00    +0.000 NA
ATOM     12  C   UNL     1       5.284   3.917  16.226  0.00  0.00    +0.000 A 
ATOM     13  C   UNL     1       5.031   3.868  14.854  0.00  0.00    +0.000 A 
ATOM     14  C   UNL     1       5.985   4.324  13.940  0.00  0.00    +0.000 A 
ATOM     15  C   UNL     1       7.202   4.828  14.398  0.00  0.00    +0.000 A 
ATOM     16  C   UNL     1       7.470   4.860  15.766  0.00  0.00    +0.000 A 
ATOM     17  C   UNL     1       6.506   4.401  16.672  0.00  0.00    +0.000 A 
ENDBRANCH   1  10
BRANCH   6  18
ATOM     18  N   UNL     1       2.004   5.542  18.517  0.00  0.00    +0.000 N 
ATOM     19  H   UNL     1       1.030   5.846  18.476  0.00  0.00    +0.000 HD
BRANCH  18  20
ATOM     20  S   UNL     1       2.992   6.917  18.553  0.00  0.00    +0.000 S 
ATOM     21  O   UNL     1       3.875   6.743  19.689  0.00  0.00    +0.000 OA
ATOM     22  O   UNL     1       3.511   7.184  17.232  0.00  0.00    +0.000 OA
BRANCH  20  23
ATOM     23  C   UNL     1       1.838   8.195  18.985  0.00  0.00    +0.000 A 
ATOM     24  C   UNL     1       1.395   9.087  18.002  0.00  0.00    +0.000 A 
ATOM     25  C   UNL     1       0.540  10.134  18.360  0.00  0.00    +0.000 A 
ATOM     26  C   UNL     1       0.126  10.267  19.687  0.00  0.00    +0.000 A 
ATOM     27 CL   UNL     1      -0.869  11.593  20.142  0.00  0.00    +0.000 Cl
ATOM     28  C   UNL     1       0.529   9.344  20.653  0.00  0.00    +0.000 A 
ATOM     29  C   UNL     1       1.385   8.298  20.302  0.00  0.00    +0.000 A 
ENDBRANCH  20  23
ENDBRANCH  18  20
ENDBRANCH   6  18
TORSDOF 4
ENDMDL
MODEL 4
REMARK VINA RESULT:      -8.5      3.057      6.825
REMARK  Name = 
REMARK  4 active torsions:
REMARK  status: ('A' for Active; 'I' for Inactive)
REMARK    1  A    between atoms: C_4  and  C_5
REMARK    2  A    between atoms: C_10  and  N_11
REMARK    3  A    between atoms: N_11  and  S_12
REMARK    4  A    between atoms: S_12  and  C_15
REMARK                            x       y       z     vdW  Elec       q    Type
REMARK                         _______ _______ _______ _____ _____    ______ ____
ROOT
ATOM      1  C   UNL     1       1.968   4.925  19.702  0.00  0.00    +0.000 A 
ATOM      2  C   UNL     1       1.281   4.262  20.740  0.00  0.00    +0.000 A 
ATOM      3  C   UNL     1       1.328   2.877  20.867  0.00  0.00    +0.000 A 
ATOM      4  C   UNL     1       2.040   2.128  19.939  0.00  0.00    +0.000 A 
ATOM      5  C   UNL     1       2.714   2.767  18.896  0.00  0.00    +0.000 A 
ATOM      6  C   UNL     1       2.708   4.167  18.779  0.00  0.00    +0.000 A 
ENDROOT
BRANCH   1  10
ATOM      7  O   UNL     1       0.748   8.539  22.248  0.00  0.00    +0.000 OA
ATOM      8  C   UNL     1       1.170   8.123  21.175  0.00  0.00    +0.000 A 
ATOM      9  O   UNL     1       1.442   6.809  20.982  0.00  0.00    +0.000 OA
ATOM     10  C   UNL     1       1.942   6.404  19.796  0.00  0.00    +0.000 A 
ATOM     11  N   UNL     1       2.236   7.157  18.787  0.00  0.00    +0.000 NA
ATOM     12  C   UNL     1       1.937   8.512  18.891  0.00  0.00    +0.000 A 
ATOM     13  C   UNL     1       2.119   9.344  17.785  0.00  0.00    +0.000 A 
ATOM     14  C   UNL     1       1.705  10.678  17.825  0.00  0.00    +0.000 A 
ATOM     15  C   UNL     1       1.107  11.186  18.978  0.00  0.00    +0.000 A 
ATOM     16  C   UNL     1       0.941  10.366  20.094  0.00  0.00    +0.000 A 
ATOM     17  C   UNL     1       1.361   9.032  20.041  0.00  0.00    +0.000 A 
ENDBRANCH   1  10
BRANCH   6  18
ATOM     18  N   UNL     1       3.483   4.729  17.713  0.00  0.00    +0.000 N 
ATOM     19  H   UNL     1       3.105   5.583  17.300  0.00  0.00    +0.000 HD
BRANCH  18  20
ATOM     20  S   UNL     1       5.149   4.933  17.936  0.00  0.00    +0.000 S 
ATOM     21  O   UNL     1       5.338   6.334  18.257  0.00  0.00    +0.000 OA
ATOM     22  O   UNL     1       5.662   3.890  18.793  0.00  0.00    +0.000 OA
BRANCH  20  23
ATOM     23  C   UNL     1       5.778   4.689  16.294  0.00  0.00    +0.000 A 
ATOM     24  C   UNL     1       7.054   5.162  15.965  0.00  0.00    +0.000 A 
ATOM     25  C   UNL     1       7.518   5.029  14.653  0.00  0.00    +0.000 A 
ATOM     26  C   UNL     1       6.713   4.413  13.693  0.00  0.00    +0.000 A 
ATOM     27 CL   UNL     1       7.254   4.311  12.063  0.00  0.00    +0.000 Cl
ATOM     28  C   UNL     1       5.463   3.898  14.038  0.00  0.00    +0.000 A 
ATOM     29  C   UNL     1       4.993   4.029  15.346  0.00  0.00    +0.000 A 
ENDBRANCH  20  23
ENDBRANCH  18  20
ENDBRANCH   6  18
TORSDOF 4
ENDMDL
MODEL 5
REMARK VINA RESULT:      -8.2      2.875      6.199
REMARK  Name = 
REMARK  4 active torsions:
REMARK  status: ('A' for Active; 'I' for Inactive)
REMARK    1  A    between atoms: C_4  and  C_5
REMARK    2  A    between atoms: C_10  and  N_11
REMARK    3  A    between atoms: N_11  and  S_12
REMARK    4  A    between atoms: S_12  and  C_15
REMARK                            x       y       z     vdW  Elec       q    Type
REMARK                         _______ _______ _______ _____ _____    ______ ____
ROOT
ATOM      1  C   UNL     1       1.939   4.952  19.554  0.00  0.00    +0.000 A 
ATOM      2  C   UNL     1       1.105   4.274  20.467  0.00  0.00    +0.000 A 
ATOM      3  C   UNL     1       1.102   2.884  20.546  0.00  0.00    +0.000 A 
ATOM      4  C   UNL     1       1.912   2.148  19.692  0.00  0.00    +0.000 A 
ATOM      5  C   UNL     1       2.734   2.803  18.772  0.00  0.00    +0.000 A 
ATOM      6  C   UNL     1       2.777   4.205  18.709  0.00  0.00    +0.000 A 
ENDROOT
BRANCH   1  10
ATOM      7  O   UNL     1       0.739   8.495  22.209  0.00  0.00    +0.000 OA
ATOM      8  C   UNL     1       1.172   8.109  21.128  0.00  0.00    +0.000 A 
ATOM      9  O   UNL     1       1.424   6.799  20.892  0.00  0.00    +0.000 OA
ATOM     10  C   UNL     1       1.936   6.427  19.701  0.00  0.00    +0.000 A 
ATOM     11  N   UNL     1       2.258   7.210  18.724  0.00  0.00    +0.000 NA
ATOM     12  C   UNL     1       1.981   8.566  18.871  0.00  0.00    +0.000 A 
ATOM     13  C   UNL     1       2.194   9.433  17.799  0.00  0.00    +0.000 A 
ATOM     14  C   UNL     1       1.801  10.771  17.880  0.00  0.00    +0.000 A 
ATOM     15  C   UNL     1       1.194  11.249  19.041  0.00  0.00    +0.000 A 
ATOM     16  C   UNL     1       0.996  10.393  20.124  0.00  0.00    +0.000 A 
ATOM     17  C   UNL     1       1.395   9.054  20.030  0.00  0.00    +0.000 A 
ENDBRANCH   1  10
BRANCH   6  18
ATOM     18  N   UNL     1       3.699   4.781  17.776  0.00  0.00    +0.000 N 
ATOM     19  H   UNL     1       3.710   5.802  17.744  0.00  0.00    +0.000 HD
BRANCH  18  20
ATOM     20  S   UNL     1       5.300   4.228  17.764  0.00  0.00    +0.000 S 
ATOM     21  O   UNL     1       5.488   3.531  19.020  0.00  0.00    +0.000 OA
ATOM     22  O   UNL     1       5.590   3.593  16.500  0.00  0.00    +0.000 OA
BRANCH  20  23
ATOM     23  C   UNL     1       6.219   5.743  17.870  0.00  0.00    +0.000 A 
ATOM     24  C   UNL     1       5.767   6.875  17.182  0.00  0.00    +0.000 A 
ATOM     25  C   UNL     1       6.530   8.046  17.212  0.00  0.00    +0.000 A 
ATOM     26  C   UNL     1       7.721   8.079  17.939  0.00  0.00    +0.000 A 
ATOM     27 CL   UNL     1       8.696   9.496  17.919  0.00  0.00    +0.000 Cl
ATOM     28  C   UNL     1       8.141   6.963  18.665  0.00  0.00    +0.000 A 
ATOM     29  C   UNL     1       7.385   5.790  18.637  0.00  0.00    +0.000 A 
ENDBRANCH  20  23
ENDBRANCH  18  20
ENDBRANCH   6  18
TORSDOF 4
ENDMDL
MODEL 6
REMARK VINA RESULT:      -8.1      1.225      1.324
REMARK  Name = 
REMARK  4 active torsions:
REMARK  status: ('A' for Active; 'I' for Inactive)
REMARK    1  A    between atoms: C_4  and  C_5
REMARK    2  A    between atoms: C_10  and  N_11
REMARK    3  A    between atoms: N_11  and  S_12
REMARK    4  A    between atoms: S_12  and  C_15
REMARK                            x       y       z     vdW  Elec       q    Type
REMARK                         _______ _______ _______ _____ _____    ______ ____
ROOT
ATOM      1  C   UNL     1       3.312   3.363  18.106  0.00  0.00    +0.000 A 
ATOM      2  C   UNL     1       3.202   2.053  18.618  0.00  0.00    +0.000 A 
ATOM      3  C   UNL     1       2.065   1.643  19.309  0.00  0.00    +0.000 A 
ATOM      4  C   UNL     1       1.032   2.545  19.527  0.00  0.00    +0.000 A 
ATOM      5  C   UNL     1       1.132   3.850  19.039  0.00  0.00    +0.000 A 
ATOM      6  C   UNL     1       2.254   4.266  18.306  0.00  0.00    +0.000 A 
ENDROOT
BRANCH   1  10
ATOM      7  O   UNL     1       7.577   5.046  17.972  0.00  0.00    +0.000 OA
ATOM      8  C   UNL     1       6.626   4.582  17.353  0.00  0.00    +0.000 A 
ATOM      9  O   UNL     1       5.516   4.133  17.989  0.00  0.00    +0.000 OA
ATOM     10  C   UNL     1       4.512   3.594  17.267  0.00  0.00    +0.000 A 
ATOM     11  N   UNL     1       4.492   3.419  15.986  0.00  0.00    +0.000 NA
ATOM     12  C   UNL     1       5.574   3.902  15.257  0.00  0.00    +0.000 A 
ATOM     13  C   UNL     1       5.544   3.850  13.863  0.00  0.00    +0.000 A 
ATOM     14  C   UNL     1       6.558   4.445  13.109  0.00  0.00    +0.000 A 
ATOM     15  C   UNL     1       7.612   5.095  13.750  0.00  0.00    +0.000 A 
ATOM     16  C   UNL     1       7.660   5.133  15.143  0.00  0.00    +0.000 A 
ATOM     17  C   UNL     1       6.638   4.532  15.888  0.00  0.00    +0.000 A 
ENDBRANCH   1  10
BRANCH   6  18
ATOM     18  N   UNL     1       2.231   5.604  17.794  0.00  0.00    +0.000 N 
ATOM     19  H   UNL     1       1.302   6.014  17.681  0.00  0.00    +0.000 HD
BRANCH  18  20
ATOM     20  S   UNL     1       3.246   6.764  18.496  0.00  0.00    +0.000 S 
ATOM     21  O   UNL     1       3.720   6.180  19.735  0.00  0.00    +0.000 OA
ATOM     22  O   UNL     1       4.165   7.277  17.506  0.00  0.00    +0.000 OA
BRANCH  20  23
ATOM     23  C   UNL     1       2.100   8.047  18.935  0.00  0.00    +0.000 A 
ATOM     24  C   UNL     1       1.652   8.152  20.256  0.00  0.00    +0.000 A 
ATOM     25  C   UNL     1       0.698   9.119  20.583  0.00  0.00    +0.000 A 
ATOM     26  C   UNL     1       0.215   9.978  19.595  0.00  0.00    +0.000 A 
ATOM     27 CL   UNL     1      -1.009  11.122  19.980  0.00  0.00    +0.000 Cl
ATOM     28  C   UNL     1       0.703   9.903  18.289  0.00  0.00    +0.000 A 
ATOM     29  C   UNL     1       1.655   8.938  17.956  0.00  0.00    +0.000 A 
ENDBRANCH  20  23
ENDBRANCH  18  20
ENDBRANCH   6  18
TORSDOF 4
ENDMDL
MODEL 7
REMARK VINA RESULT:      -8.0      3.014      6.294
REMARK  Name = 
REMARK  4 active torsions:
REMARK  status: ('A' for Active; 'I' for Inactive)
REMARK    1  A    between atoms: C_4  and  C_5
REMARK    2  A    between atoms: C_10  and  N_11
REMARK    3  A    between atoms: N_11  and  S_12
REMARK    4  A    between atoms: S_12  and  C_15
REMARK                            x       y       z     vdW  Elec       q    Type
REMARK                         _______ _______ _______ _____ _____    ______ ____
ROOT
ATOM      1  C   UNL     1       2.376   4.912  18.405  0.00  0.00    +0.000 A 
ATOM      2  C   UNL     1       1.385   4.041  18.904  0.00  0.00    +0.000 A 
ATOM      3  C   UNL     1       1.439   2.671  18.660  0.00  0.00    +0.000 A 
ATOM      4  C   UNL     1       2.470   2.154  17.887  0.00  0.00    +0.000 A 
ATOM      5  C   UNL     1       3.452   3.005  17.373  0.00  0.00    +0.000 A 
ATOM      6  C   UNL     1       3.431   4.382  17.645  0.00  0.00    +0.000 A 
ENDROOT
BRANCH   1  10
ATOM      7  O   UNL     1       1.092   7.648  21.855  0.00  0.00    +0.000 OA
ATOM      8  C   UNL     1       1.467   7.554  20.692  0.00  0.00    +0.000 A 
ATOM      9  O   UNL     1       1.812   6.360  20.152  0.00  0.00    +0.000 OA
ATOM     10  C   UNL     1       2.257   6.311  18.880  0.00  0.00    +0.000 A 
ATOM     11  N   UNL     1       2.430   7.318  18.086  0.00  0.00    +0.000 NA
ATOM     12  C   UNL     1       2.048   8.573  18.551  0.00  0.00    +0.000 A 
ATOM     13  C   UNL     1       2.098   9.670  17.690  0.00  0.00    +0.000 A 
ATOM     14  C   UNL     1       1.598  10.911  18.094  0.00  0.00    +0.000 A 
ATOM     15  C   UNL     1       1.048  11.059  19.366  0.00  0.00    +0.000 A 
ATOM     16  C   UNL     1       1.014   9.972  20.239  0.00  0.00    +0.000 A 
ATOM     17  C   UNL     1       1.518   8.734  19.823  0.00  0.00    +0.000 A 
ENDBRANCH   1  10
BRANCH   6  18
ATOM     18  N   UNL     1       4.518   5.158  17.125  0.00  0.00    +0.000 N 
ATOM     19  H   UNL     1       4.445   6.167  17.269  0.00  0.00    +0.000 HD
BRANCH  18  20
ATOM     20  S   UNL     1       6.104   4.682  17.480  0.00  0.00    +0.000 S 
ATOM     21  O   UNL     1       6.032   3.967  18.739  0.00  0.00    +0.000 OA
ATOM     22  O   UNL     1       6.711   4.087  16.312  0.00  0.00    +0.000 OA
BRANCH  20  23
ATOM     23  C   UNL     1       6.895   6.235  17.812  0.00  0.00    +0.000 A 
ATOM     24  C   UNL     1       6.531   7.368  17.075  0.00  0.00    +0.000 A 
ATOM     25  C   UNL     1       7.204   8.574  17.291  0.00  0.00    +0.000 A 
ATOM     26  C   UNL     1       8.218   8.639  18.248  0.00  0.00    +0.000 A 
ATOM     27 CL   UNL     1       9.095  10.102  18.466  0.00  0.00    +0.000 Cl
ATOM     28  C   UNL     1       8.543   7.519  19.016  0.00  0.00    +0.000 A 
ATOM     29  C   UNL     1       7.876   6.312  18.804  0.00  0.00    +0.000 A 
ENDBRANCH  20  23
ENDBRANCH  18  20
ENDBRANCH   6  18
TORSDOF 4
ENDMDL
MODEL 8
REMARK VINA RESULT:      -8.0      2.903      6.141
REMARK  Name = 
REMARK  4 active torsions:
REMARK  status: ('A' for Active; 'I' for Inactive)
REMARK    1  A    between atoms: C_4  and  C_5
REMARK    2  A    between atoms: C_10  and  N_11
REMARK    3  A    between atoms: N_11  and  S_12
REMARK    4  A    between atoms: S_12  and  C_15
REMARK                            x       y       z     vdW  Elec       q    Type
REMARK                         _______ _______ _______ _____ _____    ______ ____
ROOT
ATOM      1  C   UNL     1       2.136   5.000  19.998  0.00  0.00    +0.000 A 
ATOM      2  C   UNL     1       0.942   4.311  20.294  0.00  0.00    +0.000 A 
ATOM      3  C   UNL     1       0.928   2.928  20.455  0.00  0.00    +0.000 A 
ATOM      4  C   UNL     1       2.104   2.208  20.292  0.00  0.00    +0.000 A 
ATOM      5  C   UNL     1       3.293   2.874  19.984  0.00  0.00    +0.000 A 
ATOM      6  C   UNL     1       3.329   4.272  19.859  0.00  0.00    +0.000 A 
ENDROOT
BRANCH   1  10
ATOM      7  O   UNL     1       0.393   8.639  22.180  0.00  0.00    +0.000 OA
ATOM      8  C   UNL     1       0.971   8.203  21.190  0.00  0.00    +0.000 A 
ATOM      9  O   UNL     1       1.342   6.902  21.101  0.00  0.00    +0.000 OA
ATOM     10  C   UNL     1       2.010   6.477  20.009  0.00  0.00    +0.000 A 
ATOM     11  N   UNL     1       2.383   7.202  19.005  0.00  0.00    +0.000 NA
ATOM     12  C   UNL     1       1.993   8.537  18.999  0.00  0.00    +0.000 A 
ATOM     13  C   UNL     1       2.263   9.328  17.881  0.00  0.00    +0.000 A 
ATOM     14  C   UNL     1       1.768  10.632  17.799  0.00  0.00    +0.000 A 
ATOM     15  C   UNL     1       1.001  11.152  18.842  0.00  0.00    +0.000 A 
ATOM     16  C   UNL     1       0.745  10.375  19.970  0.00  0.00    +0.000 A 
ATOM     17  C   UNL     1       1.247   9.069  20.041  0.00  0.00    +0.000 A 
ENDBRANCH   1  10
BRANCH   6  18
ATOM     18  N   UNL     1       4.609   4.863  19.605  0.00  0.00    +0.000 N 
ATOM     19  H   UNL     1       5.336   4.645  20.289  0.00  0.00    +0.000 HD
BRANCH  18  20
ATOM     20  S   UNL     1       5.277   4.732  18.055  0.00  0.00    +0.000 S 
ATOM     21  O   UNL     1       6.118   3.552  18.083  0.00  0.00    +0.000 OA
ATOM     22  O   UNL     1       4.242   4.894  17.059  0.00  0.00    +0.000 OA
BRANCH  20  23
ATOM     23  C   UNL     1       6.358   6.138  17.993  0.00  0.00    +0.000 A 
ATOM     24  C   UNL     1       7.537   6.137  18.747  0.00  0.00    +0.000 A 
ATOM     25  C   UNL     1       8.352   7.273  18.751  0.00  0.00    +0.000 A 
ATOM     26  C   UNL     1       7.990   8.386  17.991  0.00  0.00    +0.000 A 
ATOM     27 CL   UNL     1       8.954   9.809  18.048  0.00  0.00    +0.000 Cl
ATOM     28  C   UNL     1       6.840   8.364  17.200  0.00  0.00    +0.000 A 
ATOM     29  C   UNL     1       6.021   7.233  17.194  0.00  0.00    +0.000 A 
ENDBRANCH  20  23
ENDBRANCH  18  20
ENDBRANCH   6  18
TORSDOF 4
ENDMDL
MODEL 9
REMARK VINA RESULT:      -8.0      2.923      7.185
REMARK  Name = 
REMARK  4 active torsions:
REMARK  status: ('A' for Active; 'I' for Inactive)
REMARK    1  A    between atoms: C_4  and  C_5
REMARK    2  A    between atoms: C_10  and  N_11
REMARK    3  A    between atoms: N_11  and  S_12
REMARK    4  A    between atoms: S_12  and  C_15
REMARK                            x       y       z     vdW  Elec       q    Type
REMARK                         _______ _______ _______ _____ _____    ______ ____
ROOT
ATOM      1  C   UNL     1       2.677   5.289  19.833  0.00  0.00    +0.000 A 
ATOM      2  C   UNL     1       2.071   4.357  20.700  0.00  0.00    +0.000 A 
ATOM      3  C   UNL     1       2.651   3.114  20.942  0.00  0.00    +0.000 A 
ATOM      4  C   UNL     1       3.831   2.772  20.296  0.00  0.00    +0.000 A 
ATOM      5  C   UNL     1       4.437   3.679  19.422  0.00  0.00    +0.000 A 
ATOM      6  C   UNL     1       3.885   4.951  19.200  0.00  0.00    +0.000 A 
ENDROOT
BRANCH   1  10
ATOM      7  O   UNL     1       2.055   9.161  17.452  0.00  0.00    +0.000 OA
ATOM      8  C   UNL     1       1.888   8.553  18.504  0.00  0.00    +0.000 A 
ATOM      9  O   UNL     1       2.256   7.255  18.639  0.00  0.00    +0.000 OA
ATOM     10  C   UNL     1       2.017   6.616  19.803  0.00  0.00    +0.000 A 
ATOM     11  N   UNL     1       1.424   7.107  20.842  0.00  0.00    +0.000 NA
ATOM     12  C   UNL     1       1.063   8.450  20.799  0.00  0.00    +0.000 A 
ATOM     13  C   UNL     1       0.535   9.058  21.939  0.00  0.00    +0.000 A 
ATOM     14  C   UNL     1       0.288  10.433  21.959  0.00  0.00    +0.000 A 
ATOM     15  C   UNL     1       0.566  11.206  20.833  0.00  0.00    +0.000 A 
ATOM     16  C   UNL     1       1.074  10.602  19.684  0.00  0.00    +0.000 A 
ATOM     17  C   UNL     1       1.318   9.224  19.676  0.00  0.00    +0.000 A 
ENDBRANCH   1  10
BRANCH   6  18
ATOM     18  N   UNL     1       4.616   5.830  18.337  0.00  0.00    +0.000 N 
ATOM     19  H   UNL     1       4.491   6.827  18.520  0.00  0.00    +0.000 HD
BRANCH  18  20
ATOM     20  S   UNL     1       6.264   5.535  18.079  0.00  0.00    +0.000 S 
ATOM     21  O   UNL     1       6.898   6.838  18.034  0.00  0.00    +0.000 OA
ATOM     22  O   UNL     1       6.726   4.505  18.980  0.00  0.00    +0.000 OA
BRANCH  20  23
ATOM     23  C   UNL     1       6.274   4.897  16.423  0.00  0.00    +0.000 A 
ATOM     24  C   UNL     1       7.341   5.203  15.571  0.00  0.00    +0.000 A 
ATOM     25  C   UNL     1       7.313   4.756  14.247  0.00  0.00    +0.000 A 
ATOM     26  C   UNL     1       6.231   3.998  13.795  0.00  0.00    +0.000 A 
ATOM     27 CL   UNL     1       6.161   3.506  12.149  0.00  0.00    +0.000 Cl
ATOM     28  C   UNL     1       5.194   3.652  14.663  0.00  0.00    +0.000 A 
ATOM     29  C   UNL     1       5.216   4.097  15.986  0.00  0.00    +0.000 A 
ENDBRANCH  20  23
ENDBRANCH  18  20
ENDBRANCH   6  18
TORSDOF 4
ENDMDL
