MODEL 1
REMARK VINA RESULT:      -9.1      0.000      0.000
REMARK  Name = 
REMARK  6 active torsions:
REMARK  status: ('A' for Active; 'I' for Inactive)
REMARK    1  A    between atoms: C_1  and  O_2
REMARK    2  A    between atoms: O_2  and  C_3
REMARK    3  A    between atoms: N_11  and  C_12
REMARK    4  A    between atoms: C_12  and  C_13
REMARK    5  A    between atoms: C_13  and  C_14
REMARK    6  A    between atoms: C_15  and  C_16
REMARK                            x       y       z     vdW  Elec       q    Type
REMARK                         _______ _______ _______ _____ _____    ______ ____
ROOT
ATOM      1  C   UNL     1       4.259   4.697  17.769  0.00  0.00    +0.000 C 
ATOM      2  N   UNL     1       5.114   5.612  18.486  0.00  0.00    +0.000 N 
ATOM      3  C   UNL     1       5.934   4.970  19.381  0.00  0.00    +0.000 C 
ATOM      4  O   UNL     1       6.796   5.498  20.058  0.00  0.00    +0.000 OA
ATOM      5  N   UNL     1       5.598   3.660  19.411  0.00  0.00    +0.000 N 
ATOM      6  C   UNL     1       4.511   3.437  18.622  0.00  0.00    +0.000 C 
ATOM      7  O   UNL     1       3.879   2.389  18.584  0.00  0.00    +0.000 OA
ATOM      8  H   UNL     1       5.159   6.611  18.333  0.00  0.00    +0.000 HD
ATOM      9  H   UNL     1       5.983   2.999  20.065  0.00  0.00    +0.000 HD
ENDROOT
BRANCH   1  10
ATOM     10  C   UNL     1       4.800   4.490  16.415  0.00  0.00    +0.000 C 
ATOM     11  C   UNL     1       5.295   4.364  15.326  0.00  0.00    +0.000 C 
BRANCH  11  12
ATOM     12  C   UNL     1       5.925   4.247  14.050  0.00  0.00    +0.000 A 
ATOM     13  C   UNL     1       5.387   3.410  13.070  0.00  0.00    +0.000 A 
ATOM     14  C   UNL     1       6.014   3.303  11.828  0.00  0.00    +0.000 A 
ATOM     15  C   UNL     1       7.173   4.027  11.563  0.00  0.00    +0.000 A 
ATOM     16  C   UNL     1       7.710   4.865  12.539  0.00  0.00    +0.000 A 
ATOM     17  C   UNL     1       7.087   4.976  13.783  0.00  0.00    +0.000 A 
ENDBRANCH  11  12
ENDBRANCH   1  10
BRANCH   1  18
ATOM     18  C   UNL     1       2.761   5.039  17.777  0.00  0.00    +0.000 C 
BRANCH  18  27
ATOM     19  C   UNL     1       1.002   9.686  21.235  0.00  0.00    +0.000 A 
ATOM     20  C   UNL     1       1.079  10.419  20.032  0.00  0.00    +0.000 A 
ATOM     21  C   UNL     1       1.486   9.816  18.833  0.00  0.00    +0.000 A 
ATOM     22  C   UNL     1       1.806   8.469  18.860  0.00  0.00    +0.000 A 
ATOM     23  C   UNL     1       1.713   7.757  20.056  0.00  0.00    +0.000 A 
ATOM     24  C   UNL     1       1.302   8.326  21.246  0.00  0.00    +0.000 A 
ATOM     25  C   UNL     1       2.109   6.370  19.800  0.00  0.00    +0.000 C 
ATOM     26  O   UNL     1       2.166   5.490  20.636  0.00  0.00    +0.000 OA
ATOM     27  N   UNL     1       2.403   6.285  18.455  0.00  0.00    +0.000 N 
ATOM     28  C   UNL     1       2.257   7.560  17.764  0.00  0.00    +0.000 C 
BRANCH  19  30
ATOM     29  C   UNL     1      -0.181   9.656  23.272  0.00  0.00    +0.000 C 
ATOM     30  O   UNL     1       0.595  10.397  22.332  0.00  0.00    +0.000 OA
ENDBRANCH  19  30
ENDBRANCH  18  27
ENDBRANCH   1  18
TORSDOF 5
ENDMDL
MODEL 2
REMARK VINA RESULT:      -9.0      2.212      7.943
REMARK  Name = 
REMARK  6 active torsions:
REMARK  status: ('A' for Active; 'I' for Inactive)
REMARK    1  A    between atoms: C_1  and  O_2
REMARK    2  A    between atoms: O_2  and  C_3
REMARK    3  A    between atoms: N_11  and  C_12
REMARK    4  A    between atoms: C_12  and  C_13
REMARK    5  A    between atoms: C_13  and  C_14
REMARK    6  A    between atoms: C_15  and  C_16
REMARK                            x       y       z     vdW  Elec       q    Type
REMARK                         _______ _______ _______ _____ _____    ______ ____
ROOT
ATOM      1  C   UNL     1       2.651   4.109  20.014  0.00  0.00    +0.000 C 
ATOM      2  N   UNL     1       1.889   3.558  18.920  0.00  0.00    +0.000 N 
ATOM      3  C   UNL     1       0.822   2.808  19.350  0.00  0.00    +0.000 C 
ATOM      4  O   UNL     1      -0.017   2.293  18.635  0.00  0.00    +0.000 OA
ATOM      5  N   UNL     1       0.883   2.706  20.698  0.00  0.00    +0.000 N 
ATOM      6  C   UNL     1       2.018   3.297  21.162  0.00  0.00    +0.000 C 
ATOM      7  O   UNL     1       2.428   3.214  22.312  0.00  0.00    +0.000 OA
ATOM      8  H   UNL     1       2.069   3.727  17.938  0.00  0.00    +0.000 HD
ATOM      9  H   UNL     1       0.272   2.120  21.241  0.00  0.00    +0.000 HD
ENDROOT
BRANCH   1  10
ATOM     10  C   UNL     1       2.310   5.532  20.172  0.00  0.00    +0.000 C 
ATOM     11  C   UNL     1       1.985   6.687  20.249  0.00  0.00    +0.000 C 
BRANCH  11  12
ATOM     12  C   UNL     1       1.560   8.050  20.301  0.00  0.00    +0.000 A 
ATOM     13  C   UNL     1       1.500   8.818  19.137  0.00  0.00    +0.000 A 
ATOM     14  C   UNL     1       1.087  10.149  19.203  0.00  0.00    +0.000 A 
ATOM     15  C   UNL     1       0.734  10.714  20.425  0.00  0.00    +0.000 A 
ATOM     16  C   UNL     1       0.790   9.947  21.589  0.00  0.00    +0.000 A 
ATOM     17  C   UNL     1       1.203   8.616  21.529  0.00  0.00    +0.000 A 
ENDBRANCH  11  12
ENDBRANCH   1  10
BRANCH   1  18
ATOM     18  C   UNL     1       4.165   3.850  19.967  0.00  0.00    +0.000 C 
BRANCH  18  27
ATOM     19  C   UNL     1       7.242   5.132  14.914  0.00  0.00    +0.000 A 
ATOM     20  C   UNL     1       6.196   4.432  14.276  0.00  0.00    +0.000 A 
ATOM     21  C   UNL     1       5.148   3.856  15.009  0.00  0.00    +0.000 A 
ATOM     22  C   UNL     1       5.164   3.998  16.385  0.00  0.00    +0.000 A 
ATOM     23  C   UNL     1       6.199   4.703  16.999  0.00  0.00    +0.000 A 
ATOM     24  C   UNL     1       7.235   5.291  16.298  0.00  0.00    +0.000 A 
ATOM     25  C   UNL     1       5.970   4.696  18.446  0.00  0.00    +0.000 C 
ATOM     26  O   UNL     1       6.702   5.199  19.275  0.00  0.00    +0.000 OA
ATOM     27  N   UNL     1       4.793   4.009  18.655  0.00  0.00    +0.000 N 
ATOM     28  C   UNL     1       4.202   3.511  17.420  0.00  0.00    +0.000 C 
BRANCH  19  30
ATOM     29  C   UNL     1       8.009   5.357  12.698  0.00  0.00    +0.000 C 
ATOM     30  O   UNL     1       8.203   5.642  14.082  0.00  0.00    +0.000 OA
ENDBRANCH  19  30
ENDBRANCH  18  27
ENDBRANCH   1  18
TORSDOF 5
ENDMDL
MODEL 3
REMARK VINA RESULT:      -8.9      2.234      7.758
REMARK  Name = 
REMARK  6 active torsions:
REMARK  status: ('A' for Active; 'I' for Inactive)
REMARK    1  A    between atoms: C_1  and  O_2
REMARK    2  A    between atoms: O_2  and  C_3
REMARK    3  A    between atoms: N_11  and  C_12
REMARK    4  A    between atoms: C_12  and  C_13
REMARK    5  A    between atoms: C_13  and  C_14
REMARK    6  A    between atoms: C_15  and  C_16
REMARK                            x       y       z     vdW  Elec       q    Type
REMARK                         _______ _______ _______ _____ _____    ______ ____
ROOT
ATOM      1  C   UNL     1       2.727   4.003  19.799  0.00  0.00    +0.000 C 
ATOM      2  N   UNL     1       1.883   3.306  18.859  0.00  0.00    +0.000 N 
ATOM      3  C   UNL     1       0.803   2.711  19.466  0.00  0.00    +0.000 C 
ATOM      4  O   UNL     1      -0.096   2.123  18.895  0.00  0.00    +0.000 OA
ATOM      5  N   UNL     1       0.927   2.855  20.805  0.00  0.00    +0.000 N 
ATOM      6  C   UNL     1       2.113   3.454  21.104  0.00  0.00    +0.000 C 
ATOM      7  O   UNL     1       2.576   3.561  22.231  0.00  0.00    +0.000 OA
ATOM      8  H   UNL     1       2.021   3.280  17.857  0.00  0.00    +0.000 HD
ATOM      9  H   UNL     1       0.317   2.416  21.473  0.00  0.00    +0.000 HD
ENDROOT
BRANCH   1  10
ATOM     10  C   UNL     1       2.466   5.448  19.703  0.00  0.00    +0.000 C 
ATOM     11  C   UNL     1       2.183   6.615  19.629  0.00  0.00    +0.000 C 
BRANCH  11  12
ATOM     12  C   UNL     1       1.796   7.987  19.548  0.00  0.00    +0.000 A 
ATOM     13  C   UNL     1       1.244   8.633  20.656  0.00  0.00    +0.000 A 
ATOM     14  C   UNL     1       0.866   9.973  20.562  0.00  0.00    +0.000 A 
ATOM     15  C   UNL     1       1.039  10.668  19.368  0.00  0.00    +0.000 A 
ATOM     16  C   UNL     1       1.593  10.025  18.261  0.00  0.00    +0.000 A 
ATOM     17  C   UNL     1       1.972   8.686  18.350  0.00  0.00    +0.000 A 
ENDBRANCH  11  12
ENDBRANCH   1  10
BRANCH   1  18
ATOM     18  C   UNL     1       4.221   3.652  19.740  0.00  0.00    +0.000 C 
BRANCH  18  27
ATOM     19  C   UNL     1       7.354   5.147  14.780  0.00  0.00    +0.000 A 
ATOM     20  C   UNL     1       6.339   4.438  14.104  0.00  0.00    +0.000 A 
ATOM     21  C   UNL     1       5.293   3.815  14.802  0.00  0.00    +0.000 A 
ATOM     22  C   UNL     1       5.280   3.921  16.182  0.00  0.00    +0.000 A 
ATOM     23  C   UNL     1       6.285   4.636  16.834  0.00  0.00    +0.000 A 
ATOM     24  C   UNL     1       7.317   5.270  16.167  0.00  0.00    +0.000 A 
ATOM     25  C   UNL     1       6.030   4.585  18.275  0.00  0.00    +0.000 C 
ATOM     26  O   UNL     1       6.733   5.084  19.131  0.00  0.00    +0.000 OA
ATOM     27  N   UNL     1       4.868   3.862  18.444  0.00  0.00    +0.000 N 
ATOM     28  C   UNL     1       4.313   3.382  17.185  0.00  0.00    +0.000 C 
BRANCH  19  30
ATOM     29  C   UNL     1       8.076   5.577  12.579  0.00  0.00    +0.000 C 
ATOM     30  O   UNL     1       8.315   5.704  13.980  0.00  0.00    +0.000 OA
ENDBRANCH  19  30
ENDBRANCH  18  27
ENDBRANCH   1  18
TORSDOF 5
ENDMDL
MODEL 4
REMARK VINA RESULT:      -8.8      2.282      7.947
REMARK  Name = 
REMARK  6 active torsions:
REMARK  status: ('A' for Active; 'I' for Inactive)
REMARK    1  A    between atoms: C_1  and  O_2
REMARK    2  A    between atoms: O_2  and  C_3
REMARK    3  A    between atoms: N_11  and  C_12
REMARK    4  A    between atoms: C_12  and  C_13
REMARK    5  A    between atoms: C_13  and  C_14
REMARK    6  A    between atoms: C_15  and  C_16
REMARK                            x       y       z     vdW  Elec       q    Type
REMARK                         _______ _______ _______ _____ _____    ______ ____
ROOT
ATOM      1  C   UNL     1       2.630   4.111  20.045  0.00  0.00    +0.000 C 
ATOM      2  N   UNL     1       1.843   3.552  18.972  0.00  0.00    +0.000 N 
ATOM      3  C   UNL     1       0.776   2.819  19.433  0.00  0.00    +0.000 C 
ATOM      4  O   UNL     1      -0.081   2.302  18.741  0.00  0.00    +0.000 OA
ATOM      5  N   UNL     1       0.859   2.736  20.781  0.00  0.00    +0.000 N 
ATOM      6  C   UNL     1       2.009   3.322  21.216  0.00  0.00    +0.000 C 
ATOM      7  O   UNL     1       2.438   3.252  22.360  0.00  0.00    +0.000 OA
ATOM      8  H   UNL     1       2.007   3.705  17.985  0.00  0.00    +0.000 HD
ATOM      9  H   UNL     1       0.252   2.165  21.343  0.00  0.00    +0.000 HD
ENDROOT
BRANCH   1  10
ATOM     10  C   UNL     1       2.306   5.539  20.188  0.00  0.00    +0.000 C 
ATOM     11  C   UNL     1       1.990   6.698  20.258  0.00  0.00    +0.000 C 
BRANCH  11  12
ATOM     12  C   UNL     1       1.573   8.063  20.306  0.00  0.00    +0.000 A 
ATOM     13  C   UNL     1       1.205   8.647  21.520  0.00  0.00    +0.000 A 
ATOM     14  C   UNL     1       0.797   9.981  21.552  0.00  0.00    +0.000 A 
ATOM     15  C   UNL     1       0.755  10.731  20.380  0.00  0.00    +0.000 A 
ATOM     16  C   UNL     1       1.125  10.149  19.167  0.00  0.00    +0.000 A 
ATOM     17  C   UNL     1       1.534   8.816  19.129  0.00  0.00    +0.000 A 
ENDBRANCH  11  12
ENDBRANCH   1  10
BRANCH   1  18
ATOM     18  C   UNL     1       4.140   3.835  19.976  0.00  0.00    +0.000 C 
BRANCH  18  27
ATOM     19  C   UNL     1       6.580   4.443  14.469  0.00  0.00    +0.000 A 
ATOM     20  C   UNL     1       7.266   5.528  15.054  0.00  0.00    +0.000 A 
ATOM     21  C   UNL     1       7.058   5.888  16.394  0.00  0.00    +0.000 A 
ATOM     22  C   UNL     1       6.158   5.141  17.134  0.00  0.00    +0.000 A 
ATOM     23  C   UNL     1       5.497   4.064  16.543  0.00  0.00    +0.000 A 
ATOM     24  C   UNL     1       5.696   3.682  15.230  0.00  0.00    +0.000 A 
ATOM     25  C   UNL     1       4.612   3.460  17.541  0.00  0.00    +0.000 C 
ATOM     26  O   UNL     1       3.871   2.517  17.345  0.00  0.00    +0.000 OA
ATOM     27  N   UNL     1       4.786   4.175  18.708  0.00  0.00    +0.000 N 
ATOM     28  C   UNL     1       5.734   5.272  18.561  0.00  0.00    +0.000 C 
BRANCH  19  30
ATOM     29  C   UNL     1       5.938   3.367  12.474  0.00  0.00    +0.000 C 
ATOM     30  O   UNL     1       6.874   4.201  13.153  0.00  0.00    +0.000 OA
ENDBRANCH  19  30
ENDBRANCH  18  27
ENDBRANCH   1  18
TORSDOF 5
ENDMDL
MODEL 5
REMARK VINA RESULT:      -7.7      1.516      1.833
REMARK  Name = 
REMARK  6 active torsions:
REMARK  status: ('A' for Active; 'I' for Inactive)
REMARK    1  A    between atoms: C_1  and  O_2
REMARK    2  A    between atoms: O_2  and  C_3
REMARK    3  A    between atoms: N_11  and  C_12
REMARK    4  A    between atoms: C_12  and  C_13
REMARK    5  A    between atoms: C_13  and  C_14
REMARK    6  A    between atoms: C_15  and  C_16
REMARK                            x       y       z     vdW  Elec       q    Type
REMARK                         _______ _______ _______ _____ _____    ______ ____
ROOT
ATOM      1  C   UNL     1       5.387   5.672  16.910  0.00  0.00    +0.000 C 
ATOM      2  N   UNL     1       5.716   7.074  16.822  0.00  0.00    +0.000 N 
ATOM      3  C   UNL     1       6.946   7.358  17.363  0.00  0.00    +0.000 C 
ATOM      4  O   UNL     1       7.491   8.446  17.355  0.00  0.00    +0.000 OA
ATOM      5  N   UNL     1       7.433   6.235  17.941  0.00  0.00    +0.000 N 
ATOM      6  C   UNL     1       6.511   5.236  17.873  0.00  0.00    +0.000 C 
ATOM      7  O   UNL     1       6.599   4.164  18.456  0.00  0.00    +0.000 OA
ATOM      8  H   UNL     1       5.146   7.781  16.375  0.00  0.00    +0.000 HD
ATOM      9  H   UNL     1       8.272   6.211  18.495  0.00  0.00    +0.000 HD
ENDROOT
BRANCH   1  10
ATOM     10  C   UNL     1       5.594   5.043  15.595  0.00  0.00    +0.000 C 
ATOM     11  C   UNL     1       5.710   4.485  14.536  0.00  0.00    +0.000 C 
BRANCH  11  12
ATOM     12  C   UNL     1       5.807   3.790  13.292  0.00  0.00    +0.000 A 
ATOM     13  C   UNL     1       4.653   3.391  12.614  0.00  0.00    +0.000 A 
ATOM     14  C   UNL     1       4.762   2.710  11.401  0.00  0.00    +0.000 A 
ATOM     15  C   UNL     1       6.015   2.428  10.864  0.00  0.00    +0.000 A 
ATOM     16  C   UNL     1       7.168   2.829  11.539  0.00  0.00    +0.000 A 
ATOM     17  C   UNL     1       7.065   3.510  12.753  0.00  0.00    +0.000 A 
ENDBRANCH  11  12
ENDBRANCH   1  10
BRANCH   1  18
ATOM     18  C   UNL     1       4.018   5.347  17.528  0.00  0.00    +0.000 C 
BRANCH  18  27
ATOM     19  C   UNL     1       0.803   9.500  20.539  0.00  0.00    +0.000 A 
ATOM     20  C   UNL     1       0.880  10.222  19.329  0.00  0.00    +0.000 A 
ATOM     21  C   UNL     1       1.573   9.717  18.219  0.00  0.00    +0.000 A 
ATOM     22  C   UNL     1       2.179   8.479  18.341  0.00  0.00    +0.000 A 
ATOM     23  C   UNL     1       2.084   7.773  19.540  0.00  0.00    +0.000 A 
ATOM     24  C   UNL     1       1.395   8.243  20.642  0.00  0.00    +0.000 A 
ATOM     25  C   UNL     1       2.811   6.511  19.393  0.00  0.00    +0.000 C 
ATOM     26  O   UNL     1       2.947   5.673  20.263  0.00  0.00    +0.000 OA
ATOM     27  N   UNL     1       3.300   6.485  18.104  0.00  0.00    +0.000 N 
ATOM     28  C   UNL     1       2.970   7.687  17.350  0.00  0.00    +0.000 C 
BRANCH  19  30
ATOM     29  C   UNL     1       0.059   9.383  22.771  0.00  0.00    +0.000 C 
ATOM     30  O   UNL     1       0.099  10.109  21.544  0.00  0.00    +0.000 OA
ENDBRANCH  19  30
ENDBRANCH  18  27
ENDBRANCH   1  18
TORSDOF 5
ENDMDL
MODEL 6
REMARK VINA RESULT:      -7.7      1.015      1.697
REMARK  Name = 
REMARK  6 active torsions:
REMARK  status: ('A' for Active; 'I' for Inactive)
REMARK    1  A    between atoms: C_1  and  O_2
REMARK    2  A    between atoms: O_2  and  C_3
REMARK    3  A    between atoms: N_11  and  C_12
REMARK    4  A    between atoms: C_12  and  C_13
REMARK    5  A    between atoms: C_13  and  C_14
REMARK    6  A    between atoms: C_15  and  C_16
REMARK                            x       y       z     vdW  Elec       q    Type
REMARK                         _______ _______ _______ _____ _____    ______ ____
ROOT
ATOM      1  C   UNL     1       4.234   4.738  17.724  0.00  0.00    +0.000 C 
ATOM      2  N   UNL     1       5.061   5.654  18.471  0.00  0.00    +0.000 N 
ATOM      3  C   UNL     1       5.870   5.010  19.375  0.00  0.00    +0.000 C 
ATOM      4  O   UNL     1       6.710   5.540  20.079  0.00  0.00    +0.000 OA
ATOM      5  N   UNL     1       5.550   3.696  19.382  0.00  0.00    +0.000 N 
ATOM      6  C   UNL     1       4.484   3.470  18.566  0.00  0.00    +0.000 C 
ATOM      7  O   UNL     1       3.866   2.415  18.501  0.00  0.00    +0.000 OA
ATOM      8  H   UNL     1       5.096   6.656  18.333  0.00  0.00    +0.000 HD
ATOM      9  H   UNL     1       5.930   3.032  20.035  0.00  0.00    +0.000 HD
ENDROOT
BRANCH   1  10
ATOM     10  C   UNL     1       4.807   4.556  16.380  0.00  0.00    +0.000 C 
ATOM     11  C   UNL     1       5.334   4.438  15.305  0.00  0.00    +0.000 C 
BRANCH  11  12
ATOM     12  C   UNL     1       6.005   4.321  14.050  0.00  0.00    +0.000 A 
ATOM     13  C   UNL     1       5.533   3.440  13.075  0.00  0.00    +0.000 A 
ATOM     14  C   UNL     1       6.200   3.332  11.855  0.00  0.00    +0.000 A 
ATOM     15  C   UNL     1       7.335   4.100  11.605  0.00  0.00    +0.000 A 
ATOM     16  C   UNL     1       7.806   4.983  12.577  0.00  0.00    +0.000 A 
ATOM     17  C   UNL     1       7.142   5.094  13.799  0.00  0.00    +0.000 A 
ENDBRANCH  11  12
ENDBRANCH   1  10
BRANCH   1  18
ATOM     18  C   UNL     1       2.732   5.062  17.704  0.00  0.00    +0.000 C 
BRANCH  18  27
ATOM     19  C   UNL     1       1.340  10.102  20.754  0.00  0.00    +0.000 A 
ATOM     20  C   UNL     1       1.157   9.219  21.839  0.00  0.00    +0.000 A 
ATOM     21  C   UNL     1       1.332   7.834  21.692  0.00  0.00    +0.000 A 
ATOM     22  C   UNL     1       1.697   7.355  20.446  0.00  0.00    +0.000 A 
ATOM     23  C   UNL     1       1.885   8.243  19.388  0.00  0.00    +0.000 A 
ATOM     24  C   UNL     1       1.733   9.611  19.511  0.00  0.00    +0.000 A 
ATOM     25  C   UNL     1       2.260   7.474  18.199  0.00  0.00    +0.000 C 
ATOM     26  O   UNL     1       2.470   7.941  17.097  0.00  0.00    +0.000 OA
ATOM     27  N   UNL     1       2.310   6.151  18.585  0.00  0.00    +0.000 N 
ATOM     28  C   UNL     1       1.959   5.958  19.986  0.00  0.00    +0.000 C 
BRANCH  19  30
ATOM     29  C   UNL     1       1.410  12.316  19.953  0.00  0.00    +0.000 C 
ATOM     30  O   UNL     1       1.135  11.427  21.033  0.00  0.00    +0.000 OA
ENDBRANCH  19  30
ENDBRANCH  18  27
ENDBRANCH   1  18
TORSDOF 5
ENDMDL
MODEL 7
REMARK VINA RESULT:      -7.7      1.048      1.803
REMARK  Name = 
REMARK  6 active torsions:
REMARK  status: ('A' for Active; 'I' for Inactive)
REMARK    1  A    between atoms: C_1  and  O_2
REMARK    2  A    between atoms: O_2  and  C_3
REMARK    3  A    between atoms: N_11  and  C_12
REMARK    4  A    between atoms: C_12  and  C_13
REMARK    5  A    between atoms: C_13  and  C_14
REMARK    6  A    between atoms: C_15  and  C_16
REMARK                            x       y       z     vdW  Elec       q    Type
REMARK                         _______ _______ _______ _____ _____    ______ ____
ROOT
ATOM      1  C   UNL     1       4.247   4.704  17.732  0.00  0.00    +0.000 C 
ATOM      2  N   UNL     1       5.057   5.639  18.474  0.00  0.00    +0.000 N 
ATOM      3  C   UNL     1       5.873   5.015  19.386  0.00  0.00    +0.000 C 
ATOM      4  O   UNL     1       6.703   5.563  20.088  0.00  0.00    +0.000 OA
ATOM      5  N   UNL     1       5.573   3.696  19.402  0.00  0.00    +0.000 N 
ATOM      6  C   UNL     1       4.513   3.447  18.585  0.00  0.00    +0.000 C 
ATOM      7  O   UNL     1       3.912   2.382  18.526  0.00  0.00    +0.000 OA
ATOM      8  H   UNL     1       5.078   6.640  18.328  0.00  0.00    +0.000 HD
ATOM      9  H   UNL     1       5.961   3.043  20.062  0.00  0.00    +0.000 HD
ENDROOT
BRANCH   1  10
ATOM     10  C   UNL     1       4.826   4.520  16.391  0.00  0.00    +0.000 C 
ATOM     11  C   UNL     1       5.355   4.410  15.316  0.00  0.00    +0.000 C 
BRANCH  11  12
ATOM     12  C   UNL     1       6.024   4.309  14.059  0.00  0.00    +0.000 A 
ATOM     13  C   UNL     1       7.163   5.073  13.800  0.00  0.00    +0.000 A 
ATOM     14  C   UNL     1       7.806   4.967  12.566  0.00  0.00    +0.000 A 
ATOM     15  C   UNL     1       7.315   4.101  11.592  0.00  0.00    +0.000 A 
ATOM     16  C   UNL     1       6.178   3.335  11.850  0.00  0.00    +0.000 A 
ATOM     17  C   UNL     1       5.532   3.438  13.082  0.00  0.00    +0.000 A 
ENDBRANCH  11  12
ENDBRANCH   1  10
BRANCH   1  18
ATOM     18  C   UNL     1       2.740   5.004  17.705  0.00  0.00    +0.000 C 
BRANCH  18  27
ATOM     19  C   UNL     1       1.307  10.166  20.525  0.00  0.00    +0.000 A 
ATOM     20  C   UNL     1       1.109   9.328  21.642  0.00  0.00    +0.000 A 
ATOM     21  C   UNL     1       1.286   7.939  21.556  0.00  0.00    +0.000 A 
ATOM     22  C   UNL     1       1.668   7.409  20.335  0.00  0.00    +0.000 A 
ATOM     23  C   UNL     1       1.870   8.252  19.243  0.00  0.00    +0.000 A 
ATOM     24  C   UNL     1       1.717   9.624  19.308  0.00  0.00    +0.000 A 
ATOM     25  C   UNL     1       2.261   7.435  18.093  0.00  0.00    +0.000 C 
ATOM     26  O   UNL     1       2.486   7.856  16.976  0.00  0.00    +0.000 OA
ATOM     27  N   UNL     1       2.306   6.129  18.534  0.00  0.00    +0.000 N 
ATOM     28  C   UNL     1       1.936   5.993  19.937  0.00  0.00    +0.000 C 
BRANCH  19  30
ATOM     29  C   UNL     1      -0.036  11.804  21.557  0.00  0.00    +0.000 C 
ATOM     30  O   UNL     1       1.098  11.501  20.746  0.00  0.00    +0.000 OA
ENDBRANCH  19  30
ENDBRANCH  18  27
ENDBRANCH   1  18
TORSDOF 5
ENDMDL
MODEL 8
REMARK VINA RESULT:      -7.6      3.209      7.001
REMARK  Name = 
REMARK  6 active torsions:
REMARK  status: ('A' for Active; 'I' for Inactive)
REMARK    1  A    between atoms: C_1  and  O_2
REMARK    2  A    between atoms: O_2  and  C_3
REMARK    3  A    between atoms: N_11  and  C_12
REMARK    4  A    between atoms: C_12  and  C_13
REMARK    5  A    between atoms: C_13  and  C_14
REMARK    6  A    between atoms: C_15  and  C_16
REMARK                            x       y       z     vdW  Elec       q    Type
REMARK                         _______ _______ _______ _____ _____    ______ ____
ROOT
ATOM      1  C   UNL     1       2.923   3.772  18.419  0.00  0.00    +0.000 C 
ATOM      2  N   UNL     1       1.755   3.188  17.806  0.00  0.00    +0.000 N 
ATOM      3  C   UNL     1       1.116   2.300  18.636  0.00  0.00    +0.000 C 
ATOM      4  O   UNL     1       0.072   1.725  18.392  0.00  0.00    +0.000 OA
ATOM      5  N   UNL     1       1.860   2.144  19.755  0.00  0.00    +0.000 N 
ATOM      6  C   UNL     1       3.025   2.840  19.644  0.00  0.00    +0.000 C 
ATOM      7  O   UNL     1       3.967   2.753  20.420  0.00  0.00    +0.000 OA
ATOM      8  H   UNL     1       1.397   3.421  16.888  0.00  0.00    +0.000 HD
ATOM      9  H   UNL     1       1.657   1.467  20.471  0.00  0.00    +0.000 HD
ENDROOT
BRANCH   1  10
ATOM     10  C   UNL     1       2.602   5.137  18.866  0.00  0.00    +0.000 C 
ATOM     11  C   UNL     1       2.277   6.247  19.199  0.00  0.00    +0.000 C 
BRANCH  11  12
ATOM     12  C   UNL     1       1.843   7.555  19.570  0.00  0.00    +0.000 A 
ATOM     13  C   UNL     1       1.780   8.576  18.619  0.00  0.00    +0.000 A 
ATOM     14  C   UNL     1       1.357   9.851  18.996  0.00  0.00    +0.000 A 
ATOM     15  C   UNL     1       0.996  10.109  20.316  0.00  0.00    +0.000 A 
ATOM     16  C   UNL     1       1.055   9.089  21.266  0.00  0.00    +0.000 A 
ATOM     17  C   UNL     1       1.477   7.813  20.895  0.00  0.00    +0.000 A 
ENDBRANCH  11  12
ENDBRANCH   1  10
BRANCH   1  18
ATOM     18  C   UNL     1       4.218   3.692  17.596  0.00  0.00    +0.000 C 
BRANCH  18  27
ATOM     19  C   UNL     1       7.992   8.419  17.849  0.00  0.00    +0.000 A 
ATOM     20  C   UNL     1       8.628   7.668  18.860  0.00  0.00    +0.000 A 
ATOM     21  C   UNL     1       8.137   6.417  19.261  0.00  0.00    +0.000 A 
ATOM     22  C   UNL     1       7.005   5.932  18.629  0.00  0.00    +0.000 A 
ATOM     23  C   UNL     1       6.395   6.681  17.623  0.00  0.00    +0.000 A 
ATOM     24  C   UNL     1       6.869   7.909  17.201  0.00  0.00    +0.000 A 
ATOM     25  C   UNL     1       5.231   5.940  17.135  0.00  0.00    +0.000 C 
ATOM     26  O   UNL     1       4.462   6.325  16.276  0.00  0.00    +0.000 OA
ATOM     27  N   UNL     1       5.190   4.757  17.844  0.00  0.00    +0.000 N 
ATOM     28  C   UNL     1       6.260   4.651  18.827  0.00  0.00    +0.000 C 
BRANCH  19  30
ATOM     29  C   UNL     1       9.142  10.302  18.675  0.00  0.00    +0.000 C 
ATOM     30  O   UNL     1       8.573   9.624  17.557  0.00  0.00    +0.000 OA
ENDBRANCH  19  30
ENDBRANCH  18  27
ENDBRANCH   1  18
TORSDOF 5
ENDMDL
MODEL 9
REMARK VINA RESULT:      -7.6      1.564      2.053
REMARK  Name = 
REMARK  6 active torsions:
REMARK  status: ('A' for Active; 'I' for Inactive)
REMARK    1  A    between atoms: C_1  and  O_2
REMARK    2  A    between atoms: O_2  and  C_3
REMARK    3  A    between atoms: N_11  and  C_12
REMARK    4  A    between atoms: C_12  and  C_13
REMARK    5  A    between atoms: C_13  and  C_14
REMARK    6  A    between atoms: C_15  and  C_16
REMARK                            x       y       z     vdW  Elec       q    Type
REMARK                         _______ _______ _______ _____ _____    ______ ____
ROOT
ATOM      1  C   UNL     1       5.397   5.654  16.885  0.00  0.00    +0.000 C 
ATOM      2  N   UNL     1       5.712   7.059  16.799  0.00  0.00    +0.000 N 
ATOM      3  C   UNL     1       6.937   7.355  17.344  0.00  0.00    +0.000 C 
ATOM      4  O   UNL     1       7.471   8.449  17.338  0.00  0.00    +0.000 OA
ATOM      5  N   UNL     1       7.434   6.237  17.921  0.00  0.00    +0.000 N 
ATOM      6  C   UNL     1       6.523   5.228  17.849  0.00  0.00    +0.000 C 
ATOM      7  O   UNL     1       6.621   4.156  18.431  0.00  0.00    +0.000 OA
ATOM      8  H   UNL     1       5.135   7.762  16.353  0.00  0.00    +0.000 HD
ATOM      9  H   UNL     1       8.272   6.221  18.477  0.00  0.00    +0.000 HD
ENDROOT
BRANCH   1  10
ATOM     10  C   UNL     1       5.613   5.030  15.569  0.00  0.00    +0.000 C 
ATOM     11  C   UNL     1       5.740   4.472  14.511  0.00  0.00    +0.000 C 
BRANCH  11  12
ATOM     12  C   UNL     1       5.852   3.775  13.270  0.00  0.00    +0.000 A 
ATOM     13  C   UNL     1       7.106   3.517  12.714  0.00  0.00    +0.000 A 
ATOM     14  C   UNL     1       7.200   2.838  11.498  0.00  0.00    +0.000 A 
ATOM     15  C   UNL     1       6.049   2.417  10.839  0.00  0.00    +0.000 A 
ATOM     16  C   UNL     1       4.795   2.672  11.394  0.00  0.00    +0.000 A 
ATOM     17  C   UNL     1       4.695   3.350  12.609  0.00  0.00    +0.000 A 
ENDBRANCH  11  12
ENDBRANCH   1  10
BRANCH   1  18
ATOM     18  C   UNL     1       4.030   5.314  17.499  0.00  0.00    +0.000 C 
BRANCH  18  27
ATOM     19  C   UNL     1       0.835   9.399  20.622  0.00  0.00    +0.000 A 
ATOM     20  C   UNL     1       0.882  10.137  19.420  0.00  0.00    +0.000 A 
ATOM     21  C   UNL     1       1.559   9.652  18.291  0.00  0.00    +0.000 A 
ATOM     22  C   UNL     1       2.178   8.419  18.386  0.00  0.00    +0.000 A 
ATOM     23  C   UNL     1       2.112   7.697  19.577  0.00  0.00    +0.000 A 
ATOM     24  C   UNL     1       1.440   8.147  20.698  0.00  0.00    +0.000 A 
ATOM     25  C   UNL     1       2.848   6.443  19.401  0.00  0.00    +0.000 C 
ATOM     26  O   UNL     1       3.008   5.596  20.257  0.00  0.00    +0.000 OA
ATOM     27  N   UNL     1       3.313   6.438  18.103  0.00  0.00    +0.000 N 
ATOM     28  C   UNL     1       2.957   7.646  17.370  0.00  0.00    +0.000 C 
BRANCH  19  30
ATOM     29  C   UNL     1      -0.638  11.120  21.270  0.00  0.00    +0.000 C 
ATOM     30  O   UNL     1       0.145   9.989  21.647  0.00  0.00    +0.000 OA
ENDBRANCH  19  30
ENDBRANCH  18  27
ENDBRANCH   1  18
TORSDOF 5
ENDMDL
