MODEL 1
REMARK VINA RESULT:      -8.6      0.000      0.000
REMARK  Name = 
REMARK  7 active torsions:
REMARK  status: ('A' for Active; 'I' for Inactive)
REMARK    1  A    between atoms: C_1  and  N_2
REMARK    2  A    between atoms: N_2  and  C_3
REMARK    3  A    between atoms: N_2  and  P_4
REMARK    4  A    between atoms: P_4  and  N_6
REMARK    5  A    between atoms: P_4  and  N_17
REMARK    6  A    between atoms: N_6  and  C_7
REMARK    7  A    between atoms: N_17  and  C_18
REMARK                            x       y       z     vdW  Elec       q    Type
REMARK                         _______ _______ _______ _____ _____    ______ ____
ROOT
ATOM      1  P   UNL     1       2.957   4.334  19.284  0.00  0.00    +0.000 P 
ATOM      2  O   UNL     1       2.192   4.125  18.009  0.00  0.00    +0.000 OA
ENDROOT
BRANCH   1   4
ATOM      3  C   UNL     1       2.857   2.668  21.385  0.00  0.00    +0.000 C 
ATOM      4  N   UNL     1       2.192   3.702  20.601  0.00  0.00    +0.000 NA
ATOM      5  C   UNL     1       0.795   3.321  20.369  0.00  0.00    +0.000 C 
ENDBRANCH   1   4
BRANCH   1   6
ATOM      6  N   UNL     1       3.187   5.867  19.836  0.00  0.00    +0.000 N 
ATOM      7  H   UNL     1       4.119   6.005  20.190  0.00  0.00    +0.000 HD
BRANCH   6   8
ATOM      8  C   UNL     1       2.632   7.021  19.230  0.00  0.00    +0.000 A 
ATOM      9  C   UNL     1       3.008   7.342  17.915  0.00  0.00    +0.000 A 
ATOM     10  C   UNL     1       2.702   8.577  17.365  0.00  0.00    +0.000 A 
ATOM     11  C   UNL     1       1.969   9.491  18.102  0.00  0.00    +0.000 A 
ATOM     12  C   UNL     1       1.444   9.148  19.355  0.00  0.00    +0.000 A 
ATOM     13  C   UNL     1       0.625  10.062  20.034  0.00  0.00    +0.000 A 
ATOM     14  C   UNL     1       0.023   9.724  21.242  0.00  0.00    +0.000 A 
ATOM     15  C   UNL     1       0.247   8.469  21.795  0.00  0.00    +0.000 A 
ATOM     16  C   UNL     1       1.101   7.564  21.155  0.00  0.00    +0.000 A 
ATOM     17  C   UNL     1       1.732   7.881  19.925  0.00  0.00    +0.000 A 
ENDBRANCH   6   8
ENDBRANCH   1   6
BRANCH   1  18
ATOM     18  N   UNL     1       4.554   3.945  19.395  0.00  0.00    +0.000 N 
ATOM     19  H   UNL     1       4.829   3.768  20.351  0.00  0.00    +0.000 HD
BRANCH  18  20
ATOM     20  C   UNL     1       5.627   4.622  18.728  0.00  0.00    +0.000 A 
ATOM     21  C   UNL     1       6.504   5.426  19.473  0.00  0.00    +0.000 A 
ATOM     22  C   UNL     1       7.475   6.211  18.864  0.00  0.00    +0.000 A 
ATOM     23  C   UNL     1       7.584   6.231  17.482  0.00  0.00    +0.000 A 
ATOM     24  C   UNL     1       6.759   5.428  16.693  0.00  0.00    +0.000 A 
ATOM     25  C   UNL     1       6.925   5.465  15.298  0.00  0.00    +0.000 A 
ATOM     26  C   UNL     1       6.168   4.658  14.468  0.00  0.00    +0.000 A 
ATOM     27  C   UNL     1       5.229   3.796  15.019  0.00  0.00    +0.000 A 
ATOM     28  C   UNL     1       5.028   3.773  16.411  0.00  0.00    +0.000 A 
ATOM     29  C   UNL     1       5.773   4.585  17.295  0.00  0.00    +0.000 A 
ENDBRANCH  18  20
ENDBRANCH   1  18
TORSDOF 5
ENDMDL
MODEL 2
REMARK VINA RESULT:      -8.2      1.146      6.748
REMARK  Name = 
REMARK  7 active torsions:
REMARK  status: ('A' for Active; 'I' for Inactive)
REMARK    1  A    between atoms: C_1  and  N_2
REMARK    2  A    between atoms: N_2  and  C_3
REMARK    3  A    between atoms: N_2  and  P_4
REMARK    4  A    between atoms: P_4  and  N_6
REMARK    5  A    between atoms: P_4  and  N_17
REMARK    6  A    between atoms: N_6  and  C_7
REMARK    7  A    between atoms: N_17  and  C_18
REMARK                            x       y       z     vdW  Elec       q    Type
REMARK                         _______ _______ _______ _____ _____    ______ ____
ROOT
ATOM      1  P   UNL     1       2.863   4.725  19.816  0.00  0.00    +0.000 P 
ATOM      2  O   UNL     1       3.479   3.626  20.631  0.00  0.00    +0.000 OA
ENDROOT
BRANCH   1   4
ATOM      3  C   UNL     1       0.646   3.212  19.787  0.00  0.00    +0.000 C 
ATOM      4  N   UNL     1       1.395   4.312  19.189  0.00  0.00    +0.000 NA
ATOM      5  C   UNL     1       1.370   4.185  17.728  0.00  0.00    +0.000 C 
ENDBRANCH   1   4
BRANCH   1   6
ATOM      6  N   UNL     1       3.605   5.204  18.427  0.00  0.00    +0.000 N 
ATOM      7  H   UNL     1       3.172   6.021  18.030  0.00  0.00    +0.000 HD
BRANCH   6   8
ATOM      8  C   UNL     1       5.004   5.140  18.212  0.00  0.00    +0.000 A 
ATOM      9  C   UNL     1       5.866   5.362  19.298  0.00  0.00    +0.000 A 
ATOM     10  C   UNL     1       7.225   5.562  19.103  0.00  0.00    +0.000 A 
ATOM     11  C   UNL     1       7.750   5.488  17.824  0.00  0.00    +0.000 A 
ATOM     12  C   UNL     1       6.947   5.114  16.738  0.00  0.00    +0.000 A 
ATOM     13  C   UNL     1       7.530   4.954  15.473  0.00  0.00    +0.000 A 
ATOM     14  C   UNL     1       6.779   4.507  14.390  0.00  0.00    +0.000 A 
ATOM     15  C   UNL     1       5.429   4.228  14.558  0.00  0.00    +0.000 A 
ATOM     16  C   UNL     1       4.821   4.429  15.802  0.00  0.00    +0.000 A 
ATOM     17  C   UNL     1       5.559   4.888  16.923  0.00  0.00    +0.000 A 
ENDBRANCH   6   8
ENDBRANCH   1   6
BRANCH   1  18
ATOM     18  N   UNL     1       2.745   6.260  20.402  0.00  0.00    +0.000 N 
ATOM     19  H   UNL     1       2.433   6.269  21.364  0.00  0.00    +0.000 HD
BRANCH  18  20
ATOM     20  C   UNL     1       2.153   7.373  19.719  0.00  0.00    +0.000 A 
ATOM     21  C   UNL     1       2.480   7.610  18.375  0.00  0.00    +0.000 A 
ATOM     22  C   UNL     1       2.046   8.747  17.705  0.00  0.00    +0.000 A 
ATOM     23  C   UNL     1       1.284   9.695  18.370  0.00  0.00    +0.000 A 
ATOM     24  C   UNL     1       0.903   9.496  19.697  0.00  0.00    +0.000 A 
ATOM     25  C   UNL     1       0.110  10.475  20.320  0.00  0.00    +0.000 A 
ATOM     26  C   UNL     1      -0.337  10.311  21.619  0.00  0.00    +0.000 A 
ATOM     27  C   UNL     1       0.002   9.162  22.321  0.00  0.00    +0.000 A 
ATOM     28  C   UNL     1       0.823   8.190  21.722  0.00  0.00    +0.000 A 
ATOM     29  C   UNL     1       1.308   8.319  20.402  0.00  0.00    +0.000 A 
ENDBRANCH  18  20
ENDBRANCH   1  18
TORSDOF 5
ENDMDL
MODEL 3
REMARK VINA RESULT:      -8.0      1.274      6.252
REMARK  Name = 
REMARK  7 active torsions:
REMARK  status: ('A' for Active; 'I' for Inactive)
REMARK    1  A    between atoms: C_1  and  N_2
REMARK    2  A    between atoms: N_2  and  C_3
REMARK    3  A    between atoms: N_2  and  P_4
REMARK    4  A    between atoms: P_4  and  N_6
REMARK    5  A    between atoms: P_4  and  N_17
REMARK    6  A    between atoms: N_6  and  C_7
REMARK    7  A    between atoms: N_17  and  C_18
REMARK                            x       y       z     vdW  Elec       q    Type
REMARK                         _______ _______ _______ _____ _____    ______ ____
ROOT
ATOM      1  P   UNL     1       3.531   3.955  19.634  0.00  0.00    +0.000 P 
ATOM      2  O   UNL     1       2.903   3.246  20.797  0.00  0.00    +0.000 OA
ENDROOT
BRANCH   1   4
ATOM      3  C   UNL     1       1.341   4.162  18.097  0.00  0.00    +0.000 C 
ATOM      4  N   UNL     1       2.722   3.708  18.219  0.00  0.00    +0.000 NA
ATOM      5  C   UNL     1       2.843   2.351  17.677  0.00  0.00    +0.000 C 
ENDBRANCH   1   4
BRANCH   1   6
ATOM      6  N   UNL     1       5.038   3.510  19.144  0.00  0.00    +0.000 N 
ATOM      7  H   UNL     1       5.048   2.587  18.742  0.00  0.00    +0.000 HD
BRANCH   6   8
ATOM      8  C   UNL     1       5.977   4.395  18.559  0.00  0.00    +0.000 A 
ATOM      9  C   UNL     1       6.740   5.223  19.398  0.00  0.00    +0.000 A 
ATOM     10  C   UNL     1       7.481   6.276  18.882  0.00  0.00    +0.000 A 
ATOM     11  C   UNL     1       7.513   6.482  17.514  0.00  0.00    +0.000 A 
ATOM     12  C   UNL     1       6.893   5.584  16.636  0.00  0.00    +0.000 A 
ATOM     13  C   UNL     1       7.026   5.768  15.252  0.00  0.00    +0.000 A 
ATOM     14  C   UNL     1       6.489   4.852  14.353  0.00  0.00    +0.000 A 
ATOM     15  C   UNL     1       5.798   3.745  14.829  0.00  0.00    +0.000 A 
ATOM     16  C   UNL     1       5.614   3.572  16.206  0.00  0.00    +0.000 A 
ATOM     17  C   UNL     1       6.145   4.491  17.146  0.00  0.00    +0.000 A 
ENDBRANCH   6   8
ENDBRANCH   1   6
BRANCH   1  18
ATOM     18  N   UNL     1       3.921   5.554  19.718  0.00  0.00    +0.000 N 
ATOM     19  H   UNL     1       4.102   5.844  20.669  0.00  0.00    +0.000 HD
BRANCH  18  20
ATOM     20  C   UNL     1       3.242   6.616  19.036  0.00  0.00    +0.000 A 
ATOM     21  C   UNL     1       3.626   6.953  17.728  0.00  0.00    +0.000 A 
ATOM     22  C   UNL     1       3.099   8.058  17.072  0.00  0.00    +0.000 A 
ATOM     23  C   UNL     1       2.183   8.876  17.716  0.00  0.00    +0.000 A 
ATOM     24  C   UNL     1       1.742   8.571  19.004  0.00  0.00    +0.000 A 
ATOM     25  C   UNL     1       0.794   9.417  19.604  0.00  0.00    +0.000 A 
ATOM     26  C   UNL     1       0.285   9.140  20.861  0.00  0.00    +0.000 A 
ATOM     27  C   UNL     1       0.717   8.010  21.542  0.00  0.00    +0.000 A 
ATOM     28  C   UNL     1       1.691   7.174  20.968  0.00  0.00    +0.000 A 
ATOM     29  C   UNL     1       2.243   7.421  19.691  0.00  0.00    +0.000 A 
ENDBRANCH  18  20
ENDBRANCH   1  18
TORSDOF 5
ENDMDL
MODEL 4
REMARK VINA RESULT:      -7.8      1.204      1.407
REMARK  Name = 
REMARK  7 active torsions:
REMARK  status: ('A' for Active; 'I' for Inactive)
REMARK    1  A    between atoms: C_1  and  N_2
REMARK    2  A    between atoms: N_2  and  C_3
REMARK    3  A    between atoms: N_2  and  P_4
REMARK    4  A    between atoms: P_4  and  N_6
REMARK    5  A    between atoms: P_4  and  N_17
REMARK    6  A    between atoms: N_6  and  C_7
REMARK    7  A    between atoms: N_17  and  C_18
REMARK                            x       y       z     vdW  Elec       q    Type
REMARK                         _______ _______ _______ _____ _____    ______ ____
ROOT
ATOM      1  P   UNL     1       2.712   5.594  19.014  0.00  0.00    +0.000 P 
ATOM      2  O   UNL     1       1.723   5.148  17.977  0.00  0.00    +0.000 OA
ENDROOT
BRANCH   1   4
ATOM      3  C   UNL     1       3.341   3.062  19.640  0.00  0.00    +0.000 C 
ATOM      4  N   UNL     1       3.069   4.415  20.110  0.00  0.00    +0.000 NA
ATOM      5  C   UNL     1       2.164   4.363  21.263  0.00  0.00    +0.000 C 
ENDBRANCH   1   4
BRANCH   1   6
ATOM      6  N   UNL     1       2.289   6.793  20.059  0.00  0.00    +0.000 N 
ATOM      7  H   UNL     1       2.923   6.856  20.839  0.00  0.00    +0.000 HD
BRANCH   6   8
ATOM      8  C   UNL     1       1.752   8.041  19.660  0.00  0.00    +0.000 A 
ATOM      9  C   UNL     1       1.992   8.494  18.353  0.00  0.00    +0.000 A 
ATOM     10  C   UNL     1       1.715   9.803  17.987  0.00  0.00    +0.000 A 
ATOM     11  C   UNL     1       1.143  10.663  18.908  0.00  0.00    +0.000 A 
ATOM     12  C   UNL     1       0.746  10.204  20.170  0.00  0.00    +0.000 A 
ATOM     13  C   UNL     1       0.082  11.077  21.044  0.00  0.00    +0.000 A 
ATOM     14  C   UNL     1      -0.396  10.633  22.274  0.00  0.00    +0.000 A 
ATOM     15  C   UNL     1      -0.201   9.311  22.650  0.00  0.00    +0.000 A 
ATOM     16  C   UNL     1       0.503   8.440  21.811  0.00  0.00    +0.000 A 
ATOM     17  C   UNL     1       1.006   8.864  20.555  0.00  0.00    +0.000 A 
ENDBRANCH   6   8
ENDBRANCH   1   6
BRANCH   1  18
ATOM     18  N   UNL     1       4.124   6.327  18.586  0.00  0.00    +0.000 N 
ATOM     19  H   UNL     1       3.975   7.054  17.900  0.00  0.00    +0.000 HD
BRANCH  18  20
ATOM     20  C   UNL     1       5.355   5.657  18.282  0.00  0.00    +0.000 A 
ATOM     21  C   UNL     1       6.353   5.570  19.265  0.00  0.00    +0.000 A 
ATOM     22  C   UNL     1       7.613   5.055  18.986  0.00  0.00    +0.000 A 
ATOM     23  C   UNL     1       7.920   4.630  17.702  0.00  0.00    +0.000 A 
ATOM     24  C   UNL     1       6.956   4.665  16.694  0.00  0.00    +0.000 A 
ATOM     25  C   UNL     1       7.308   4.200  15.415  0.00  0.00    +0.000 A 
ATOM     26  C   UNL     1       6.382   4.168  14.387  0.00  0.00    +0.000 A 
ATOM     27  C   UNL     1       5.084   4.601  14.620  0.00  0.00    +0.000 A 
ATOM     28  C   UNL     1       4.727   5.101  15.885  0.00  0.00    +0.000 A 
ATOM     29  C   UNL     1       5.640   5.159  16.961  0.00  0.00    +0.000 A 
ENDBRANCH  18  20
ENDBRANCH   1  18
TORSDOF 5
ENDMDL
MODEL 5
REMARK VINA RESULT:      -7.5      0.679      2.138
REMARK  Name = 
REMARK  7 active torsions:
REMARK  status: ('A' for Active; 'I' for Inactive)
REMARK    1  A    between atoms: C_1  and  N_2
REMARK    2  A    between atoms: N_2  and  C_3
REMARK    3  A    between atoms: N_2  and  P_4
REMARK    4  A    between atoms: P_4  and  N_6
REMARK    5  A    between atoms: P_4  and  N_17
REMARK    6  A    between atoms: N_6  and  C_7
REMARK    7  A    between atoms: N_17  and  C_18
REMARK                            x       y       z     vdW  Elec       q    Type
REMARK                         _______ _______ _______ _____ _____    ______ ____
ROOT
ATOM      1  P   UNL     1       2.502   3.980  19.543  0.00  0.00    +0.000 P 
ATOM      2  O   UNL     1       1.258   3.803  18.722  0.00  0.00    +0.000 OA
ENDROOT
BRANCH   1   4
ATOM      3  C   UNL     1       3.322   2.267  21.439  0.00  0.00    +0.000 C 
ATOM      4  N   UNL     1       2.381   3.309  21.044  0.00  0.00    +0.000 NA
ATOM      5  C   UNL     1       1.021   2.914  21.426  0.00  0.00    +0.000 C 
ENDBRANCH   1   4
BRANCH   1   6
ATOM      6  N   UNL     1       2.963   5.498  19.980  0.00  0.00    +0.000 N 
ATOM      7  H   UNL     1       3.935   5.537  20.242  0.00  0.00    +0.000 HD
BRANCH   6   8
ATOM      8  C   UNL     1       2.494   6.680  19.357  0.00  0.00    +0.000 A 
ATOM      9  C   UNL     1       2.843   6.925  18.019  0.00  0.00    +0.000 A 
ATOM     10  C   UNL     1       2.632   8.167  17.440  0.00  0.00    +0.000 A 
ATOM     11  C   UNL     1       2.018   9.168  18.174  0.00  0.00    +0.000 A 
ATOM     12  C   UNL     1       1.515   8.913  19.457  0.00  0.00    +0.000 A 
ATOM     13  C   UNL     1       0.813   9.919  20.135  0.00  0.00    +0.000 A 
ATOM     14  C   UNL     1       0.233   9.676  21.376  0.00  0.00    +0.000 A 
ATOM     15  C   UNL     1       0.361   8.423  21.961  0.00  0.00    +0.000 A 
ATOM     16  C   UNL     1       1.101   7.423  21.320  0.00  0.00    +0.000 A 
ATOM     17  C   UNL     1       1.707   7.642  20.057  0.00  0.00    +0.000 A 
ENDBRANCH   6   8
ENDBRANCH   1   6
BRANCH   1  18
ATOM     18  N   UNL     1       3.986   3.594  18.938  0.00  0.00    +0.000 N 
ATOM     19  H   UNL     1       4.659   3.432  19.675  0.00  0.00    +0.000 HD
BRANCH  18  20
ATOM     20  C   UNL     1       4.645   4.260  17.854  0.00  0.00    +0.000 A 
ATOM     21  C   UNL     1       4.216   4.029  16.538  0.00  0.00    +0.000 A 
ATOM     22  C   UNL     1       4.901   4.538  15.442  0.00  0.00    +0.000 A 
ATOM     23  C   UNL     1       6.057   5.281  15.632  0.00  0.00    +0.000 A 
ATOM     24  C   UNL     1       6.512   5.568  16.919  0.00  0.00    +0.000 A 
ATOM     25  C   UNL     1       7.675   6.346  17.059  0.00  0.00    +0.000 A 
ATOM     26  C   UNL     1       8.149   6.702  18.309  0.00  0.00    +0.000 A 
ATOM     27  C   UNL     1       7.468   6.285  19.445  0.00  0.00    +0.000 A 
ATOM     28  C   UNL     1       6.323   5.478  19.321  0.00  0.00    +0.000 A 
ATOM     29  C   UNL     1       5.807   5.085  18.066  0.00  0.00    +0.000 A 
ENDBRANCH  18  20
ENDBRANCH   1  18
TORSDOF 5
ENDMDL
MODEL 6
REMARK VINA RESULT:      -7.3      8.000     11.078
REMARK  Name = 
REMARK  7 active torsions:
REMARK  status: ('A' for Active; 'I' for Inactive)
REMARK    1  A    between atoms: C_1  and  N_2
REMARK    2  A    between atoms: N_2  and  C_3
REMARK    3  A    between atoms: N_2  and  P_4
REMARK    4  A    between atoms: P_4  and  N_6
REMARK    5  A    between atoms: P_4  and  N_17
REMARK    6  A    between atoms: N_6  and  C_7
REMARK    7  A    between atoms: N_17  and  C_18
REMARK                            x       y       z     vdW  Elec       q    Type
REMARK                         _______ _______ _______ _____ _____    ______ ____
ROOT
ATOM      1  P   UNL     1      -4.090  13.509  21.723  0.00  0.00    +0.000 P 
ATOM      2  O   UNL     1      -4.262  12.335  22.643  0.00  0.00    +0.000 OA
ENDROOT
BRANCH   1   4
ATOM      3  C   UNL     1      -2.061  15.171  22.289  0.00  0.00    +0.000 C 
ATOM      4  N   UNL     1      -3.466  14.833  22.482  0.00  0.00    +0.000 NA
ATOM      5  C   UNL     1      -3.806  14.935  23.905  0.00  0.00    +0.000 C 
ENDBRANCH   1   4
BRANCH   1   6
ATOM      6  N   UNL     1      -5.425  14.204  21.056  0.00  0.00    +0.000 N 
ATOM      7  H   UNL     1      -5.329  15.203  20.973  0.00  0.00    +0.000 HD
BRANCH   6   8
ATOM      8  C   UNL     1      -6.191  13.618  20.019  0.00  0.00    +0.000 A 
ATOM      9  C   UNL     1      -6.585  12.275  20.145  0.00  0.00    +0.000 A 
ATOM     10  C   UNL     1      -7.110  11.580  19.067  0.00  0.00    +0.000 A 
ATOM     11  C   UNL     1      -7.300  12.232  17.860  0.00  0.00    +0.000 A 
ATOM     12  C   UNL     1      -7.067  13.608  17.742  0.00  0.00    +0.000 A 
ATOM     13  C   UNL     1      -7.362  14.257  16.535  0.00  0.00    +0.000 A 
ATOM     14  C   UNL     1      -7.216  15.635  16.408  0.00  0.00    +0.000 A 
ATOM     15  C   UNL     1      -6.759  16.380  17.487  0.00  0.00    +0.000 A 
ATOM     16  C   UNL     1      -6.414  15.742  18.683  0.00  0.00    +0.000 A 
ATOM     17  C   UNL     1      -6.546  14.339  18.841  0.00  0.00    +0.000 A 
ENDBRANCH   6   8
ENDBRANCH   1   6
BRANCH   1  18
ATOM     18  N   UNL     1      -3.323  13.352  20.274  0.00  0.00    +0.000 N 
ATOM     19  H   UNL     1      -3.934  13.581  19.501  0.00  0.00    +0.000 HD
BRANCH  18  20
ATOM     20  C   UNL     1      -2.486  12.255  19.885  0.00  0.00    +0.000 A 
ATOM     21  C   UNL     1      -1.379  11.917  20.680  0.00  0.00    +0.000 A 
ATOM     22  C   UNL     1      -0.459  10.955  20.283  0.00  0.00    +0.000 A 
ATOM     23  C   UNL     1      -0.607  10.316  19.062  0.00  0.00    +0.000 A 
ATOM     24  C   UNL     1      -1.704  10.590  18.246  0.00  0.00    +0.000 A 
ATOM     25  C   UNL     1      -1.823   9.898  17.028  0.00  0.00    +0.000 A 
ATOM     26  C   UNL     1      -2.913  10.094  16.199  0.00  0.00    +0.000 A 
ATOM     27  C   UNL     1      -3.906  10.989  16.572  0.00  0.00    +0.000 A 
ATOM     28  C   UNL     1      -3.784  11.714  17.771  0.00  0.00    +0.000 A 
ATOM     29  C   UNL     1      -2.686  11.552  18.644  0.00  0.00    +0.000 A 
ENDBRANCH  18  20
ENDBRANCH   1  18
TORSDOF 5
ENDMDL
MODEL 7
REMARK VINA RESULT:      -7.1      3.250      5.290
REMARK  Name = 
REMARK  7 active torsions:
REMARK  status: ('A' for Active; 'I' for Inactive)
REMARK    1  A    between atoms: C_1  and  N_2
REMARK    2  A    between atoms: N_2  and  C_3
REMARK    3  A    between atoms: N_2  and  P_4
REMARK    4  A    between atoms: P_4  and  N_6
REMARK    5  A    between atoms: P_4  and  N_17
REMARK    6  A    between atoms: N_6  and  C_7
REMARK    7  A    between atoms: N_17  and  C_18
REMARK                            x       y       z     vdW  Elec       q    Type
REMARK                         _______ _______ _______ _____ _____    ______ ____
ROOT
ATOM      1  P   UNL     1       0.531   8.623  21.152  0.00  0.00    +0.000 P 
ATOM      2  O   UNL     1      -0.743   7.852  21.333  0.00  0.00    +0.000 OA
ENDROOT
BRANCH   1   4
ATOM      3  C   UNL     1       2.231   9.387  23.083  0.00  0.00    +0.000 C 
ATOM      4  N   UNL     1       0.918   9.540  22.466  0.00  0.00    +0.000 NA
ATOM      5  C   UNL     1      -0.113   9.577  23.508  0.00  0.00    +0.000 C 
ENDBRANCH   1   4
BRANCH   1   6
ATOM      6  N   UNL     1       0.601   9.793  19.997  0.00  0.00    +0.000 N 
ATOM      7  H   UNL     1       0.995   9.452  19.136  0.00  0.00    +0.000 HD
BRANCH   6   8
ATOM      8  C   UNL     1      -0.391  10.787  19.813  0.00  0.00    +0.000 A 
ATOM      9  C   UNL     1      -0.457  11.855  20.723  0.00  0.00    +0.000 A 
ATOM     10  C   UNL     1      -1.549  12.709  20.746  0.00  0.00    +0.000 A 
ATOM     11  C   UNL     1      -2.566  12.543  19.823  0.00  0.00    +0.000 A 
ATOM     12  C   UNL     1      -2.461  11.590  18.802  0.00  0.00    +0.000 A 
ATOM     13  C   UNL     1      -3.465  11.512  17.825  0.00  0.00    +0.000 A 
ATOM     14  C   UNL     1      -3.354  10.631  16.753  0.00  0.00    +0.000 A 
ATOM     15  C   UNL     1      -2.242   9.805  16.654  0.00  0.00    +0.000 A 
ATOM     16  C   UNL     1      -1.256   9.835  17.647  0.00  0.00    +0.000 A 
ATOM     17  C   UNL     1      -1.343  10.719  18.753  0.00  0.00    +0.000 A 
ENDBRANCH   6   8
ENDBRANCH   1   6
BRANCH   1  18
ATOM     18  N   UNL     1       1.909   7.885  20.631  0.00  0.00    +0.000 N 
ATOM     19  H   UNL     1       2.473   8.504  20.065  0.00  0.00    +0.000 HD
BRANCH  18  20
ATOM     20  C   UNL     1       1.993   6.562  20.085  0.00  0.00    +0.000 A 
ATOM     21  C   UNL     1       1.327   5.507  20.728  0.00  0.00    +0.000 A 
ATOM     22  C   UNL     1       1.484   4.187  20.325  0.00  0.00    +0.000 A 
ATOM     23  C   UNL     1       2.334   3.880  19.273  0.00  0.00    +0.000 A 
ATOM     24  C   UNL     1       2.996   4.891  18.578  0.00  0.00    +0.000 A 
ATOM     25  C   UNL     1       3.828   4.531  17.503  0.00  0.00    +0.000 A 
ATOM     26  C   UNL     1       4.475   5.493  16.748  0.00  0.00    +0.000 A 
ATOM     27  C   UNL     1       4.303   6.836  17.054  0.00  0.00    +0.000 A 
ATOM     28  C   UNL     1       3.501   7.210  18.148  0.00  0.00    +0.000 A 
ATOM     29  C   UNL     1       2.828   6.262  18.950  0.00  0.00    +0.000 A 
ENDBRANCH  18  20
ENDBRANCH   1  18
TORSDOF 5
ENDMDL
MODEL 8
REMARK VINA RESULT:      -7.1      7.551      9.967
REMARK  Name = 
REMARK  7 active torsions:
REMARK  status: ('A' for Active; 'I' for Inactive)
REMARK    1  A    between atoms: C_1  and  N_2
REMARK    2  A    between atoms: N_2  and  C_3
REMARK    3  A    between atoms: N_2  and  P_4
REMARK    4  A    between atoms: P_4  and  N_6
REMARK    5  A    between atoms: P_4  and  N_17
REMARK    6  A    between atoms: N_6  and  C_7
REMARK    7  A    between atoms: N_17  and  C_18
REMARK                            x       y       z     vdW  Elec       q    Type
REMARK                         _______ _______ _______ _____ _____    ______ ____
ROOT
ATOM      1  P   UNL     1      -3.522  13.355  22.420  0.00  0.00    +0.000 P 
ATOM      2  O   UNL     1      -4.249  12.156  22.954  0.00  0.00    +0.000 OA
ENDROOT
BRANCH   1   4
ATOM      3  C   UNL     1      -5.796  14.722  22.820  0.00  0.00    +0.000 C 
ATOM      4  N   UNL     1      -4.348  14.763  22.654  0.00  0.00    +0.000 NA
ATOM      5  C   UNL     1      -3.990  15.840  21.726  0.00  0.00    +0.000 C 
ENDBRANCH   1   4
BRANCH   1   6
ATOM      6  N   UNL     1      -3.264  13.479  20.800  0.00  0.00    +0.000 N 
ATOM      7  H   UNL     1      -2.291  13.616  20.581  0.00  0.00    +0.000 HD
BRANCH   6   8
ATOM      8  C   UNL     1      -3.966  12.728  19.824  0.00  0.00    +0.000 A 
ATOM      9  C   UNL     1      -5.361  12.864  19.741  0.00  0.00    +0.000 A 
ATOM     10  C   UNL     1      -6.122  11.980  18.991  0.00  0.00    +0.000 A 
ATOM     11  C   UNL     1      -5.494  10.980  18.269  0.00  0.00    +0.000 A 
ATOM     12  C   UNL     1      -4.097  10.911  18.203  0.00  0.00    +0.000 A 
ATOM     13  C   UNL     1      -3.492   9.945  17.385  0.00  0.00    +0.000 A 
ATOM     14  C   UNL     1      -2.109   9.899  17.234  0.00  0.00    +0.000 A 
ATOM     15  C   UNL     1      -1.312  10.811  17.914  0.00  0.00    +0.000 A 
ATOM     16  C   UNL     1      -1.897  11.749  18.772  0.00  0.00    +0.000 A 
ATOM     17  C   UNL     1      -3.302  11.818  18.950  0.00  0.00    +0.000 A 
ENDBRANCH   6   8
ENDBRANCH   1   6
BRANCH   1  18
ATOM     18  N   UNL     1      -1.942  13.632  22.795  0.00  0.00    +0.000 N 
ATOM     19  H   UNL     1      -1.775  14.604  23.014  0.00  0.00    +0.000 HD
BRANCH  18  20
ATOM     20  C   UNL     1      -0.810  13.123  22.076  0.00  0.00    +0.000 A 
ATOM     21  C   UNL     1      -0.094  13.978  21.224  0.00  0.00    +0.000 A 
ATOM     22  C   UNL     1       0.922  13.510  20.401  0.00  0.00    +0.000 A 
ATOM     23  C   UNL     1       1.240  12.160  20.391  0.00  0.00    +0.000 A 
ATOM     24  C   UNL     1       0.582  11.270  21.241  0.00  0.00    +0.000 A 
ATOM     25  C   UNL     1       0.956   9.916  21.211  0.00  0.00    +0.000 A 
ATOM     26  C   UNL     1       0.371   8.995  22.062  0.00  0.00    +0.000 A 
ATOM     27  C   UNL     1      -0.601   9.412  22.961  0.00  0.00    +0.000 A 
ATOM     28  C   UNL     1      -1.010  10.758  22.978  0.00  0.00    +0.000 A 
ATOM     29  C   UNL     1      -0.447  11.731  22.122  0.00  0.00    +0.000 A 
ENDBRANCH  18  20
ENDBRANCH   1  18
TORSDOF 5
ENDMDL
MODEL 9
REMARK VINA RESULT:      -7.1      7.278     10.187
REMARK  Name = 
REMARK  7 active torsions:
REMARK  status: ('A' for Active; 'I' for Inactive)
REMARK    1  A    between atoms: C_1  and  N_2
REMARK    2  A    between atoms: N_2  and  C_3
REMARK    3  A    between atoms: N_2  and  P_4
REMARK    4  A    between atoms: P_4  and  N_6
REMARK    5  A    between atoms: P_4  and  N_17
REMARK    6  A    between atoms: N_6  and  C_7
REMARK    7  A    between atoms: N_17  and  C_18
REMARK                            x       y       z     vdW  Elec       q    Type
REMARK                         _______ _______ _______ _____ _____    ______ ____
ROOT
ATOM      1  P   UNL     1      -2.993  14.056  21.626  0.00  0.00    +0.000 P 
ATOM      2  O   UNL     1      -2.930  15.306  20.798  0.00  0.00    +0.000 OA
ENDROOT
BRANCH   1   4
ATOM      3  C   UNL     1      -4.533  13.141  23.624  0.00  0.00    +0.000 C 
ATOM      4  N   UNL     1      -3.811  14.266  23.042  0.00  0.00    +0.000 NA
ATOM      5  C   UNL     1      -4.654  15.466  23.086  0.00  0.00    +0.000 C 
ENDBRANCH   1   4
BRANCH   1   6
ATOM      6  N   UNL     1      -1.598  13.426  22.231  0.00  0.00    +0.000 N 
ATOM      7  H   UNL     1      -1.740  12.977  23.120  0.00  0.00    +0.000 HD
BRANCH   6   8
ATOM      8  C   UNL     1      -0.594  12.816  21.440  0.00  0.00    +0.000 A 
ATOM      9  C   UNL     1       0.112  13.603  20.516  0.00  0.00    +0.000 A 
ATOM     10  C   UNL     1       0.917  13.023  19.548  0.00  0.00    +0.000 A 
ATOM     11  C   UNL     1       1.070  11.647  19.522  0.00  0.00    +0.000 A 
ATOM     12  C   UNL     1       0.507  10.843  20.521  0.00  0.00    +0.000 A 
ATOM     13  C   UNL     1       0.762   9.463  20.520  0.00  0.00    +0.000 A 
ATOM     14  C   UNL     1       0.284   8.647  21.541  0.00  0.00    +0.000 A 
ATOM     15  C   UNL     1      -0.468   9.200  22.569  0.00  0.00    +0.000 A 
ATOM     16  C   UNL     1      -0.772  10.566  22.559  0.00  0.00    +0.000 A 
ATOM     17  C   UNL     1      -0.304  11.422  21.530  0.00  0.00    +0.000 A 
ENDBRANCH   6   8
ENDBRANCH   1   6
BRANCH   1  18
ATOM     18  N   UNL     1      -3.477  12.623  20.974  0.00  0.00    +0.000 N 
ATOM     19  H   UNL     1      -2.740  11.932  21.003  0.00  0.00    +0.000 HD
BRANCH  18  20
ATOM     20  C   UNL     1      -4.203  12.465  19.748  0.00  0.00    +0.000 A 
ATOM     21  C   UNL     1      -5.512  12.964  19.653  0.00  0.00    +0.000 A 
ATOM     22  C   UNL     1      -6.310  12.721  18.542  0.00  0.00    +0.000 A 
ATOM     23  C   UNL     1      -5.825  11.950  17.496  0.00  0.00    +0.000 A 
ATOM     24  C   UNL     1      -4.521  11.455  17.523  0.00  0.00    +0.000 A 
ATOM     25  C   UNL     1      -4.069  10.699  16.428  0.00  0.00    +0.000 A 
ATOM     26  C   UNL     1      -2.771  10.221  16.378  0.00  0.00    +0.000 A 
ATOM     27  C   UNL     1      -1.900  10.491  17.425  0.00  0.00    +0.000 A 
ATOM     28  C   UNL     1      -2.349  11.217  18.543  0.00  0.00    +0.000 A 
ATOM     29  C   UNL     1      -3.667  11.718  18.640  0.00  0.00    +0.000 A 
ENDBRANCH  18  20
ENDBRANCH   1  18
TORSDOF 5
ENDMDL
