MODEL 1
REMARK VINA RESULT:      -6.6      0.000      0.000
REMARK  Name = 
REMARK  7 active torsions:
REMARK  status: ('A' for Active; 'I' for Inactive)
REMARK    1  A    between atoms: C_1  and  O_2
REMARK    2  A    between atoms: O_2  and  C_3
REMARK    3  A    between atoms: C_3  and  C_4
REMARK    4  A    between atoms: C_4  and  N_5
REMARK    5  A    between atoms: C_6  and  C_8
REMARK    6  A    between atoms: C_8  and  C_9
REMARK    7  A    between atoms: C_8  and  N_10
REMARK                            x       y       z     vdW  Elec       q    Type
REMARK                         _______ _______ _______ _____ _____    ______ ____
ROOT
ATOM      1  N   UNL     1       4.810   4.576  17.391  0.00  0.00    +0.000 N 
ATOM      2  C   UNL     1       5.054   3.957  18.601  0.00  0.00    +0.000 C 
ATOM      3  O   UNL     1       6.112   4.108  19.212  0.00  0.00    +0.000 OA
ATOM      4  H   UNL     1       4.048   4.233  16.820  0.00  0.00    +0.000 HD
ENDROOT
BRANCH   1   5
ATOM      5  C   UNL     1       5.825   5.402  16.695  0.00  0.00    +0.000 C 
ATOM      6  C   UNL     1       5.315   5.907  15.332  0.00  0.00    +0.000 C 
ATOM      7  C   UNL     1       5.474   4.718  14.391  0.00  0.00    +0.000 C 
ATOM      8  C   UNL     1       6.695   3.957  14.897  0.00  0.00    +0.000 C 
ATOM      9  C   UNL     1       7.026   4.525  16.276  0.00  0.00    +0.000 C 
BRANCH   5  10
ATOM     10  C   UNL     1       6.305   6.572  17.589  0.00  0.00    +0.000 C 
BRANCH  10  12
ATOM     11  C   UNL     1       7.825   8.365  17.708  0.00  0.00    +0.000 C 
ATOM     12  O   UNL     1       7.231   7.391  16.860  0.00  0.00    +0.000 OA
ENDBRANCH  10  12
ENDBRANCH   5  10
ENDBRANCH   1   5
BRANCH   2  13
ATOM     13  C   UNL     1       3.998   2.999  19.155  0.00  0.00    +0.000 C 
ATOM     14  C   UNL     1       3.638   1.930  18.128  0.00  0.00    +0.000 C 
BRANCH  13  15
ATOM     15  N   UNL     1       2.850   3.669  19.753  0.00  0.00    +0.000 N 
ATOM     16  C   UNL     1       1.589   3.141  19.846  0.00  0.00    +0.000 A 
ATOM     17  C   UNL     1       0.826   4.128  20.421  0.00  0.00    +0.000 A 
ATOM     18  N   UNL     1       1.588   5.235  20.685  0.00  0.00    +0.000 NA
ATOM     19  C   UNL     1       2.795   4.936  20.264  0.00  0.00    +0.000 A 
ENDBRANCH  13  15
ENDBRANCH   2  13
TORSDOF 5
ENDMDL
MODEL 2
REMARK VINA RESULT:      -6.6      0.812      1.001
REMARK  Name = 
REMARK  7 active torsions:
REMARK  status: ('A' for Active; 'I' for Inactive)
REMARK    1  A    between atoms: C_1  and  O_2
REMARK    2  A    between atoms: O_2  and  C_3
REMARK    3  A    between atoms: C_3  and  C_4
REMARK    4  A    between atoms: C_4  and  N_5
REMARK    5  A    between atoms: C_6  and  C_8
REMARK    6  A    between atoms: C_8  and  C_9
REMARK    7  A    between atoms: C_8  and  N_10
REMARK                            x       y       z     vdW  Elec       q    Type
REMARK                         _______ _______ _______ _____ _____    ______ ____
ROOT
ATOM      1  N   UNL     1       4.849   4.510  17.275  0.00  0.00    +0.000 N 
ATOM      2  C   UNL     1       5.154   3.905  18.479  0.00  0.00    +0.000 C 
ATOM      3  O   UNL     1       6.203   4.135  19.080  0.00  0.00    +0.000 OA
ATOM      4  H   UNL     1       4.110   4.111  16.710  0.00  0.00    +0.000 HD
ENDROOT
BRANCH   1   5
ATOM      5  C   UNL     1       5.787   5.418  16.575  0.00  0.00    +0.000 C 
ATOM      6  C   UNL     1       5.235   5.872  15.211  0.00  0.00    +0.000 C 
ATOM      7  C   UNL     1       5.495   4.698  14.274  0.00  0.00    +0.000 C 
ATOM      8  C   UNL     1       6.777   4.047  14.780  0.00  0.00    +0.000 C 
ATOM      9  C   UNL     1       7.059   4.646  16.157  0.00  0.00    +0.000 C 
BRANCH   5  10
ATOM     10  C   UNL     1       6.167   6.627  17.464  0.00  0.00    +0.000 C 
BRANCH  10  12
ATOM     11  C   UNL     1       7.731   8.363  17.746  0.00  0.00    +0.000 C 
ATOM     12  O   UNL     1       7.419   7.176  17.028  0.00  0.00    +0.000 OA
ENDBRANCH  10  12
ENDBRANCH   5  10
ENDBRANCH   1   5
BRANCH   2  13
ATOM     13  C   UNL     1       4.183   2.863  19.036  0.00  0.00    +0.000 C 
ATOM     14  C   UNL     1       3.471   2.120  17.909  0.00  0.00    +0.000 C 
BRANCH  13  15
ATOM     15  N   UNL     1       3.294   3.379  20.070  0.00  0.00    +0.000 N 
ATOM     16  C   UNL     1       2.829   4.666  20.141  0.00  0.00    +0.000 A 
ATOM     17  C   UNL     1       2.081   4.716  21.292  0.00  0.00    +0.000 A 
ATOM     18  N   UNL     1       2.072   3.497  21.916  0.00  0.00    +0.000 NA
ATOM     19  C   UNL     1       2.817   2.717  21.167  0.00  0.00    +0.000 A 
ENDBRANCH  13  15
ENDBRANCH   2  13
TORSDOF 5
ENDMDL
MODEL 3
REMARK VINA RESULT:      -6.6      1.860      3.273
REMARK  Name = 
REMARK  7 active torsions:
REMARK  status: ('A' for Active; 'I' for Inactive)
REMARK    1  A    between atoms: C_1  and  O_2
REMARK    2  A    between atoms: O_2  and  C_3
REMARK    3  A    between atoms: C_3  and  C_4
REMARK    4  A    between atoms: C_4  and  N_5
REMARK    5  A    between atoms: C_6  and  C_8
REMARK    6  A    between atoms: C_8  and  C_9
REMARK    7  A    between atoms: C_8  and  N_10
REMARK                            x       y       z     vdW  Elec       q    Type
REMARK                         _______ _______ _______ _____ _____    ______ ____
ROOT
ATOM      1  N   UNL     1       4.967   6.119  17.637  0.00  0.00    +0.000 N 
ATOM      2  C   UNL     1       3.931   5.207  17.584  0.00  0.00    +0.000 C 
ATOM      3  O   UNL     1       4.050   4.112  17.035  0.00  0.00    +0.000 OA
ATOM      4  H   UNL     1       4.751   7.079  17.872  0.00  0.00    +0.000 HD
ENDROOT
BRANCH   1   5
ATOM      5  C   UNL     1       6.272   5.888  16.974  0.00  0.00    +0.000 C 
ATOM      6  C   UNL     1       7.076   4.771  17.664  0.00  0.00    +0.000 C 
ATOM      7  C   UNL     1       7.690   5.435  18.892  0.00  0.00    +0.000 C 
ATOM      8  C   UNL     1       7.940   6.884  18.492  0.00  0.00    +0.000 C 
ATOM      9  C   UNL     1       7.194   7.111  17.179  0.00  0.00    +0.000 C 
BRANCH   5  10
ATOM     10  C   UNL     1       6.090   5.604  15.462  0.00  0.00    +0.000 C 
BRANCH  10  12
ATOM     11  C   UNL     1       6.253   3.819  13.937  0.00  0.00    +0.000 C 
ATOM     12  O   UNL     1       6.808   4.415  15.103  0.00  0.00    +0.000 OA
ENDBRANCH  10  12
ENDBRANCH   5  10
ENDBRANCH   1   5
BRANCH   2  13
ATOM     13  C   UNL     1       2.575   5.611  18.165  0.00  0.00    +0.000 C 
ATOM     14  C   UNL     1       2.536   7.105  18.476  0.00  0.00    +0.000 C 
BRANCH  13  15
ATOM     15  N   UNL     1       2.125   4.759  19.259  0.00  0.00    +0.000 N 
ATOM     16  C   UNL     1       2.574   4.831  20.552  0.00  0.00    +0.000 A 
ATOM     17  C   UNL     1       1.927   3.816  21.215  0.00  0.00    +0.000 A 
ATOM     18  N   UNL     1       1.095   3.137  20.365  0.00  0.00    +0.000 NA
ATOM     19  C   UNL     1       1.242   3.716  19.196  0.00  0.00    +0.000 A 
ENDBRANCH  13  15
ENDBRANCH   2  13
TORSDOF 5
ENDMDL
MODEL 4
REMARK VINA RESULT:      -6.4      2.184      6.166
REMARK  Name = 
REMARK  7 active torsions:
REMARK  status: ('A' for Active; 'I' for Inactive)
REMARK    1  A    between atoms: C_1  and  O_2
REMARK    2  A    between atoms: O_2  and  C_3
REMARK    3  A    between atoms: C_3  and  C_4
REMARK    4  A    between atoms: C_4  and  N_5
REMARK    5  A    between atoms: C_6  and  C_8
REMARK    6  A    between atoms: C_8  and  C_9
REMARK    7  A    between atoms: C_8  and  N_10
REMARK                            x       y       z     vdW  Elec       q    Type
REMARK                         _______ _______ _______ _____ _____    ______ ____
ROOT
ATOM      1  N   UNL     1       3.872   3.837  19.530  0.00  0.00    +0.000 N 
ATOM      2  C   UNL     1       4.240   3.993  18.209  0.00  0.00    +0.000 C 
ATOM      3  O   UNL     1       4.110   3.090  17.382  0.00  0.00    +0.000 OA
ATOM      4  H   UNL     1       4.221   4.502  20.209  0.00  0.00    +0.000 HD
ENDROOT
BRANCH   1   5
ATOM      5  C   UNL     1       3.368   2.554  20.076  0.00  0.00    +0.000 C 
ATOM      6  C   UNL     1       2.165   2.024  19.275  0.00  0.00    +0.000 C 
ATOM      7  C   UNL     1       0.975   2.834  19.776  0.00  0.00    +0.000 C 
ATOM      8  C   UNL     1       1.274   3.138  21.239  0.00  0.00    +0.000 C 
ATOM      9  C   UNL     1       2.742   2.781  21.470  0.00  0.00    +0.000 C 
BRANCH   5  10
ATOM     10  C   UNL     1       4.499   1.500  20.165  0.00  0.00    +0.000 C 
BRANCH  10  12
ATOM     11  C   UNL     1       5.802   0.398  21.787  0.00  0.00    +0.000 C 
ATOM     12  O   UNL     1       5.179   1.623  21.423  0.00  0.00    +0.000 OA
ENDBRANCH  10  12
ENDBRANCH   5  10
ENDBRANCH   1   5
BRANCH   2  13
ATOM     13  C   UNL     1       4.896   5.308  17.786  0.00  0.00    +0.000 C 
ATOM     14  C   UNL     1       3.849   6.399  17.578  0.00  0.00    +0.000 C 
BRANCH  13  15
ATOM     15  N   UNL     1       5.844   5.168  16.686  0.00  0.00    +0.000 N 
ATOM     16  C   UNL     1       5.557   5.390  15.365  0.00  0.00    +0.000 A 
ATOM     17  C   UNL     1       6.714   5.087  14.689  0.00  0.00    +0.000 A 
ATOM     18  N   UNL     1       7.695   4.695  15.562  0.00  0.00    +0.000 NA
ATOM     19  C   UNL     1       7.141   4.742  16.752  0.00  0.00    +0.000 A 
ENDBRANCH  13  15
ENDBRANCH   2  13
TORSDOF 5
ENDMDL
MODEL 5
REMARK VINA RESULT:      -6.4      1.680      3.039
REMARK  Name = 
REMARK  7 active torsions:
REMARK  status: ('A' for Active; 'I' for Inactive)
REMARK    1  A    between atoms: C_1  and  O_2
REMARK    2  A    between atoms: O_2  and  C_3
REMARK    3  A    between atoms: C_3  and  C_4
REMARK    4  A    between atoms: C_4  and  N_5
REMARK    5  A    between atoms: C_6  and  C_8
REMARK    6  A    between atoms: C_8  and  C_9
REMARK    7  A    between atoms: C_8  and  N_10
REMARK                            x       y       z     vdW  Elec       q    Type
REMARK                         _______ _______ _______ _____ _____    ______ ____
ROOT
ATOM      1  N   UNL     1       5.050   5.421  17.563  0.00  0.00    +0.000 N 
ATOM      2  C   UNL     1       4.195   4.390  17.899  0.00  0.00    +0.000 C 
ATOM      3  O   UNL     1       4.547   3.211  17.864  0.00  0.00    +0.000 OA
ATOM      4  H   UNL     1       4.654   6.332  17.370  0.00  0.00    +0.000 HD
ENDROOT
BRANCH   1   5
ATOM      5  C   UNL     1       6.426   5.190  17.061  0.00  0.00    +0.000 C 
ATOM      6  C   UNL     1       7.389   4.787  18.193  0.00  0.00    +0.000 C 
ATOM      7  C   UNL     1       7.742   6.097  18.889  0.00  0.00    +0.000 C 
ATOM      8  C   UNL     1       7.710   7.161  17.799  0.00  0.00    +0.000 C 
ATOM      9  C   UNL     1       7.045   6.522  16.581  0.00  0.00    +0.000 C 
BRANCH   5  10
ATOM     10  C   UNL     1       6.437   4.153  15.912  0.00  0.00    +0.000 C 
BRANCH  10  12
ATOM     11  C   UNL     1       6.132   3.923  13.589  0.00  0.00    +0.000 C 
ATOM     12  O   UNL     1       5.874   4.736  14.727  0.00  0.00    +0.000 OA
ENDBRANCH  10  12
ENDBRANCH   5  10
ENDBRANCH   1   5
BRANCH   2  13
ATOM     13  C   UNL     1       2.747   4.731  18.253  0.00  0.00    +0.000 C 
ATOM     14  C   UNL     1       2.508   6.237  18.184  0.00  0.00    +0.000 C 
BRANCH  13  15
ATOM     15  N   UNL     1       2.277   4.104  19.482  0.00  0.00    +0.000 N 
ATOM     16  C   UNL     1       1.336   3.110  19.551  0.00  0.00    +0.000 A 
ATOM     17  C   UNL     1       1.165   2.868  20.892  0.00  0.00    +0.000 A 
ATOM     18  N   UNL     1       1.980   3.679  21.637  0.00  0.00    +0.000 NA
ATOM     19  C   UNL     1       2.627   4.418  20.766  0.00  0.00    +0.000 A 
ENDBRANCH  13  15
ENDBRANCH   2  13
TORSDOF 5
ENDMDL
MODEL 6
REMARK VINA RESULT:      -6.3      2.311      5.834
REMARK  Name = 
REMARK  7 active torsions:
REMARK  status: ('A' for Active; 'I' for Inactive)
REMARK    1  A    between atoms: C_1  and  O_2
REMARK    2  A    between atoms: O_2  and  C_3
REMARK    3  A    between atoms: C_3  and  C_4
REMARK    4  A    between atoms: C_4  and  N_5
REMARK    5  A    between atoms: C_6  and  C_8
REMARK    6  A    between atoms: C_8  and  C_9
REMARK    7  A    between atoms: C_8  and  N_10
REMARK                            x       y       z     vdW  Elec       q    Type
REMARK                         _______ _______ _______ _____ _____    ______ ____
ROOT
ATOM      1  N   UNL     1       3.948   4.761  19.463  0.00  0.00    +0.000 N 
ATOM      2  C   UNL     1       4.621   5.308  18.389  0.00  0.00    +0.000 C 
ATOM      3  O   UNL     1       4.103   6.144  17.649  0.00  0.00    +0.000 OA
ATOM      4  H   UNL     1       4.315   3.916  19.881  0.00  0.00    +0.000 HD
ENDROOT
BRANCH   1   5
ATOM      5  C   UNL     1       2.530   5.073  19.763  0.00  0.00    +0.000 C 
ATOM      6  C   UNL     1       2.065   4.419  21.077  0.00  0.00    +0.000 C 
ATOM      7  C   UNL     1       1.785   2.966  20.713  0.00  0.00    +0.000 C 
ATOM      8  C   UNL     1       1.303   2.992  19.267  0.00  0.00    +0.000 C 
ATOM      9  C   UNL     1       1.607   4.389  18.729  0.00  0.00    +0.000 C 
BRANCH   5  10
ATOM     10  C   UNL     1       2.282   6.601  19.771  0.00  0.00    +0.000 C 
BRANCH  10  12
ATOM     11  C   UNL     1       1.324   8.363  21.004  0.00  0.00    +0.000 C 
ATOM     12  O   UNL     1       1.449   6.951  20.886  0.00  0.00    +0.000 OA
ENDBRANCH  10  12
ENDBRANCH   5  10
ENDBRANCH   1   5
BRANCH   2  13
ATOM     13  C   UNL     1       6.029   4.798  18.076  0.00  0.00    +0.000 C 
ATOM     14  C   UNL     1       7.075   5.536  18.907  0.00  0.00    +0.000 C 
BRANCH  13  15
ATOM     15  N   UNL     1       6.330   4.734  16.651  0.00  0.00    +0.000 N 
ATOM     16  C   UNL     1       5.863   3.778  15.788  0.00  0.00    +0.000 A 
ATOM     17  C   UNL     1       6.438   4.074  14.576  0.00  0.00    +0.000 A 
ATOM     18  N   UNL     1       7.233   5.185  14.677  0.00  0.00    +0.000 NA
ATOM     19  C   UNL     1       7.158   5.554  15.935  0.00  0.00    +0.000 A 
ENDBRANCH  13  15
ENDBRANCH   2  13
TORSDOF 5
ENDMDL
MODEL 7
REMARK VINA RESULT:      -6.3      1.651      1.868
REMARK  Name = 
REMARK  7 active torsions:
REMARK  status: ('A' for Active; 'I' for Inactive)
REMARK    1  A    between atoms: C_1  and  O_2
REMARK    2  A    between atoms: O_2  and  C_3
REMARK    3  A    between atoms: C_3  and  C_4
REMARK    4  A    between atoms: C_4  and  N_5
REMARK    5  A    between atoms: C_6  and  C_8
REMARK    6  A    between atoms: C_8  and  C_9
REMARK    7  A    between atoms: C_8  and  N_10
REMARK                            x       y       z     vdW  Elec       q    Type
REMARK                         _______ _______ _______ _____ _____    ______ ____
ROOT
ATOM      1  N   UNL     1       4.731   4.123  17.520  0.00  0.00    +0.000 N 
ATOM      2  C   UNL     1       3.516   4.552  18.019  0.00  0.00    +0.000 C 
ATOM      3  O   UNL     1       3.298   5.735  18.281  0.00  0.00    +0.000 OA
ATOM      4  H   UNL     1       4.943   3.134  17.556  0.00  0.00    +0.000 HD
ENDROOT
BRANCH   1   5
ATOM      5  C   UNL     1       5.887   5.031  17.336  0.00  0.00    +0.000 C 
ATOM      6  C   UNL     1       5.561   6.187  16.374  0.00  0.00    +0.000 C 
ATOM      7  C   UNL     1       5.673   5.579  14.980  0.00  0.00    +0.000 C 
ATOM      8  C   UNL     1       6.753   4.508  15.088  0.00  0.00    +0.000 C 
ATOM      9  C   UNL     1       7.019   4.300  16.577  0.00  0.00    +0.000 C 
BRANCH   5  10
ATOM     10  C   UNL     1       6.410   5.556  18.696  0.00  0.00    +0.000 C 
BRANCH  10  12
ATOM     11  C   UNL     1       8.125   7.167  18.613  0.00  0.00    +0.000 C 
ATOM     12  O   UNL     1       7.826   5.776  18.618  0.00  0.00    +0.000 OA
ENDBRANCH  10  12
ENDBRANCH   5  10
ENDBRANCH   1   5
BRANCH   2  13
ATOM     13  C   UNL     1       2.442   3.506  18.319  0.00  0.00    +0.000 C 
ATOM     14  C   UNL     1       1.118   3.877  17.656  0.00  0.00    +0.000 C 
BRANCH  13  15
ATOM     15  N   UNL     1       2.331   3.164  19.732  0.00  0.00    +0.000 N 
ATOM     16  C   UNL     1       1.194   3.288  20.487  0.00  0.00    +0.000 A 
ATOM     17  C   UNL     1       1.560   2.909  21.755  0.00  0.00    +0.000 A 
ATOM     18  N   UNL     1       2.882   2.551  21.790  0.00  0.00    +0.000 NA
ATOM     19  C   UNL     1       3.322   2.725  20.565  0.00  0.00    +0.000 A 
ENDBRANCH  13  15
ENDBRANCH   2  13
TORSDOF 5
ENDMDL
MODEL 8
REMARK VINA RESULT:      -6.3      2.001      5.713
REMARK  Name = 
REMARK  7 active torsions:
REMARK  status: ('A' for Active; 'I' for Inactive)
REMARK    1  A    between atoms: C_1  and  O_2
REMARK    2  A    between atoms: O_2  and  C_3
REMARK    3  A    between atoms: C_3  and  C_4
REMARK    4  A    between atoms: C_4  and  N_5
REMARK    5  A    between atoms: C_6  and  C_8
REMARK    6  A    between atoms: C_8  and  C_9
REMARK    7  A    between atoms: C_8  and  N_10
REMARK                            x       y       z     vdW  Elec       q    Type
REMARK                         _______ _______ _______ _____ _____    ______ ____
ROOT
ATOM      1  N   UNL     1       4.748   3.478  18.552  0.00  0.00    +0.000 N 
ATOM      2  C   UNL     1       5.523   4.563  18.912  0.00  0.00    +0.000 C 
ATOM      3  O   UNL     1       5.176   5.352  19.792  0.00  0.00    +0.000 OA
ATOM      4  H   UNL     1       4.948   3.014  17.676  0.00  0.00    +0.000 HD
ENDROOT
BRANCH   1   5
ATOM      5  C   UNL     1       3.410   3.221  19.135  0.00  0.00    +0.000 C 
ATOM      6  C   UNL     1       2.566   2.290  18.245  0.00  0.00    +0.000 C 
ATOM      7  C   UNL     1       2.033   3.189  17.135  0.00  0.00    +0.000 C 
ATOM      8  C   UNL     1       1.854   4.562  17.771  0.00  0.00    +0.000 C 
ATOM      9  C   UNL     1       2.568   4.517  19.121  0.00  0.00    +0.000 C 
BRANCH   5  10
ATOM     10  C   UNL     1       3.523   2.675  20.580  0.00  0.00    +0.000 C 
BRANCH  10  12
ATOM     11  C   UNL     1       1.525   2.496  21.812  0.00  0.00    +0.000 C 
ATOM     12  O   UNL     1       2.590   3.357  21.431  0.00  0.00    +0.000 OA
ENDBRANCH  10  12
ENDBRANCH   5  10
ENDBRANCH   1   5
BRANCH   2  13
ATOM     13  C   UNL     1       6.814   4.825  18.136  0.00  0.00    +0.000 C 
ATOM     14  C   UNL     1       7.657   5.897  18.822  0.00  0.00    +0.000 C 
BRANCH  13  15
ATOM     15  N   UNL     1       6.612   5.042  16.709  0.00  0.00    +0.000 N 
ATOM     16  C   UNL     1       7.228   4.338  15.708  0.00  0.00    +0.000 A 
ATOM     17  C   UNL     1       6.788   4.911  14.540  0.00  0.00    +0.000 A 
ATOM     18  N   UNL     1       5.918   5.935  14.802  0.00  0.00    +0.000 NA
ATOM     19  C   UNL     1       5.840   5.999  16.112  0.00  0.00    +0.000 A 
ENDBRANCH  13  15
ENDBRANCH   2  13
TORSDOF 5
ENDMDL
MODEL 9
REMARK VINA RESULT:      -6.2      1.655      2.026
REMARK  Name = 
REMARK  7 active torsions:
REMARK  status: ('A' for Active; 'I' for Inactive)
REMARK    1  A    between atoms: C_1  and  O_2
REMARK    2  A    between atoms: O_2  and  C_3
REMARK    3  A    between atoms: C_3  and  C_4
REMARK    4  A    between atoms: C_4  and  N_5
REMARK    5  A    between atoms: C_6  and  C_8
REMARK    6  A    between atoms: C_8  and  C_9
REMARK    7  A    between atoms: C_8  and  N_10
REMARK                            x       y       z     vdW  Elec       q    Type
REMARK                         _______ _______ _______ _____ _____    ______ ____
ROOT
ATOM      1  N   UNL     1       4.443   4.256  17.509  0.00  0.00    +0.000 N 
ATOM      2  C   UNL     1       4.736   3.748  18.760  0.00  0.00    +0.000 C 
ATOM      3  O   UNL     1       5.582   4.261  19.492  0.00  0.00    +0.000 OA
ATOM      4  H   UNL     1       3.934   3.670  16.859  0.00  0.00    +0.000 HD
ENDROOT
BRANCH   1   5
ATOM      5  C   UNL     1       5.173   5.402  16.919  0.00  0.00    +0.000 C 
ATOM      6  C   UNL     1       5.259   5.298  15.385  0.00  0.00    +0.000 C 
ATOM      7  C   UNL     1       6.383   4.302  15.123  0.00  0.00    +0.000 C 
ATOM      8  C   UNL     1       7.370   4.489  16.270  0.00  0.00    +0.000 C 
ATOM      9  C   UNL     1       6.664   5.344  17.321  0.00  0.00    +0.000 C 
BRANCH   5  10
ATOM     10  C   UNL     1       4.553   6.750  17.362  0.00  0.00    +0.000 C 
BRANCH  10  12
ATOM     11  C   UNL     1       2.624   7.727  18.292  0.00  0.00    +0.000 C 
ATOM     12  O   UNL     1       3.164   6.567  17.671  0.00  0.00    +0.000 OA
ENDBRANCH  10  12
ENDBRANCH   5  10
ENDBRANCH   1   5
BRANCH   2  13
ATOM     13  C   UNL     1       4.033   2.466  19.208  0.00  0.00    +0.000 C 
ATOM     14  C   UNL     1       3.698   1.580  18.012  0.00  0.00    +0.000 C 
BRANCH  13  15
ATOM     15  N   UNL     1       2.917   2.693  20.119  0.00  0.00    +0.000 N 
ATOM     16  C   UNL     1       1.699   3.210  19.762  0.00  0.00    +0.000 A 
ATOM     17  C   UNL     1       0.988   3.299  20.933  0.00  0.00    +0.000 A 
ATOM     18  N   UNL     1       1.735   2.845  21.988  0.00  0.00    +0.000 NA
ATOM     19  C   UNL     1       2.892   2.499  21.472  0.00  0.00    +0.000 A 
ENDBRANCH  13  15
ENDBRANCH   2  13
TORSDOF 5
ENDMDL
