MODEL 1
REMARK VINA RESULT:      -5.9      0.000      0.000
REMARK  Name = 
REMARK  8 active torsions:
REMARK  status: ('A' for Active; 'I' for Inactive)
REMARK    1  A    between atoms: C_1  and  C_2
REMARK    2  A    between atoms: C_2  and  C_3
REMARK    3  A    between atoms: C_2  and  C_4
REMARK    4  A    between atoms: C_7  and  N_8
REMARK    5  A    between atoms: N_11  and  C_12
REMARK    6  A    between atoms: N_11  and  C_13
REMARK    7  A    between atoms: C_16  and  C_17
REMARK    8  A    between atoms: C_17  and  O_18
REMARK                            x       y       z     vdW  Elec       q    Type
REMARK                         _______ _______ _______ _____ _____    ______ ____
ROOT
ATOM      1  N   UNL     1       2.316   7.458  19.095  0.00  0.00    +0.000 N 
ATOM      2  C   UNL     1       1.940   8.638  18.517  0.00  0.00    +0.000 C 
ATOM      3  O   UNL     1       2.221   8.881  17.346  0.00  0.00    +0.000 OA
ATOM      4  N   UNL     1       1.189   9.502  19.330  0.00  0.00    +0.000 N 
ATOM      5  C   UNL     1       0.549   9.026  20.561  0.00  0.00    +0.000 C 
ATOM      6  H   UNL     1       2.433   7.467  20.094  0.00  0.00    +0.000 HD
ENDROOT
BRANCH   1  10
ATOM      7  C   UNL     1       2.600   3.789  19.631  0.00  0.00    +0.000 C 
ATOM      8  C   UNL     1       3.451   4.865  20.339  0.00  0.00    +0.000 C 
ATOM      9  C   UNL     1       4.129   5.828  19.359  0.00  0.00    +0.000 C 
ATOM     10  C   UNL     1       3.129   6.472  18.386  0.00  0.00    +0.000 C 
ATOM     11  C   UNL     1       2.223   5.432  17.720  0.00  0.00    +0.000 C 
ATOM     12  C   UNL     1       1.563   4.505  18.742  0.00  0.00    +0.000 C 
BRANCH   7  14
ATOM     13  C   UNL     1       4.393   1.961  19.784  0.00  0.00    +0.000 C 
ATOM     14  C   UNL     1       3.458   2.743  18.853  0.00  0.00    +0.000 C 
ATOM     15  C   UNL     1       2.590   1.740  18.083  0.00  0.00    +0.000 C 
ENDBRANCH   7  14
ENDBRANCH   1  10
BRANCH   4  16
ATOM     16  C   UNL     1       0.582  10.689  18.655  0.00  0.00    +0.000 C 
ATOM     17  C   UNL     1      -0.869  11.029  19.082  0.00  0.00    +0.000 C 
ATOM     18  C   UNL     1      -0.968  11.696  20.461  0.00  0.00    +0.000 C 
ATOM     19  C   UNL     1      -0.063  12.928  20.609  0.00  0.00    +0.000 C 
ATOM     20  C   UNL     1       1.368  12.598  20.159  0.00  0.00    +0.000 C 
ATOM     21  C   UNL     1       1.408  11.994  18.762  0.00  0.00    +0.000 C 
BRANCH  19  22
ATOM     22  C   UNL     1      -0.660  14.138  19.880  0.00  0.00    +0.000 C 
BRANCH  22  23
ATOM     23  O   UNL     1      -2.073  14.186  20.035  0.00  0.00    +0.000 OA
ATOM     24  H   UNL     1      -2.305  15.081  20.334  0.00  0.00    +0.000 HD
ENDBRANCH  22  23
ENDBRANCH  19  22
ENDBRANCH   4  16
TORSDOF 5
ENDMDL
MODEL 2
REMARK VINA RESULT:      -5.8      2.214      8.341
REMARK  Name = 
REMARK  8 active torsions:
REMARK  status: ('A' for Active; 'I' for Inactive)
REMARK    1  A    between atoms: C_1  and  C_2
REMARK    2  A    between atoms: C_2  and  C_3
REMARK    3  A    between atoms: C_2  and  C_4
REMARK    4  A    between atoms: C_7  and  N_8
REMARK    5  A    between atoms: N_11  and  C_12
REMARK    6  A    between atoms: N_11  and  C_13
REMARK    7  A    between atoms: C_16  and  C_17
REMARK    8  A    between atoms: C_17  and  O_18
REMARK                            x       y       z     vdW  Elec       q    Type
REMARK                         _______ _______ _______ _____ _____    ______ ____
ROOT
ATOM      1  N   UNL     1       1.365   9.102  19.931  0.00  0.00    +0.000 N 
ATOM      2  C   UNL     1       1.775   7.870  20.357  0.00  0.00    +0.000 C 
ATOM      3  O   UNL     1       1.492   7.468  21.482  0.00  0.00    +0.000 OA
ATOM      4  N   UNL     1       2.483   7.106  19.415  0.00  0.00    +0.000 N 
ATOM      5  C   UNL     1       2.461   7.444  17.988  0.00  0.00    +0.000 C 
ATOM      6  H   UNL     1       1.925   9.540  19.221  0.00  0.00    +0.000 HD
ENDROOT
BRANCH   1  10
ATOM      7  C   UNL     1      -0.704  12.070  19.070  0.00  0.00    +0.000 C 
ATOM      8  C   UNL     1       0.820  12.082  19.311  0.00  0.00    +0.000 C 
ATOM      9  C   UNL     1       1.216  11.444  20.646  0.00  0.00    +0.000 C 
ATOM     10  C   UNL     1       0.647  10.025  20.808  0.00  0.00    +0.000 C 
ATOM     11  C   UNL     1      -0.854   9.971  20.506  0.00  0.00    +0.000 C 
ATOM     12  C   UNL     1      -1.193  10.610  19.160  0.00  0.00    +0.000 C 
BRANCH   7  14
ATOM     13  C   UNL     1      -1.135  14.507  19.747  0.00  0.00    +0.000 C 
ATOM     14  C   UNL     1      -1.483  13.038  20.016  0.00  0.00    +0.000 C 
ATOM     15  C   UNL     1      -3.002  12.867  19.895  0.00  0.00    +0.000 C 
ENDBRANCH   7  14
ENDBRANCH   1  10
BRANCH   4  16
ATOM     16  C   UNL     1       2.746   5.680  19.779  0.00  0.00    +0.000 C 
ATOM     17  C   UNL     1       1.691   4.659  19.279  0.00  0.00    +0.000 C 
ATOM     18  C   UNL     1       1.792   4.351  17.779  0.00  0.00    +0.000 C 
ATOM     19  C   UNL     1       3.200   3.927  17.336  0.00  0.00    +0.000 C 
ATOM     20  C   UNL     1       4.246   4.924  17.856  0.00  0.00    +0.000 C 
ATOM     21  C   UNL     1       4.136   5.145  19.358  0.00  0.00    +0.000 C 
BRANCH  19  22
ATOM     22  C   UNL     1       3.491   2.478  17.746  0.00  0.00    +0.000 C 
BRANCH  22  23
ATOM     23  O   UNL     1       2.312   1.685  17.709  0.00  0.00    +0.000 OA
ATOM     24  H   UNL     1       2.556   0.812  17.362  0.00  0.00    +0.000 HD
ENDBRANCH  22  23
ENDBRANCH  19  22
ENDBRANCH   4  16
TORSDOF 5
ENDMDL
MODEL 3
REMARK VINA RESULT:      -5.8      1.474      2.261
REMARK  Name = 
REMARK  8 active torsions:
REMARK  status: ('A' for Active; 'I' for Inactive)
REMARK    1  A    between atoms: C_1  and  C_2
REMARK    2  A    between atoms: C_2  and  C_3
REMARK    3  A    between atoms: C_2  and  C_4
REMARK    4  A    between atoms: C_7  and  N_8
REMARK    5  A    between atoms: N_11  and  C_12
REMARK    6  A    between atoms: N_11  and  C_13
REMARK    7  A    between atoms: C_16  and  C_17
REMARK    8  A    between atoms: C_17  and  O_18
REMARK                            x       y       z     vdW  Elec       q    Type
REMARK                         _______ _______ _______ _____ _____    ______ ____
ROOT
ATOM      1  N   UNL     1       2.205   7.377  19.458  0.00  0.00    +0.000 N 
ATOM      2  C   UNL     1       1.564   8.346  20.178  0.00  0.00    +0.000 C 
ATOM      3  O   UNL     1       1.458   8.255  21.398  0.00  0.00    +0.000 OA
ATOM      4  N   UNL     1       1.095   9.443  19.438  0.00  0.00    +0.000 N 
ATOM      5  C   UNL     1       1.574   9.705  18.076  0.00  0.00    +0.000 C 
ATOM      6  H   UNL     1       1.927   7.276  18.497  0.00  0.00    +0.000 HD
ENDROOT
BRANCH   1  10
ATOM      7  C   UNL     1       2.348   3.905  18.131  0.00  0.00    +0.000 C 
ATOM      8  C   UNL     1       1.161   4.519  18.905  0.00  0.00    +0.000 C 
ATOM      9  C   UNL     1       1.581   5.138  20.243  0.00  0.00    +0.000 C 
ATOM     10  C   UNL     1       2.718   6.159  20.084  0.00  0.00    +0.000 C 
ATOM     11  C   UNL     1       3.881   5.600  19.258  0.00  0.00    +0.000 C 
ATOM     12  C   UNL     1       3.411   5.006  17.930  0.00  0.00    +0.000 C 
BRANCH   7  14
ATOM     13  C   UNL     1       1.810   1.756  19.423  0.00  0.00    +0.000 C 
ATOM     14  C   UNL     1       2.917   2.616  18.802  0.00  0.00    +0.000 C 
ATOM     15  C   UNL     1       3.709   1.751  17.813  0.00  0.00    +0.000 C 
ENDBRANCH   7  14
ENDBRANCH   1  10
BRANCH   4  16
ATOM     16  C   UNL     1       0.594  10.610  20.226  0.00  0.00    +0.000 C 
ATOM     17  C   UNL     1       1.428  11.911  20.094  0.00  0.00    +0.000 C 
ATOM     18  C   UNL     1       1.217  12.649  18.765  0.00  0.00    +0.000 C 
ATOM     19  C   UNL     1      -0.260  12.925  18.448  0.00  0.00    +0.000 C 
ATOM     20  C   UNL     1      -1.089  11.642  18.606  0.00  0.00    +0.000 C 
ATOM     21  C   UNL     1      -0.885  10.987  19.965  0.00  0.00    +0.000 C 
BRANCH  19  22
ATOM     22  C   UNL     1      -0.791  14.095  19.287  0.00  0.00    +0.000 C 
BRANCH  22  23
ATOM     23  O   UNL     1      -0.698  15.322  18.575  0.00  0.00    +0.000 OA
ATOM     24  H   UNL     1      -0.991  16.030  19.173  0.00  0.00    +0.000 HD
ENDBRANCH  22  23
ENDBRANCH  19  22
ENDBRANCH   4  16
TORSDOF 5
ENDMDL
MODEL 4
REMARK VINA RESULT:      -5.8      2.381      8.414
REMARK  Name = 
REMARK  8 active torsions:
REMARK  status: ('A' for Active; 'I' for Inactive)
REMARK    1  A    between atoms: C_1  and  C_2
REMARK    2  A    between atoms: C_2  and  C_3
REMARK    3  A    between atoms: C_2  and  C_4
REMARK    4  A    between atoms: C_7  and  N_8
REMARK    5  A    between atoms: N_11  and  C_12
REMARK    6  A    between atoms: N_11  and  C_13
REMARK    7  A    between atoms: C_16  and  C_17
REMARK    8  A    between atoms: C_17  and  O_18
REMARK                            x       y       z     vdW  Elec       q    Type
REMARK                         _______ _______ _______ _____ _____    ______ ____
ROOT
ATOM      1  N   UNL     1       1.707   8.172  19.507  0.00  0.00    +0.000 N 
ATOM      2  C   UNL     1       2.541   7.324  18.833  0.00  0.00    +0.000 C 
ATOM      3  O   UNL     1       3.270   7.742  17.938  0.00  0.00    +0.000 OA
ATOM      4  N   UNL     1       2.530   5.989  19.267  0.00  0.00    +0.000 N 
ATOM      5  C   UNL     1       1.958   5.613  20.564  0.00  0.00    +0.000 C 
ATOM      6  H   UNL     1       0.883   7.762  19.911  0.00  0.00    +0.000 HD
ENDROOT
BRANCH   1  10
ATOM      7  C   UNL     1      -1.337  10.290  19.228  0.00  0.00    +0.000 C 
ATOM      8  C   UNL     1      -0.733   9.438  18.091  0.00  0.00    +0.000 C 
ATOM      9  C   UNL     1       0.755   9.722  17.862  0.00  0.00    +0.000 C 
ATOM     10  C   UNL     1       1.583   9.584  19.149  0.00  0.00    +0.000 C 
ATOM     11  C   UNL     1       0.967  10.364  20.314  0.00  0.00    +0.000 C 
ATOM     12  C   UNL     1      -0.514  10.037  20.508  0.00  0.00    +0.000 C 
BRANCH   7  14
ATOM     13  C   UNL     1      -2.061  12.012  17.471  0.00  0.00    +0.000 C 
ATOM     14  C   UNL     1      -1.455  11.804  18.864  0.00  0.00    +0.000 C 
ATOM     15  C   UNL     1      -2.298  12.580  19.883  0.00  0.00    +0.000 C 
ENDBRANCH   7  14
ENDBRANCH   1  10
BRANCH   4  16
ATOM     16  C   UNL     1       3.587   5.098  18.698  0.00  0.00    +0.000 C 
ATOM     17  C   UNL     1       4.120   4.001  19.656  0.00  0.00    +0.000 C 
ATOM     18  C   UNL     1       3.154   2.823  19.846  0.00  0.00    +0.000 C 
ATOM     19  C   UNL     1       2.685   2.199  18.524  0.00  0.00    +0.000 C 
ATOM     20  C   UNL     1       2.184   3.289  17.565  0.00  0.00    +0.000 C 
ATOM     21  C   UNL     1       3.207   4.400  17.370  0.00  0.00    +0.000 C 
BRANCH  19  22
ATOM     22  C   UNL     1       3.783   1.318  17.913  0.00  0.00    +0.000 C 
BRANCH  22  23
ATOM     23  O   UNL     1       4.512   0.631  18.923  0.00  0.00    +0.000 OA
ATOM     24  H   UNL     1       5.162   0.062  18.479  0.00  0.00    +0.000 HD
ENDBRANCH  22  23
ENDBRANCH  19  22
ENDBRANCH   4  16
TORSDOF 5
ENDMDL
MODEL 5
REMARK VINA RESULT:      -5.7      2.509      8.529
REMARK  Name = 
REMARK  8 active torsions:
REMARK  status: ('A' for Active; 'I' for Inactive)
REMARK    1  A    between atoms: C_1  and  C_2
REMARK    2  A    between atoms: C_2  and  C_3
REMARK    3  A    between atoms: C_2  and  C_4
REMARK    4  A    between atoms: C_7  and  N_8
REMARK    5  A    between atoms: N_11  and  C_12
REMARK    6  A    between atoms: N_11  and  C_13
REMARK    7  A    between atoms: C_16  and  C_17
REMARK    8  A    between atoms: C_17  and  O_18
REMARK                            x       y       z     vdW  Elec       q    Type
REMARK                         _______ _______ _______ _____ _____    ______ ____
ROOT
ATOM      1  N   UNL     1       1.571   7.766  20.879  0.00  0.00    +0.000 N 
ATOM      2  C   UNL     1       2.116   7.158  19.783  0.00  0.00    +0.000 C 
ATOM      3  O   UNL     1       2.813   7.791  18.996  0.00  0.00    +0.000 OA
ATOM      4  N   UNL     1       1.862   5.782  19.662  0.00  0.00    +0.000 N 
ATOM      5  C   UNL     1       1.371   4.994  20.798  0.00  0.00    +0.000 C 
ATOM      6  H   UNL     1       0.728   7.358  21.244  0.00  0.00    +0.000 HD
ENDROOT
BRANCH   1  10
ATOM      7  C   UNL     1      -1.007  10.308  21.730  0.00  0.00    +0.000 C 
ATOM      8  C   UNL     1      -0.590   9.901  20.300  0.00  0.00    +0.000 C 
ATOM      9  C   UNL     1       0.923   9.991  20.074  0.00  0.00    +0.000 C 
ATOM     10  C   UNL     1       1.720   9.199  21.124  0.00  0.00    +0.000 C 
ATOM     11  C   UNL     1       1.277   9.533  22.552  0.00  0.00    +0.000 C 
ATOM     12  C   UNL     1      -0.238   9.417  22.727  0.00  0.00    +0.000 C 
BRANCH   7  14
ATOM     13  C   UNL     1      -1.314  12.691  20.832  0.00  0.00    +0.000 C 
ATOM     14  C   UNL     1      -0.832  11.834  22.009  0.00  0.00    +0.000 C 
ATOM     15  C   UNL     1      -1.578  12.281  23.273  0.00  0.00    +0.000 C 
ENDBRANCH   7  14
ENDBRANCH   1  10
BRANCH   4  16
ATOM     16  C   UNL     1       2.626   5.057  18.602  0.00  0.00    +0.000 C 
ATOM     17  C   UNL     1       3.917   4.344  19.081  0.00  0.00    +0.000 C 
ATOM     18  C   UNL     1       3.655   3.045  19.856  0.00  0.00    +0.000 C 
ATOM     19  C   UNL     1       2.745   2.060  19.108  0.00  0.00    +0.000 C 
ATOM     20  C   UNL     1       1.480   2.774  18.609  0.00  0.00    +0.000 C 
ATOM     21  C   UNL     1       1.804   4.021  17.797  0.00  0.00    +0.000 C 
BRANCH  19  22
ATOM     22  C   UNL     1       3.514   1.345  17.989  0.00  0.00    +0.000 C 
BRANCH  22  23
ATOM     23  O   UNL     1       4.456   0.422  18.521  0.00  0.00    +0.000 OA
ATOM     24  H   UNL     1       4.022  -0.054  19.248  0.00  0.00    +0.000 HD
ENDBRANCH  22  23
ENDBRANCH  19  22
ENDBRANCH   4  16
TORSDOF 5
ENDMDL
MODEL 6
REMARK VINA RESULT:      -5.7      1.783      8.461
REMARK  Name = 
REMARK  8 active torsions:
REMARK  status: ('A' for Active; 'I' for Inactive)
REMARK    1  A    between atoms: C_1  and  C_2
REMARK    2  A    between atoms: C_2  and  C_3
REMARK    3  A    between atoms: C_2  and  C_4
REMARK    4  A    between atoms: C_7  and  N_8
REMARK    5  A    between atoms: N_11  and  C_12
REMARK    6  A    between atoms: N_11  and  C_13
REMARK    7  A    between atoms: C_16  and  C_17
REMARK    8  A    between atoms: C_17  and  O_18
REMARK                            x       y       z     vdW  Elec       q    Type
REMARK                         _______ _______ _______ _____ _____    ______ ____
ROOT
ATOM      1  N   UNL     1       1.067   9.393  19.158  0.00  0.00    +0.000 N 
ATOM      2  C   UNL     1       1.871   8.492  18.518  0.00  0.00    +0.000 C 
ATOM      3  O   UNL     1       2.346   8.747  17.415  0.00  0.00    +0.000 OA
ATOM      4  N   UNL     1       2.141   7.309  19.225  0.00  0.00    +0.000 N 
ATOM      5  C   UNL     1       1.890   7.208  20.667  0.00  0.00    +0.000 C 
ATOM      6  H   UNL     1       0.405   9.016  19.813  0.00  0.00    +0.000 HD
ENDROOT
BRANCH   1  10
ATOM      7  C   UNL     1      -0.145  12.538  20.732  0.00  0.00    +0.000 C 
ATOM      8  C   UNL     1      -1.036  11.353  20.299  0.00  0.00    +0.000 C 
ATOM      9  C   UNL     1      -0.810  10.941  18.841  0.00  0.00    +0.000 C 
ATOM     10  C   UNL     1       0.669  10.655  18.535  0.00  0.00    +0.000 C 
ATOM     11  C   UNL     1       1.584  11.785  19.018  0.00  0.00    +0.000 C 
ATOM     12  C   UNL     1       1.327  12.149  20.480  0.00  0.00    +0.000 C 
BRANCH   7  14
ATOM     13  C   UNL     1      -1.928  14.369  20.519  0.00  0.00    +0.000 C 
ATOM     14  C   UNL     1      -0.548  13.886  20.057  0.00  0.00    +0.000 C 
ATOM     15  C   UNL     1       0.473  14.998  20.330  0.00  0.00    +0.000 C 
ENDBRANCH   7  14
ENDBRANCH   1  10
BRANCH   4  16
ATOM     16  C   UNL     1       3.189   6.415  18.647  0.00  0.00    +0.000 C 
ATOM     17  C   UNL     1       3.910   5.489  19.660  0.00  0.00    +0.000 C 
ATOM     18  C   UNL     1       3.063   4.292  20.115  0.00  0.00    +0.000 C 
ATOM     19  C   UNL     1       2.492   3.470  18.950  0.00  0.00    +0.000 C 
ATOM     20  C   UNL     1       1.804   4.391  17.932  0.00  0.00    +0.000 C 
ATOM     21  C   UNL     1       2.712   5.524  17.473  0.00  0.00    +0.000 C 
BRANCH  19  22
ATOM     22  C   UNL     1       3.576   2.582  18.324  0.00  0.00    +0.000 C 
BRANCH  22  23
ATOM     23  O   UNL     1       4.405   2.001  19.322  0.00  0.00    +0.000 OA
ATOM     24  H   UNL     1       3.841   1.782  20.082  0.00  0.00    +0.000 HD
ENDBRANCH  22  23
ENDBRANCH  19  22
ENDBRANCH   4  16
TORSDOF 5
ENDMDL
MODEL 7
REMARK VINA RESULT:      -5.7      2.068      8.439
REMARK  Name = 
REMARK  8 active torsions:
REMARK  status: ('A' for Active; 'I' for Inactive)
REMARK    1  A    between atoms: C_1  and  C_2
REMARK    2  A    between atoms: C_2  and  C_3
REMARK    3  A    between atoms: C_2  and  C_4
REMARK    4  A    between atoms: C_7  and  N_8
REMARK    5  A    between atoms: N_11  and  C_12
REMARK    6  A    between atoms: N_11  and  C_13
REMARK    7  A    between atoms: C_16  and  C_17
REMARK    8  A    between atoms: C_17  and  O_18
REMARK                            x       y       z     vdW  Elec       q    Type
REMARK                         _______ _______ _______ _____ _____    ______ ____
ROOT
ATOM      1  N   UNL     1       1.424   8.796  19.461  0.00  0.00    +0.000 N 
ATOM      2  C   UNL     1       2.172   7.913  18.733  0.00  0.00    +0.000 C 
ATOM      3  O   UNL     1       2.740   8.270  17.705  0.00  0.00    +0.000 OA
ATOM      4  N   UNL     1       2.275   6.619  19.268  0.00  0.00    +0.000 N 
ATOM      5  C   UNL     1       1.923   6.340  20.665  0.00  0.00    +0.000 C 
ATOM      6  H   UNL     1       0.687   8.404  20.020  0.00  0.00    +0.000 HD
ENDROOT
BRANCH   1  10
ATOM      7  C   UNL     1      -1.085  11.284  20.623  0.00  0.00    +0.000 C 
ATOM      8  C   UNL     1      -1.305  10.249  19.499  0.00  0.00    +0.000 C 
ATOM      9  C   UNL     1      -0.215  10.297  18.424  0.00  0.00    +0.000 C 
ATOM     10  C   UNL     1       1.197  10.170  19.015  0.00  0.00    +0.000 C 
ATOM     11  C   UNL     1       1.421  11.139  20.181  0.00  0.00    +0.000 C 
ATOM     12  C   UNL     1       0.313  11.043  21.230  0.00  0.00    +0.000 C 
BRANCH   7  14
ATOM     13  C   UNL     1      -2.792  13.113  20.061  0.00  0.00    +0.000 C 
ATOM     14  C   UNL     1      -1.304  12.756  20.153  0.00  0.00    +0.000 C 
ATOM     15  C   UNL     1      -0.617  13.768  21.079  0.00  0.00    +0.000 C 
ENDBRANCH   7  14
ENDBRANCH   1  10
BRANCH   4  16
ATOM     16  C   UNL     1       3.262   5.707  18.614  0.00  0.00    +0.000 C 
ATOM     17  C   UNL     1       4.021   4.750  19.569  0.00  0.00    +0.000 C 
ATOM     18  C   UNL     1       3.175   3.568  20.063  0.00  0.00    +0.000 C 
ATOM     19  C   UNL     1       2.512   2.776  18.927  0.00  0.00    +0.000 C 
ATOM     20  C   UNL     1       1.784   3.727  17.965  0.00  0.00    +0.000 C 
ATOM     21  C   UNL     1       2.689   4.844  17.463  0.00  0.00    +0.000 C 
BRANCH  19  22
ATOM     22  C   UNL     1       3.531   1.870  18.223  0.00  0.00    +0.000 C 
BRANCH  22  23
ATOM     23  O   UNL     1       4.468   1.334  19.147  0.00  0.00    +0.000 OA
ATOM     24  H   UNL     1       4.083   1.414  20.036  0.00  0.00    +0.000 HD
ENDBRANCH  22  23
ENDBRANCH  19  22
ENDBRANCH   4  16
TORSDOF 5
ENDMDL
MODEL 8
REMARK VINA RESULT:      -5.7      2.128      8.379
REMARK  Name = 
REMARK  8 active torsions:
REMARK  status: ('A' for Active; 'I' for Inactive)
REMARK    1  A    between atoms: C_1  and  C_2
REMARK    2  A    between atoms: C_2  and  C_3
REMARK    3  A    between atoms: C_2  and  C_4
REMARK    4  A    between atoms: C_7  and  N_8
REMARK    5  A    between atoms: N_11  and  C_12
REMARK    6  A    between atoms: N_11  and  C_13
REMARK    7  A    between atoms: C_16  and  C_17
REMARK    8  A    between atoms: C_17  and  O_18
REMARK                            x       y       z     vdW  Elec       q    Type
REMARK                         _______ _______ _______ _____ _____    ______ ____
ROOT
ATOM      1  N   UNL     1       1.061   9.196  19.587  0.00  0.00    +0.000 N 
ATOM      2  C   UNL     1       1.553   8.025  20.093  0.00  0.00    +0.000 C 
ATOM      3  O   UNL     1       1.150   7.587  21.167  0.00  0.00    +0.000 OA
ATOM      4  N   UNL     1       2.491   7.362  19.286  0.00  0.00    +0.000 N 
ATOM      5  C   UNL     1       2.651   7.699  17.867  0.00  0.00    +0.000 C 
ATOM      6  H   UNL     1       1.665   9.705  18.966  0.00  0.00    +0.000 HD
ENDROOT
BRANCH   1  10
ATOM      7  C   UNL     1       0.675  12.894  19.674  0.00  0.00    +0.000 C 
ATOM      8  C   UNL     1       1.593  12.068  20.602  0.00  0.00    +0.000 C 
ATOM      9  C   UNL     1       0.852  10.929  21.310  0.00  0.00    +0.000 C 
ATOM     10  C   UNL     1       0.103  10.017  20.326  0.00  0.00    +0.000 C 
ATOM     11  C   UNL     1      -0.763  10.816  19.347  0.00  0.00    +0.000 C 
ATOM     12  C   UNL     1       0.026  11.931  18.659  0.00  0.00    +0.000 C 
BRANCH   7  14
ATOM     13  C   UNL     1       0.194  14.266  21.788  0.00  0.00    +0.000 C 
ATOM     14  C   UNL     1      -0.365  13.759  20.453  0.00  0.00    +0.000 C 
ATOM     15  C   UNL     1      -0.842  14.966  19.635  0.00  0.00    +0.000 C 
ENDBRANCH   7  14
ENDBRANCH   1  10
BRANCH   4  16
ATOM     16  C   UNL     1       2.872   5.980  19.710  0.00  0.00    +0.000 C 
ATOM     17  C   UNL     1       1.830   4.875  19.399  0.00  0.00    +0.000 C 
ATOM     18  C   UNL     1       1.786   4.466  17.920  0.00  0.00    +0.000 C 
ATOM     19  C   UNL     1       3.160   4.083  17.351  0.00  0.00    +0.000 C 
ATOM     20  C   UNL     1       4.197   5.165  17.685  0.00  0.00    +0.000 C 
ATOM     21  C   UNL     1       4.238   5.486  19.173  0.00  0.00    +0.000 C 
BRANCH  19  22
ATOM     22  C   UNL     1       3.576   2.682  17.820  0.00  0.00    +0.000 C 
BRANCH  22  23
ATOM     23  O   UNL     1       2.484   1.774  17.760  0.00  0.00    +0.000 OA
ATOM     24  H   UNL     1       2.430   1.440  16.849  0.00  0.00    +0.000 HD
ENDBRANCH  22  23
ENDBRANCH  19  22
ENDBRANCH   4  16
TORSDOF 5
ENDMDL
MODEL 9
REMARK VINA RESULT:      -5.5      2.844      8.239
REMARK  Name = 
REMARK  8 active torsions:
REMARK  status: ('A' for Active; 'I' for Inactive)
REMARK    1  A    between atoms: C_1  and  C_2
REMARK    2  A    between atoms: C_2  and  C_3
REMARK    3  A    between atoms: C_2  and  C_4
REMARK    4  A    between atoms: C_7  and  N_8
REMARK    5  A    between atoms: N_11  and  C_12
REMARK    6  A    between atoms: N_11  and  C_13
REMARK    7  A    between atoms: C_16  and  C_17
REMARK    8  A    between atoms: C_17  and  O_18
REMARK                            x       y       z     vdW  Elec       q    Type
REMARK                         _______ _______ _______ _____ _____    ______ ____
ROOT
ATOM      1  N   UNL     1       1.583   8.430  19.798  0.00  0.00    +0.000 N 
ATOM      2  C   UNL     1       2.207   7.215  19.744  0.00  0.00    +0.000 C 
ATOM      3  O   UNL     1       1.894   6.314  20.517  0.00  0.00    +0.000 OA
ATOM      4  N   UNL     1       3.170   7.071  18.732  0.00  0.00    +0.000 N 
ATOM      5  C   UNL     1       3.237   8.006  17.604  0.00  0.00    +0.000 C 
ATOM      6  H   UNL     1       2.109   9.219  19.464  0.00  0.00    +0.000 HD
ENDROOT
BRANCH   1  10
ATOM      7  C   UNL     1      -0.238  11.609  20.440  0.00  0.00    +0.000 C 
ATOM      8  C   UNL     1       1.128  11.223  21.046  0.00  0.00    +0.000 C 
ATOM      9  C   UNL     1       1.107   9.855  21.737  0.00  0.00    +0.000 C 
ATOM     10  C   UNL     1       0.582   8.742  20.816  0.00  0.00    +0.000 C 
ATOM     11  C   UNL     1      -0.740   9.128  20.146  0.00  0.00    +0.000 C 
ATOM     12  C   UNL     1      -0.663  10.493  19.462  0.00  0.00    +0.000 C 
BRANCH   7  14
ATOM     13  C   UNL     1      -0.803  12.900  22.583  0.00  0.00    +0.000 C 
ATOM     14  C   UNL     1      -1.321  11.924  21.520  0.00  0.00    +0.000 C 
ATOM     15  C   UNL     1      -2.599  12.508  20.904  0.00  0.00    +0.000 C 
ENDBRANCH   7  14
ENDBRANCH   1  10
BRANCH   4  16
ATOM     16  C   UNL     1       3.701   5.691  18.513  0.00  0.00    +0.000 C 
ATOM     17  C   UNL     1       3.880   5.273  17.031  0.00  0.00    +0.000 C 
ATOM     18  C   UNL     1       5.101   5.909  16.352  0.00  0.00    +0.000 C 
ATOM     19  C   UNL     1       6.409   5.700  17.130  0.00  0.00    +0.000 C 
ATOM     20  C   UNL     1       6.223   6.087  18.604  0.00  0.00    +0.000 C 
ATOM     21  C   UNL     1       5.033   5.381  19.240  0.00  0.00    +0.000 C 
BRANCH  19  22
ATOM     22  C   UNL     1       6.935   4.271  16.943  0.00  0.00    +0.000 C 
BRANCH  22  23
ATOM     23  O   UNL     1       8.164   4.081  17.633  0.00  0.00    +0.000 OA
ATOM     24  H   UNL     1       8.018   3.400  18.311  0.00  0.00    +0.000 HD
ENDBRANCH  22  23
ENDBRANCH  19  22
ENDBRANCH   4  16
TORSDOF 5
ENDMDL
