MODEL 1
REMARK VINA RESULT:      -8.4      0.000      0.000
REMARK  Name = 
REMARK  4 active torsions:
REMARK  status: ('A' for Active; 'I' for Inactive)
REMARK    1  A    between atoms: C_1  and  C_2
REMARK    2  A    between atoms: C_4  and  C_5
REMARK    3  A    between atoms: C_6  and  C_7
REMARK    4  A    between atoms: N_12  and  C_13
REMARK                            x       y       z     vdW  Elec       q    Type
REMARK                         _______ _______ _______ _____ _____    ______ ____
ROOT
ATOM      1  C   UNL     1       5.285   5.116  18.285  0.00  0.00    +0.000 A 
ATOM      2  C   UNL     1       6.122   5.389  19.342  0.00  0.00    +0.000 A 
ATOM      3  C   UNL     1       7.398   5.767  19.002  0.00  0.00    +0.000 A 
ATOM      4  N   UNL     1       7.837   5.866  17.733  0.00  0.00    +0.000 NA
ATOM      5  C   UNL     1       6.966   5.551  16.765  0.00  0.00    +0.000 A 
ATOM      6  N   UNL     1       7.440   5.589  15.455  0.00  0.00    +0.000 N 
ATOM      7  N   UNL     1       5.696   5.210  17.010  0.00  0.00    +0.000 NA
ATOM      8  H   UNL     1       8.395   5.918  15.444  0.00  0.00    +0.000 HD
ENDROOT
BRANCH   1  14
ATOM      9  C   UNL     1       0.864   2.247  18.726  0.00  0.00    +0.000 C 
ATOM     10  C   UNL     1       1.859   3.346  18.608  0.00  0.00    +0.000 A 
ATOM     11  N   UNL     1       1.551   4.614  18.477  0.00  0.00    +0.000 NA
ATOM     12  C   UNL     1       2.706   5.377  18.356  0.00  0.00    +0.000 A 
ATOM     13  C   UNL     1       2.542   6.848  18.176  0.00  0.00    +0.000 C 
ATOM     14  C   UNL     1       3.899   4.661  18.423  0.00  0.00    +0.000 A 
ATOM     15  S   UNL     1       3.533   2.991  18.632  0.00  0.00    +0.000 S 
ENDBRANCH   1  14
BRANCH   6  16
ATOM     16  C   UNL     1       7.019   4.877  14.319  0.00  0.00    +0.000 A 
ATOM     17  C   UNL     1       5.873   4.069  14.301  0.00  0.00    +0.000 A 
ATOM     18  C   UNL     1       5.446   3.428  13.136  0.00  0.00    +0.000 A 
ATOM     19  C   UNL     1       6.158   3.589  11.955  0.00  0.00    +0.000 A 
ATOM     20  C   UNL     1       7.295   4.394  11.942  0.00  0.00    +0.000 A 
ATOM     21  C   UNL     1       7.717   5.037  13.113  0.00  0.00    +0.000 A 
ENDBRANCH   6  16
TORSDOF 2
ENDMDL
MODEL 2
REMARK VINA RESULT:      -8.3      0.085      1.075
REMARK  Name = 
REMARK  4 active torsions:
REMARK  status: ('A' for Active; 'I' for Inactive)
REMARK    1  A    between atoms: C_1  and  C_2
REMARK    2  A    between atoms: C_4  and  C_5
REMARK    3  A    between atoms: C_6  and  C_7
REMARK    4  A    between atoms: N_12  and  C_13
REMARK                            x       y       z     vdW  Elec       q    Type
REMARK                         _______ _______ _______ _____ _____    ______ ____
ROOT
ATOM      1  C   UNL     1       5.281   5.101  18.272  0.00  0.00    +0.000 A 
ATOM      2  C   UNL     1       6.132   5.333  19.327  0.00  0.00    +0.000 A 
ATOM      3  C   UNL     1       7.408   5.708  18.983  0.00  0.00    +0.000 A 
ATOM      4  N   UNL     1       7.834   5.841  17.713  0.00  0.00    +0.000 NA
ATOM      5  C   UNL     1       6.948   5.565  16.746  0.00  0.00    +0.000 A 
ATOM      6  N   UNL     1       7.407   5.638  15.432  0.00  0.00    +0.000 N 
ATOM      7  N   UNL     1       5.677   5.229  16.995  0.00  0.00    +0.000 NA
ATOM      8  H   UNL     1       8.365   5.957  15.420  0.00  0.00    +0.000 HD
ENDROOT
BRANCH   1  14
ATOM      9  C   UNL     1       0.839   2.265  18.723  0.00  0.00    +0.000 C 
ATOM     10  C   UNL     1       1.842   3.356  18.602  0.00  0.00    +0.000 A 
ATOM     11  N   UNL     1       1.543   4.627  18.471  0.00  0.00    +0.000 NA
ATOM     12  C   UNL     1       2.703   5.382  18.347  0.00  0.00    +0.000 A 
ATOM     13  C   UNL     1       2.550   6.853  18.166  0.00  0.00    +0.000 C 
ATOM     14  C   UNL     1       3.891   4.657  18.413  0.00  0.00    +0.000 A 
ATOM     15  S   UNL     1       3.514   2.990  18.624  0.00  0.00    +0.000 S 
ENDBRANCH   1  14
BRANCH   6  16
ATOM     16  C   UNL     1       6.965   4.965  14.280  0.00  0.00    +0.000 A 
ATOM     17  C   UNL     1       7.681   4.954  13.075  0.00  0.00    +0.000 A 
ATOM     18  C   UNL     1       7.245   4.220  11.969  0.00  0.00    +0.000 A 
ATOM     19  C   UNL     1       6.079   3.470  12.051  0.00  0.00    +0.000 A 
ATOM     20  C   UNL     1       5.353   3.455  13.241  0.00  0.00    +0.000 A 
ATOM     21  C   UNL     1       5.797   4.192  14.347  0.00  0.00    +0.000 A 
ENDBRANCH   6  16
TORSDOF 2
ENDMDL
MODEL 3
REMARK VINA RESULT:      -8.0      1.273      1.722
REMARK  Name = 
REMARK  4 active torsions:
REMARK  status: ('A' for Active; 'I' for Inactive)
REMARK    1  A    between atoms: C_1  and  C_2
REMARK    2  A    between atoms: C_4  and  C_5
REMARK    3  A    between atoms: C_6  and  C_7
REMARK    4  A    between atoms: N_12  and  C_13
REMARK                            x       y       z     vdW  Elec       q    Type
REMARK                         _______ _______ _______ _____ _____    ______ ____
ROOT
ATOM      1  C   UNL     1       5.293   4.335  17.228  0.00  0.00    +0.000 A 
ATOM      2  C   UNL     1       6.382   4.511  18.049  0.00  0.00    +0.000 A 
ATOM      3  C   UNL     1       7.586   4.667  17.407  0.00  0.00    +0.000 A 
ATOM      4  N   UNL     1       7.729   4.646  16.068  0.00  0.00    +0.000 NA
ATOM      5  C   UNL     1       6.620   4.438  15.344  0.00  0.00    +0.000 A 
ATOM      6  N   UNL     1       6.778   4.350  13.962  0.00  0.00    +0.000 N 
ATOM      7  N   UNL     1       5.405   4.314  15.891  0.00  0.00    +0.000 NA
ATOM      8  H   UNL     1       7.742   4.521  13.714  0.00  0.00    +0.000 HD
ENDROOT
BRANCH   1  14
ATOM      9  C   UNL     1       0.661   2.237  18.685  0.00  0.00    +0.000 C 
ATOM     10  C   UNL     1       1.785   3.156  18.359  0.00  0.00    +0.000 A 
ATOM     11  N   UNL     1       1.700   4.464  18.372  0.00  0.00    +0.000 NA
ATOM     12  C   UNL     1       2.911   5.027  17.986  0.00  0.00    +0.000 A 
ATOM     13  C   UNL     1       2.989   6.514  17.923  0.00  0.00    +0.000 C 
ATOM     14  C   UNL     1       3.924   4.114  17.705  0.00  0.00    +0.000 A 
ATOM     15  S   UNL     1       3.313   2.519  17.927  0.00  0.00    +0.000 S 
ENDBRANCH   1  14
BRANCH   6  16
ATOM     16  C   UNL     1       6.005   3.672  13.004  0.00  0.00    +0.000 A 
ATOM     17  C   UNL     1       4.739   4.109  12.591  0.00  0.00    +0.000 A 
ATOM     18  C   UNL     1       4.026   3.446  11.589  0.00  0.00    +0.000 A 
ATOM     19  C   UNL     1       4.573   2.331  10.969  0.00  0.00    +0.000 A 
ATOM     20  C   UNL     1       5.835   1.881  11.354  0.00  0.00    +0.000 A 
ATOM     21  C   UNL     1       6.547   2.551  12.359  0.00  0.00    +0.000 A 
ENDBRANCH   6  16
TORSDOF 2
ENDMDL
MODEL 4
REMARK VINA RESULT:      -7.7      1.209      1.541
REMARK  Name = 
REMARK  4 active torsions:
REMARK  status: ('A' for Active; 'I' for Inactive)
REMARK    1  A    between atoms: C_1  and  C_2
REMARK    2  A    between atoms: C_4  and  C_5
REMARK    3  A    between atoms: C_6  and  C_7
REMARK    4  A    between atoms: N_12  and  C_13
REMARK                            x       y       z     vdW  Elec       q    Type
REMARK                         _______ _______ _______ _____ _____    ______ ____
ROOT
ATOM      1  C   UNL     1       5.503   5.071  18.425  0.00  0.00    +0.000 A 
ATOM      2  C   UNL     1       6.409   5.458  19.384  0.00  0.00    +0.000 A 
ATOM      3  C   UNL     1       7.597   5.956  18.907  0.00  0.00    +0.000 A 
ATOM      4  N   UNL     1       7.892   6.063  17.597  0.00  0.00    +0.000 NA
ATOM      5  C   UNL     1       6.965   5.633  16.730  0.00  0.00    +0.000 A 
ATOM      6  N   UNL     1       7.297   5.682  15.378  0.00  0.00    +0.000 N 
ATOM      7  N   UNL     1       5.769   5.170  17.113  0.00  0.00    +0.000 NA
ATOM      8  H   UNL     1       8.205   6.107  15.262  0.00  0.00    +0.000 HD
ENDROOT
BRANCH   1  14
ATOM      9  C   UNL     1       0.727   3.939  20.398  0.00  0.00    +0.000 C 
ATOM     10  C   UNL     1       2.003   3.944  19.632  0.00  0.00    +0.000 A 
ATOM     11  N   UNL     1       2.369   3.003  18.796  0.00  0.00    +0.000 NA
ATOM     12  C   UNL     1       3.626   3.288  18.274  0.00  0.00    +0.000 A 
ATOM     13  C   UNL     1       4.211   2.307  17.316  0.00  0.00    +0.000 C 
ATOM     14  C   UNL     1       4.193   4.481  18.715  0.00  0.00    +0.000 A 
ATOM     15  S   UNL     1       3.109   5.237  19.819  0.00  0.00    +0.000 S 
ENDBRANCH   1  14
BRANCH   6  16
ATOM     16  C   UNL     1       6.839   4.898  14.305  0.00  0.00    +0.000 A 
ATOM     17  C   UNL     1       5.605   4.232  14.313  0.00  0.00    +0.000 A 
ATOM     18  C   UNL     1       5.152   3.515  13.203  0.00  0.00    +0.000 A 
ATOM     19  C   UNL     1       5.926   3.457  12.052  0.00  0.00    +0.000 A 
ATOM     20  C   UNL     1       7.152   4.118  12.013  0.00  0.00    +0.000 A 
ATOM     21  C   UNL     1       7.600   4.838  13.129  0.00  0.00    +0.000 A 
ENDBRANCH   6  16
TORSDOF 2
ENDMDL
MODEL 5
REMARK VINA RESULT:      -7.7      1.217      1.686
REMARK  Name = 
REMARK  4 active torsions:
REMARK  status: ('A' for Active; 'I' for Inactive)
REMARK    1  A    between atoms: C_1  and  C_2
REMARK    2  A    between atoms: C_4  and  C_5
REMARK    3  A    between atoms: C_6  and  C_7
REMARK    4  A    between atoms: N_12  and  C_13
REMARK                            x       y       z     vdW  Elec       q    Type
REMARK                         _______ _______ _______ _____ _____    ______ ____
ROOT
ATOM      1  C   UNL     1       5.443   4.669  18.430  0.00  0.00    +0.000 A 
ATOM      2  C   UNL     1       6.284   5.130  19.416  0.00  0.00    +0.000 A 
ATOM      3  C   UNL     1       7.393   5.811  18.975  0.00  0.00    +0.000 A 
ATOM      4  N   UNL     1       7.673   6.024  17.675  0.00  0.00    +0.000 NA
ATOM      5  C   UNL     1       6.816   5.513  16.779  0.00  0.00    +0.000 A 
ATOM      6  N   UNL     1       7.141   5.677  15.434  0.00  0.00    +0.000 N 
ATOM      7  N   UNL     1       5.696   4.870  17.127  0.00  0.00    +0.000 NA
ATOM      8  H   UNL     1       7.982   6.228  15.347  0.00  0.00    +0.000 HD
ENDROOT
BRANCH   1  14
ATOM      9  C   UNL     1       0.469   2.886  18.663  0.00  0.00    +0.000 C 
ATOM     10  C   UNL     1       1.938   3.072  18.805  0.00  0.00    +0.000 A 
ATOM     11  N   UNL     1       2.716   2.307  19.533  0.00  0.00    +0.000 NA
ATOM     12  C   UNL     1       4.025   2.769  19.483  0.00  0.00    +0.000 A 
ATOM     13  C   UNL     1       5.047   2.027  20.274  0.00  0.00    +0.000 C 
ATOM     14  C   UNL     1       4.228   3.888  18.679  0.00  0.00    +0.000 A 
ATOM     15  S   UNL     1       2.721   4.358  17.991  0.00  0.00    +0.000 S 
ENDBRANCH   1  14
BRANCH   6  16
ATOM     16  C   UNL     1       6.800   4.892  14.319  0.00  0.00    +0.000 A 
ATOM     17  C   UNL     1       5.611   4.152  14.236  0.00  0.00    +0.000 A 
ATOM     18  C   UNL     1       5.273   3.435  13.086  0.00  0.00    +0.000 A 
ATOM     19  C   UNL     1       6.118   3.451  11.985  0.00  0.00    +0.000 A 
ATOM     20  C   UNL     1       7.301   4.185  12.037  0.00  0.00    +0.000 A 
ATOM     21  C   UNL     1       7.635   4.905  13.192  0.00  0.00    +0.000 A 
ENDBRANCH   6  16
TORSDOF 2
ENDMDL
MODEL 6
REMARK VINA RESULT:      -7.6      1.251      1.771
REMARK  Name = 
REMARK  4 active torsions:
REMARK  status: ('A' for Active; 'I' for Inactive)
REMARK    1  A    between atoms: C_1  and  C_2
REMARK    2  A    between atoms: C_4  and  C_5
REMARK    3  A    between atoms: C_6  and  C_7
REMARK    4  A    between atoms: N_12  and  C_13
REMARK                            x       y       z     vdW  Elec       q    Type
REMARK                         _______ _______ _______ _____ _____    ______ ____
ROOT
ATOM      1  C   UNL     1       5.324   4.334  17.266  0.00  0.00    +0.000 A 
ATOM      2  C   UNL     1       6.387   4.485  18.125  0.00  0.00    +0.000 A 
ATOM      3  C   UNL     1       7.612   4.650  17.526  0.00  0.00    +0.000 A 
ATOM      4  N   UNL     1       7.798   4.659  16.192  0.00  0.00    +0.000 NA
ATOM      5  C   UNL     1       6.712   4.475  15.428  0.00  0.00    +0.000 A 
ATOM      6  N   UNL     1       6.915   4.418  14.050  0.00  0.00    +0.000 N 
ATOM      7  N   UNL     1       5.480   4.344  15.933  0.00  0.00    +0.000 NA
ATOM      8  H   UNL     1       7.887   4.589  13.838  0.00  0.00    +0.000 HD
ENDROOT
BRANCH   1  14
ATOM      9  C   UNL     1       0.658   2.221  18.582  0.00  0.00    +0.000 C 
ATOM     10  C   UNL     1       1.785   3.144  18.282  0.00  0.00    +0.000 A 
ATOM     11  N   UNL     1       1.689   4.451  18.266  0.00  0.00    +0.000 NA
ATOM     12  C   UNL     1       2.909   5.018  17.918  0.00  0.00    +0.000 A 
ATOM     13  C   UNL     1       2.976   6.504  17.829  0.00  0.00    +0.000 C 
ATOM     14  C   UNL     1       3.941   4.110  17.694  0.00  0.00    +0.000 A 
ATOM     15  S   UNL     1       3.335   2.513  17.922  0.00  0.00    +0.000 S 
ENDBRANCH   1  14
BRANCH   6  16
ATOM     16  C   UNL     1       6.169   3.766  13.053  0.00  0.00    +0.000 A 
ATOM     17  C   UNL     1       6.646   2.656  12.341  0.00  0.00    +0.000 A 
ATOM     18  C   UNL     1       5.852   1.992  11.402  0.00  0.00    +0.000 A 
ATOM     19  C   UNL     1       4.555   2.423  11.162  0.00  0.00    +0.000 A 
ATOM     20  C   UNL     1       4.053   3.518  11.862  0.00  0.00    +0.000 A 
ATOM     21  C   UNL     1       4.852   4.179  12.805  0.00  0.00    +0.000 A 
ENDBRANCH   6  16
TORSDOF 2
ENDMDL
MODEL 7
REMARK VINA RESULT:      -7.6      2.696      4.567
REMARK  Name = 
REMARK  4 active torsions:
REMARK  status: ('A' for Active; 'I' for Inactive)
REMARK    1  A    between atoms: C_1  and  C_2
REMARK    2  A    between atoms: C_4  and  C_5
REMARK    3  A    between atoms: C_6  and  C_7
REMARK    4  A    between atoms: N_12  and  C_13
REMARK                            x       y       z     vdW  Elec       q    Type
REMARK                         _______ _______ _______ _____ _____    ______ ____
ROOT
ATOM      1  C   UNL     1       2.524   5.688  20.095  0.00  0.00    +0.000 A 
ATOM      2  C   UNL     1       1.839   4.807  20.897  0.00  0.00    +0.000 A 
ATOM      3  C   UNL     1       2.364   3.539  20.966  0.00  0.00    +0.000 A 
ATOM      4  N   UNL     1       3.468   3.149  20.300  0.00  0.00    +0.000 NA
ATOM      5  C   UNL     1       4.056   4.062  19.516  0.00  0.00    +0.000 A 
ATOM      6  N   UNL     1       5.159   3.639  18.776  0.00  0.00    +0.000 N 
ATOM      7  N   UNL     1       3.630   5.327  19.423  0.00  0.00    +0.000 NA
ATOM      8  H   UNL     1       5.380   2.681  19.005  0.00  0.00    +0.000 HD
ENDROOT
BRANCH   1  14
ATOM      9  C   UNL     1       0.338  10.497  20.360  0.00  0.00    +0.000 C 
ATOM     10  C   UNL     1       1.099   9.283  19.959  0.00  0.00    +0.000 A 
ATOM     11  N   UNL     1       1.741   9.152  18.823  0.00  0.00    +0.000 NA
ATOM     12  C   UNL     1       2.316   7.890  18.741  0.00  0.00    +0.000 A 
ATOM     13  C   UNL     1       3.072   7.559  17.499  0.00  0.00    +0.000 C 
ATOM     14  C   UNL     1       2.117   7.075  19.852  0.00  0.00    +0.000 A 
ATOM     15  S   UNL     1       1.172   7.933  21.009  0.00  0.00    +0.000 S 
ENDBRANCH   1  14
BRANCH   6  16
ATOM     16  C   UNL     1       5.666   4.116  17.555  0.00  0.00    +0.000 A 
ATOM     17  C   UNL     1       6.942   4.682  17.422  0.00  0.00    +0.000 A 
ATOM     18  C   UNL     1       7.439   5.085  16.180  0.00  0.00    +0.000 A 
ATOM     19  C   UNL     1       6.667   4.921  15.038  0.00  0.00    +0.000 A 
ATOM     20  C   UNL     1       5.399   4.353  15.140  0.00  0.00    +0.000 A 
ATOM     21  C   UNL     1       4.906   3.948  16.388  0.00  0.00    +0.000 A 
ENDBRANCH   6  16
TORSDOF 2
ENDMDL
MODEL 8
REMARK VINA RESULT:      -7.6      1.212      1.872
REMARK  Name = 
REMARK  4 active torsions:
REMARK  status: ('A' for Active; 'I' for Inactive)
REMARK    1  A    between atoms: C_1  and  C_2
REMARK    2  A    between atoms: C_4  and  C_5
REMARK    3  A    between atoms: C_6  and  C_7
REMARK    4  A    between atoms: N_12  and  C_13
REMARK                            x       y       z     vdW  Elec       q    Type
REMARK                         _______ _______ _______ _____ _____    ______ ____
ROOT
ATOM      1  C   UNL     1       5.516   5.077  18.419  0.00  0.00    +0.000 A 
ATOM      2  C   UNL     1       6.430   5.428  19.384  0.00  0.00    +0.000 A 
ATOM      3  C   UNL     1       7.621   5.928  18.916  0.00  0.00    +0.000 A 
ATOM      4  N   UNL     1       7.910   6.072  17.608  0.00  0.00    +0.000 NA
ATOM      5  C   UNL     1       6.975   5.676  16.734  0.00  0.00    +0.000 A 
ATOM      6  N   UNL     1       7.300   5.763  15.381  0.00  0.00    +0.000 N 
ATOM      7  N   UNL     1       5.776   5.213  17.109  0.00  0.00    +0.000 NA
ATOM      8  H   UNL     1       8.212   6.182  15.273  0.00  0.00    +0.000 HD
ENDROOT
BRANCH   1  14
ATOM      9  C   UNL     1       0.726   3.951  20.359  0.00  0.00    +0.000 C 
ATOM     10  C   UNL     1       2.006   3.956  19.600  0.00  0.00    +0.000 A 
ATOM     11  N   UNL     1       2.372   3.020  18.759  0.00  0.00    +0.000 NA
ATOM     12  C   UNL     1       3.632   3.303  18.245  0.00  0.00    +0.000 A 
ATOM     13  C   UNL     1       4.218   2.327  17.283  0.00  0.00    +0.000 C 
ATOM     14  C   UNL     1       4.202   4.490  18.698  0.00  0.00    +0.000 A 
ATOM     15  S   UNL     1       3.116   5.243  19.802  0.00  0.00    +0.000 S 
ENDBRANCH   1  14
BRANCH   6  16
ATOM     16  C   UNL     1       6.830   5.015  14.289  0.00  0.00    +0.000 A 
ATOM     17  C   UNL     1       7.564   4.838  13.107  0.00  0.00    +0.000 A 
ATOM     18  C   UNL     1       7.094   4.034  12.066  0.00  0.00    +0.000 A 
ATOM     19  C   UNL     1       5.877   3.378  12.191  0.00  0.00    +0.000 A 
ATOM     20  C   UNL     1       5.132   3.529  13.359  0.00  0.00    +0.000 A 
ATOM     21  C   UNL     1       5.609   4.335  14.401  0.00  0.00    +0.000 A 
ENDBRANCH   6  16
TORSDOF 2
ENDMDL
MODEL 9
REMARK VINA RESULT:      -7.5      2.741      4.571
REMARK  Name = 
REMARK  4 active torsions:
REMARK  status: ('A' for Active; 'I' for Inactive)
REMARK    1  A    between atoms: C_1  and  C_2
REMARK    2  A    between atoms: C_4  and  C_5
REMARK    3  A    between atoms: C_6  and  C_7
REMARK    4  A    between atoms: N_12  and  C_13
REMARK                            x       y       z     vdW  Elec       q    Type
REMARK                         _______ _______ _______ _____ _____    ______ ____
ROOT
ATOM      1  C   UNL     1       2.483   5.690  20.126  0.00  0.00    +0.000 A 
ATOM      2  C   UNL     1       1.778   4.834  20.940  0.00  0.00    +0.000 A 
ATOM      3  C   UNL     1       2.283   3.560  21.033  0.00  0.00    +0.000 A 
ATOM      4  N   UNL     1       3.384   3.140  20.381  0.00  0.00    +0.000 NA
ATOM      5  C   UNL     1       3.992   4.030  19.585  0.00  0.00    +0.000 A 
ATOM      6  N   UNL     1       5.092   3.576  18.859  0.00  0.00    +0.000 N 
ATOM      7  N   UNL     1       3.586   5.299  19.467  0.00  0.00    +0.000 NA
ATOM      8  H   UNL     1       5.295   2.619  19.105  0.00  0.00    +0.000 HD
ENDROOT
BRANCH   1  14
ATOM      9  C   UNL     1       0.380  10.540  20.299  0.00  0.00    +0.000 C 
ATOM     10  C   UNL     1       1.119   9.306  19.921  0.00  0.00    +0.000 A 
ATOM     11  N   UNL     1       1.759   9.142  18.788  0.00  0.00    +0.000 NA
ATOM     12  C   UNL     1       2.312   7.869  18.730  0.00  0.00    +0.000 A 
ATOM     13  C   UNL     1       3.062   7.501  17.495  0.00  0.00    +0.000 C 
ATOM     14  C   UNL     1       2.099   7.079  19.857  0.00  0.00    +0.000 A 
ATOM     15  S   UNL     1       1.170   7.975  20.996  0.00  0.00    +0.000 S 
ENDBRANCH   1  14
BRANCH   6  16
ATOM     16  C   UNL     1       5.612   4.023  17.632  0.00  0.00    +0.000 A 
ATOM     17  C   UNL     1       4.934   3.882  16.413  0.00  0.00    +0.000 A 
ATOM     18  C   UNL     1       5.452   4.397  15.222  0.00  0.00    +0.000 A 
ATOM     19  C   UNL     1       6.663   5.076  15.229  0.00  0.00    +0.000 A 
ATOM     20  C   UNL     1       7.354   5.239  16.428  0.00  0.00    +0.000 A 
ATOM     21  C   UNL     1       6.828   4.722  17.620  0.00  0.00    +0.000 A 
ENDBRANCH   6  16
TORSDOF 2
ENDMDL
