MODEL 1
REMARK VINA RESULT:      -7.0      0.000      0.000
REMARK  Name = 
REMARK  3 active torsions:
REMARK  status: ('A' for Active; 'I' for Inactive)
REMARK    1  A    between atoms: N_2  and  C_4
REMARK    2  A    between atoms: C_8  and  C_9
REMARK    3  A    between atoms: N_10  and  C_11
REMARK                            x       y       z     vdW  Elec       q    Type
REMARK                         _______ _______ _______ _____ _____    ______ ____
ROOT
ATOM      1  C   UNL     1       3.571   4.024  19.561  0.00  0.00    +0.000 A 
ATOM      2  C   UNL     1       2.825   5.111  20.037  0.00  0.00    +0.000 A 
ATOM      3  C   UNL     1       2.767   6.288  19.287  0.00  0.00    +0.000 A 
ATOM      4  C   UNL     1       3.449   6.372  18.073  0.00  0.00    +0.000 A 
ATOM      5  C   UNL     1       4.195   5.284  17.602  0.00  0.00    +0.000 A 
ATOM      6  C   UNL     1       4.264   4.103  18.343  0.00  0.00    +0.000 A 
ENDROOT
BRANCH   1   8
ATOM      7  O   UNL     1       2.861   2.686  21.319  0.00  0.00    +0.000 OA
ATOM      8  N   UNL     1       3.619   2.783  20.344  0.00  0.00    +0.000 N 
ATOM      9  O   UNL     1       4.417   1.908  19.981  0.00  0.00    +0.000 OA
ENDBRANCH   1   8
BRANCH   5  10
ATOM     10  C   UNL     1       4.896   5.370  16.302  0.00  0.00    +0.000 C 
ATOM     11  N   UNL     1       5.203   4.298  15.647  0.00  0.00    +0.000 NA
BRANCH  11  12
ATOM     12  C   UNL     1       5.913   4.378  14.440  0.00  0.00    +0.000 A 
ATOM     13  C   UNL     1       5.489   3.557  13.385  0.00  0.00    +0.000 A 
ATOM     14  C   UNL     1       6.204   3.495  12.185  0.00  0.00    +0.000 A 
ATOM     15  C   UNL     1       7.355   4.259  12.029  0.00  0.00    +0.000 A 
ATOM     16  C   UNL     1       7.776   5.075  13.071  0.00  0.00    +0.000 A 
ATOM     17  F   UNL     1       8.891   5.804  12.926  0.00  0.00    +0.000 F 
ATOM     18  C   UNL     1       7.074   5.138  14.271  0.00  0.00    +0.000 A 
ENDBRANCH  11  12
ENDBRANCH   5  10
TORSDOF 3
ENDMDL
MODEL 2
REMARK VINA RESULT:      -7.0      4.541      7.716
REMARK  Name = 
REMARK  3 active torsions:
REMARK  status: ('A' for Active; 'I' for Inactive)
REMARK    1  A    between atoms: N_2  and  C_4
REMARK    2  A    between atoms: C_8  and  C_9
REMARK    3  A    between atoms: N_10  and  C_11
REMARK                            x       y       z     vdW  Elec       q    Type
REMARK                         _______ _______ _______ _____ _____    ______ ____
ROOT
ATOM      1  C   UNL     1       5.701   5.232  16.926  0.00  0.00    +0.000 A 
ATOM      2  C   UNL     1       5.172   3.943  16.780  0.00  0.00    +0.000 A 
ATOM      3  C   UNL     1       3.838   3.703  17.118  0.00  0.00    +0.000 A 
ATOM      4  C   UNL     1       3.044   4.746  17.596  0.00  0.00    +0.000 A 
ATOM      5  C   UNL     1       3.577   6.033  17.742  0.00  0.00    +0.000 A 
ATOM      6  C   UNL     1       4.910   6.286  17.411  0.00  0.00    +0.000 A 
ENDROOT
BRANCH   1   8
ATOM      7  O   UNL     1       7.837   4.505  16.384  0.00  0.00    +0.000 OA
ATOM      8  N   UNL     1       7.099   5.485  16.557  0.00  0.00    +0.000 N 
ATOM      9  O   UNL     1       7.456   6.666  16.442  0.00  0.00    +0.000 OA
ENDBRANCH   1   8
BRANCH   5  10
ATOM     10  C   UNL     1       2.725   7.141  18.225  0.00  0.00    +0.000 C 
ATOM     11  N   UNL     1       2.471   7.275  19.487  0.00  0.00    +0.000 NA
BRANCH  11  12
ATOM     12  C   UNL     1       1.622   8.296  19.939  0.00  0.00    +0.000 A 
ATOM     13  C   UNL     1       1.074   8.160  21.223  0.00  0.00    +0.000 A 
ATOM     14  C   UNL     1       0.135   9.075  21.709  0.00  0.00    +0.000 A 
ATOM     15  C   UNL     1      -0.264  10.141  20.911  0.00  0.00    +0.000 A 
ATOM     16  C   UNL     1       0.280  10.280  19.640  0.00  0.00    +0.000 A 
ATOM     17  F   UNL     1      -0.112  11.302  18.866  0.00  0.00    +0.000 F 
ATOM     18  C   UNL     1       1.209   9.370  19.146  0.00  0.00    +0.000 A 
ENDBRANCH  11  12
ENDBRANCH   5  10
TORSDOF 3
ENDMDL
MODEL 3
REMARK VINA RESULT:      -6.9      1.775      2.187
REMARK  Name = 
REMARK  3 active torsions:
REMARK  status: ('A' for Active; 'I' for Inactive)
REMARK    1  A    between atoms: N_2  and  C_4
REMARK    2  A    between atoms: C_8  and  C_9
REMARK    3  A    between atoms: N_10  and  C_11
REMARK                            x       y       z     vdW  Elec       q    Type
REMARK                         _______ _______ _______ _____ _____    ______ ____
ROOT
ATOM      1  C   UNL     1       2.218   3.768  19.290  0.00  0.00    +0.000 A 
ATOM      2  C   UNL     1       2.574   4.920  20.005  0.00  0.00    +0.000 A 
ATOM      3  C   UNL     1       3.610   5.730  19.534  0.00  0.00    +0.000 A 
ATOM      4  C   UNL     1       4.279   5.388  18.359  0.00  0.00    +0.000 A 
ATOM      5  C   UNL     1       3.922   4.236  17.649  0.00  0.00    +0.000 A 
ATOM      6  C   UNL     1       2.890   3.415  18.110  0.00  0.00    +0.000 A 
ENDROOT
BRANCH   1   8
ATOM      7  O   UNL     1       1.001   2.786  21.005  0.00  0.00    +0.000 OA
ATOM      8  N   UNL     1       1.120   2.925  19.780  0.00  0.00    +0.000 N 
ATOM      9  O   UNL     1       0.379   2.403  18.935  0.00  0.00    +0.000 OA
ENDBRANCH   1   8
BRANCH   5  10
ATOM     10  C   UNL     1       4.618   3.891  16.390  0.00  0.00    +0.000 C 
ATOM     11  N   UNL     1       5.325   4.775  15.764  0.00  0.00    +0.000 NA
BRANCH  11  12
ATOM     12  C   UNL     1       5.944   4.462  14.545  0.00  0.00    +0.000 A 
ATOM     13  C   UNL     1       7.091   5.189  14.196  0.00  0.00    +0.000 A 
ATOM     14  C   UNL     1       7.706   5.017  12.952  0.00  0.00    +0.000 A 
ATOM     15  C   UNL     1       7.176   4.109  12.042  0.00  0.00    +0.000 A 
ATOM     16  C   UNL     1       6.042   3.384  12.386  0.00  0.00    +0.000 A 
ATOM     17  F   UNL     1       5.524   2.516  11.506  0.00  0.00    +0.000 F 
ATOM     18  C   UNL     1       5.419   3.556  13.620  0.00  0.00    +0.000 A 
ENDBRANCH  11  12
ENDBRANCH   5  10
TORSDOF 3
ENDMDL
MODEL 4
REMARK VINA RESULT:      -6.9      1.272      1.272
REMARK  Name = 
REMARK  3 active torsions:
REMARK  status: ('A' for Active; 'I' for Inactive)
REMARK    1  A    between atoms: N_2  and  C_4
REMARK    2  A    between atoms: C_8  and  C_9
REMARK    3  A    between atoms: N_10  and  C_11
REMARK                            x       y       z     vdW  Elec       q    Type
REMARK                         _______ _______ _______ _____ _____    ______ ____
ROOT
ATOM      1  C   UNL     1       3.303   2.943  19.680  0.00  0.00    +0.000 A 
ATOM      2  C   UNL     1       2.034   3.533  19.754  0.00  0.00    +0.000 A 
ATOM      3  C   UNL     1       1.492   4.143  18.621  0.00  0.00    +0.000 A 
ATOM      4  C   UNL     1       2.214   4.160  17.428  0.00  0.00    +0.000 A 
ATOM      5  C   UNL     1       3.482   3.570  17.358  0.00  0.00    +0.000 A 
ATOM      6  C   UNL     1       4.038   2.959  18.484  0.00  0.00    +0.000 A 
ENDROOT
BRANCH   1   8
ATOM      7  O   UNL     1       3.172   2.262  21.895  0.00  0.00    +0.000 OA
ATOM      8  N   UNL     1       3.866   2.290  20.868  0.00  0.00    +0.000 N 
ATOM      9  O   UNL     1       5.002   1.806  20.772  0.00  0.00    +0.000 OA
ENDBRANCH   1   8
BRANCH   5  10
ATOM     10  C   UNL     1       4.233   3.568  16.084  0.00  0.00    +0.000 C 
ATOM     11  N   UNL     1       5.168   4.436  15.869  0.00  0.00    +0.000 NA
BRANCH  11  12
ATOM     12  C   UNL     1       5.845   4.466  14.641  0.00  0.00    +0.000 A 
ATOM     13  C   UNL     1       5.359   3.645  13.614  0.00  0.00    +0.000 A 
ATOM     14  C   UNL     1       6.036   3.533  12.396  0.00  0.00    +0.000 A 
ATOM     15  C   UNL     1       7.212   4.246  12.194  0.00  0.00    +0.000 A 
ATOM     16  C   UNL     1       7.696   5.063  13.209  0.00  0.00    +0.000 A 
ATOM     17  F   UNL     1       8.835   5.743  13.019  0.00  0.00    +0.000 F 
ATOM     18  C   UNL     1       7.031   5.174  14.427  0.00  0.00    +0.000 A 
ENDBRANCH  11  12
ENDBRANCH   5  10
TORSDOF 3
ENDMDL
MODEL 5
REMARK VINA RESULT:      -6.8      4.414      7.364
REMARK  Name = 
REMARK  3 active torsions:
REMARK  status: ('A' for Active; 'I' for Inactive)
REMARK    1  A    between atoms: N_2  and  C_4
REMARK    2  A    between atoms: C_8  and  C_9
REMARK    3  A    between atoms: N_10  and  C_11
REMARK                            x       y       z     vdW  Elec       q    Type
REMARK                         _______ _______ _______ _____ _____    ______ ____
ROOT
ATOM      1  C   UNL     1       6.322   4.100  13.779  0.00  0.00    +0.000 A 
ATOM      2  C   UNL     1       7.390   4.854  14.281  0.00  0.00    +0.000 A 
ATOM      3  C   UNL     1       7.360   5.293  15.607  0.00  0.00    +0.000 A 
ATOM      4  C   UNL     1       6.271   4.977  16.419  0.00  0.00    +0.000 A 
ATOM      5  C   UNL     1       5.204   4.224  15.912  0.00  0.00    +0.000 A 
ATOM      6  C   UNL     1       5.220   3.781  14.588  0.00  0.00    +0.000 A 
ENDROOT
BRANCH   1   8
ATOM      7  O   UNL     1       7.247   4.081  11.650  0.00  0.00    +0.000 OA
ATOM      8  N   UNL     1       6.361   3.628  12.389  0.00  0.00    +0.000 N 
ATOM      9  O   UNL     1       5.506   2.803  12.039  0.00  0.00    +0.000 OA
ENDBRANCH   1   8
BRANCH   5  10
ATOM     10  C   UNL     1       4.063   3.870  16.784  0.00  0.00    +0.000 C 
ATOM     11  N   UNL     1       4.202   3.835  18.070  0.00  0.00    +0.000 NA
BRANCH  11  12
ATOM     12  C   UNL     1       3.133   3.451  18.893  0.00  0.00    +0.000 A 
ATOM     13  C   UNL     1       1.958   3.012  18.265  0.00  0.00    +0.000 A 
ATOM     14  C   UNL     1       0.810   2.713  19.005  0.00  0.00    +0.000 A 
ATOM     15  C   UNL     1       0.829   2.850  20.389  0.00  0.00    +0.000 A 
ATOM     16  C   UNL     1       1.992   3.282  21.014  0.00  0.00    +0.000 A 
ATOM     17  F   UNL     1       2.009   3.424  22.347  0.00  0.00    +0.000 F 
ATOM     18  C   UNL     1       3.137   3.588  20.283  0.00  0.00    +0.000 A 
ENDBRANCH  11  12
ENDBRANCH   5  10
TORSDOF 3
ENDMDL
MODEL 6
REMARK VINA RESULT:      -6.8      4.894      8.000
REMARK  Name = 
REMARK  3 active torsions:
REMARK  status: ('A' for Active; 'I' for Inactive)
REMARK    1  A    between atoms: N_2  and  C_4
REMARK    2  A    between atoms: C_8  and  C_9
REMARK    3  A    between atoms: N_10  and  C_11
REMARK                            x       y       z     vdW  Elec       q    Type
REMARK                         _______ _______ _______ _____ _____    ______ ____
ROOT
ATOM      1  C   UNL     1       5.459   5.397  17.086  0.00  0.00    +0.000 A 
ATOM      2  C   UNL     1       4.977   4.094  16.902  0.00  0.00    +0.000 A 
ATOM      3  C   UNL     1       3.658   3.792  17.248  0.00  0.00    +0.000 A 
ATOM      4  C   UNL     1       2.832   4.787  17.770  0.00  0.00    +0.000 A 
ATOM      5  C   UNL     1       3.317   6.088  17.953  0.00  0.00    +0.000 A 
ATOM      6  C   UNL     1       4.635   6.403  17.615  0.00  0.00    +0.000 A 
ENDROOT
BRANCH   1   8
ATOM      7  O   UNL     1       7.141   6.909  16.567  0.00  0.00    +0.000 OA
ATOM      8  N   UNL     1       6.842   5.715  16.709  0.00  0.00    +0.000 N 
ATOM      9  O   UNL     1       7.626   4.768  16.557  0.00  0.00    +0.000 OA
ENDBRANCH   1   8
BRANCH   5  10
ATOM     10  C   UNL     1       2.430   7.146  18.484  0.00  0.00    +0.000 C 
ATOM     11  N   UNL     1       2.397   7.403  19.751  0.00  0.00    +0.000 NA
BRANCH  11  12
ATOM     12  C   UNL     1       1.518   8.372  20.260  0.00  0.00    +0.000 A 
ATOM     13  C   UNL     1       1.066   9.362  19.376  0.00  0.00    +0.000 A 
ATOM     14  C   UNL     1       0.276  10.426  19.825  0.00  0.00    +0.000 A 
ATOM     15  C   UNL     1      -0.071  10.506  21.169  0.00  0.00    +0.000 A 
ATOM     16  C   UNL     1       0.373   9.524  22.046  0.00  0.00    +0.000 A 
ATOM     17  F   UNL     1       0.048   9.606  23.344  0.00  0.00    +0.000 F 
ATOM     18  C   UNL     1       1.166   8.467  21.609  0.00  0.00    +0.000 A 
ENDBRANCH  11  12
ENDBRANCH   5  10
TORSDOF 3
ENDMDL
MODEL 7
REMARK VINA RESULT:      -6.8      6.606      7.903
REMARK  Name = 
REMARK  3 active torsions:
REMARK  status: ('A' for Active; 'I' for Inactive)
REMARK    1  A    between atoms: N_2  and  C_4
REMARK    2  A    between atoms: C_8  and  C_9
REMARK    3  A    between atoms: N_10  and  C_11
REMARK                            x       y       z     vdW  Elec       q    Type
REMARK                         _______ _______ _______ _____ _____    ______ ____
ROOT
ATOM      1  C   UNL     1       7.157   5.543  16.405  0.00  0.00    +0.000 A 
ATOM      2  C   UNL     1       7.261   4.632  17.465  0.00  0.00    +0.000 A 
ATOM      3  C   UNL     1       7.639   5.088  18.730  0.00  0.00    +0.000 A 
ATOM      4  C   UNL     1       7.908   6.441  18.929  0.00  0.00    +0.000 A 
ATOM      5  C   UNL     1       7.805   7.349  17.867  0.00  0.00    +0.000 A 
ATOM      6  C   UNL     1       7.431   6.907  16.596  0.00  0.00    +0.000 A 
ENDROOT
BRANCH   1   8
ATOM      7  O   UNL     1       5.672   4.451  14.994  0.00  0.00    +0.000 OA
ATOM      8  N   UNL     1       6.746   5.065  15.080  0.00  0.00    +0.000 N 
ATOM      9  O   UNL     1       7.500   5.304  14.126  0.00  0.00    +0.000 OA
ENDBRANCH   1   8
BRANCH   5  10
ATOM     10  C   UNL     1       8.067   8.787  18.089  0.00  0.00    +0.000 C 
ATOM     11  N   UNL     1       9.007   9.170  18.890  0.00  0.00    +0.000 NA
BRANCH  11  12
ATOM     12  C   UNL     1       9.222  10.534  19.139  0.00  0.00    +0.000 A 
ATOM     13  C   UNL     1       9.263  11.394  18.032  0.00  0.00    +0.000 A 
ATOM     14  C   UNL     1       9.579  12.748  18.180  0.00  0.00    +0.000 A 
ATOM     15  C   UNL     1       9.858  13.256  19.444  0.00  0.00    +0.000 A 
ATOM     16  C   UNL     1       9.815  12.406  20.543  0.00  0.00    +0.000 A 
ATOM     17  F   UNL     1      10.093  12.892  21.761  0.00  0.00    +0.000 F 
ATOM     18  C   UNL     1       9.508  11.056  20.403  0.00  0.00    +0.000 A 
ENDBRANCH  11  12
ENDBRANCH   5  10
TORSDOF 3
ENDMDL
MODEL 8
REMARK VINA RESULT:      -6.8      1.234      1.817
REMARK  Name = 
REMARK  3 active torsions:
REMARK  status: ('A' for Active; 'I' for Inactive)
REMARK    1  A    between atoms: N_2  and  C_4
REMARK    2  A    between atoms: C_8  and  C_9
REMARK    3  A    between atoms: N_10  and  C_11
REMARK                            x       y       z     vdW  Elec       q    Type
REMARK                         _______ _______ _______ _____ _____    ______ ____
ROOT
ATOM      1  C   UNL     1       3.731   3.738  19.668  0.00  0.00    +0.000 A 
ATOM      2  C   UNL     1       3.139   4.950  20.048  0.00  0.00    +0.000 A 
ATOM      3  C   UNL     1       3.044   5.990  19.121  0.00  0.00    +0.000 A 
ATOM      4  C   UNL     1       3.536   5.815  17.828  0.00  0.00    +0.000 A 
ATOM      5  C   UNL     1       4.129   4.603  17.453  0.00  0.00    +0.000 A 
ATOM      6  C   UNL     1       4.234   3.555  18.370  0.00  0.00    +0.000 A 
ENDROOT
BRANCH   1   8
ATOM      7  O   UNL     1       4.816   1.907  20.596  0.00  0.00    +0.000 OA
ATOM      8  N   UNL     1       3.818   2.641  20.640  0.00  0.00    +0.000 N 
ATOM      9  O   UNL     1       2.887   2.516  21.448  0.00  0.00    +0.000 OA
ENDBRANCH   1   8
BRANCH   5  10
ATOM     10  C   UNL     1       4.627   4.414  16.073  0.00  0.00    +0.000 C 
ATOM     11  N   UNL     1       5.897   4.409  15.826  0.00  0.00    +0.000 NA
BRANCH  11  12
ATOM     12  C   UNL     1       6.368   4.280  14.510  0.00  0.00    +0.000 A 
ATOM     13  C   UNL     1       7.372   5.165  14.093  0.00  0.00    +0.000 A 
ATOM     14  C   UNL     1       7.821   5.176  12.769  0.00  0.00    +0.000 A 
ATOM     15  C   UNL     1       7.267   4.296  11.846  0.00  0.00    +0.000 A 
ATOM     16  C   UNL     1       6.274   3.416  12.258  0.00  0.00    +0.000 A 
ATOM     17  F   UNL     1       5.731   2.574  11.367  0.00  0.00    +0.000 F 
ATOM     18  C   UNL     1       5.816   3.403  13.572  0.00  0.00    +0.000 A 
ENDBRANCH  11  12
ENDBRANCH   5  10
TORSDOF 3
ENDMDL
MODEL 9
REMARK VINA RESULT:      -6.8      4.212      7.203
REMARK  Name = 
REMARK  3 active torsions:
REMARK  status: ('A' for Active; 'I' for Inactive)
REMARK    1  A    between atoms: N_2  and  C_4
REMARK    2  A    between atoms: C_8  and  C_9
REMARK    3  A    between atoms: N_10  and  C_11
REMARK                            x       y       z     vdW  Elec       q    Type
REMARK                         _______ _______ _______ _____ _____    ______ ____
ROOT
ATOM      1  C   UNL     1       5.780   3.784  13.247  0.00  0.00    +0.000 A 
ATOM      2  C   UNL     1       7.019   4.439  13.219  0.00  0.00    +0.000 A 
ATOM      3  C   UNL     1       7.472   5.104  14.361  0.00  0.00    +0.000 A 
ATOM      4  C   UNL     1       6.692   5.111  15.517  0.00  0.00    +0.000 A 
ATOM      5  C   UNL     1       5.454   4.457  15.540  0.00  0.00    +0.000 A 
ATOM      6  C   UNL     1       4.986   3.791  14.405  0.00  0.00    +0.000 A 
ENDROOT
BRANCH   1   8
ATOM      7  O   UNL     1       6.019   2.158  11.609  0.00  0.00    +0.000 OA
ATOM      8  N   UNL     1       5.312   3.074  12.051  0.00  0.00    +0.000 N 
ATOM      9  O   UNL     1       4.235   3.435  11.555  0.00  0.00    +0.000 OA
ENDBRANCH   1   8
BRANCH   5  10
ATOM     10  C   UNL     1       4.641   4.446  16.776  0.00  0.00    +0.000 C 
ATOM     11  N   UNL     1       3.563   3.734  16.849  0.00  0.00    +0.000 NA
BRANCH  11  12
ATOM     12  C   UNL     1       2.766   3.764  18.004  0.00  0.00    +0.000 A 
ATOM     13  C   UNL     1       1.834   2.730  18.172  0.00  0.00    +0.000 A 
ATOM     14  C   UNL     1       0.927   2.740  19.237  0.00  0.00    +0.000 A 
ATOM     15  C   UNL     1       0.947   3.790  20.148  0.00  0.00    +0.000 A 
ATOM     16  C   UNL     1       1.871   4.814  19.985  0.00  0.00    +0.000 A 
ATOM     17  F   UNL     1       1.885   5.833  20.856  0.00  0.00    +0.000 F 
ATOM     18  C   UNL     1       2.772   4.815  18.924  0.00  0.00    +0.000 A 
ENDBRANCH  11  12
ENDBRANCH   5  10
TORSDOF 3
ENDMDL
