MODEL 1
REMARK VINA RESULT:      -9.3      0.000      0.000
REMARK  Name = 
REMARK  4 active torsions:
REMARK  status: ('A' for Active; 'I' for Inactive)
REMARK    1  A    between atoms: C_2  and  O_3
REMARK    2  A    between atoms: C_2  and  C_4
REMARK    3  A    between atoms: C_10  and  C_11
REMARK    4  A    between atoms: C_11  and  C_13
REMARK                            x       y       z     vdW  Elec       q    Type
REMARK                         _______ _______ _______ _____ _____    ______ ____
ROOT
ATOM      1  C   UNL     1       5.847   3.469  12.505  0.00  0.00    +0.000 A 
ATOM      2  C   UNL     1       7.025   4.133  12.162  0.00  0.00    +0.000 A 
ATOM      3  C   UNL     1       7.681   4.953  13.084  0.00  0.00    +0.000 A 
ATOM      4  C   UNL     1       7.142   5.048  14.373  0.00  0.00    +0.000 A 
ATOM      5  N   UNL     1       7.583   5.772  15.456  0.00  0.00    +0.000 N 
ATOM      6  C   UNL     1       6.785   5.531  16.538  0.00  0.00    +0.000 A 
ATOM      7  C   UNL     1       5.812   4.608  16.184  0.00  0.00    +0.000 A 
ATOM      8  C   UNL     1       5.994   4.360  14.775  0.00  0.00    +0.000 A 
ATOM      9  C   UNL     1       5.320   3.582  13.803  0.00  0.00    +0.000 A 
ATOM     10  H   UNL     1       8.392   6.378  15.453  0.00  0.00    +0.000 HD
ENDROOT
BRANCH   1  12
ATOM     11  O   UNL     1       4.191   2.876  10.907  0.00  0.00    +0.000 OA
ATOM     12  C   UNL     1       5.218   2.584  11.493  0.00  0.00    +0.000 C 
BRANCH  12  13
ATOM     13  O   UNL     1       5.871   1.418  11.302  0.00  0.00    +0.000 OA
ATOM     14  H   UNL     1       5.462   0.638  11.721  0.00  0.00    +0.000 HD
ENDBRANCH  12  13
ENDBRANCH   1  12
BRANCH   7  15
ATOM     15  C   UNL     1       4.853   4.061  17.157  0.00  0.00    +0.000 C 
ATOM     16  O   UNL     1       4.769   2.852  17.353  0.00  0.00    +0.000 OA
BRANCH  15  17
ATOM     17  C   UNL     1       3.918   4.993  17.862  0.00  0.00    +0.000 A 
ATOM     18  C   UNL     1       3.826   6.312  17.380  0.00  0.00    +0.000 A 
ATOM     19  C   UNL     1       3.090   7.267  18.069  0.00  0.00    +0.000 A 
ATOM     20  C   UNL     1       2.387   6.901  19.211  0.00  0.00    +0.000 A 
ATOM     21  C   UNL     1       2.376   5.571  19.658  0.00  0.00    +0.000 A 
ATOM     22  C   UNL     1       1.594   5.227  20.772  0.00  0.00    +0.000 A 
ATOM     23  C   UNL     1       1.522   3.912  21.226  0.00  0.00    +0.000 A 
ATOM     24  C   UNL     1       2.252   2.927  20.579  0.00  0.00    +0.000 A 
ATOM     25  C   UNL     1       3.059   3.257  19.486  0.00  0.00    +0.000 A 
ATOM     26  C   UNL     1       3.140   4.581  18.984  0.00  0.00    +0.000 A 
ENDBRANCH  15  17
ENDBRANCH   7  15
TORSDOF 4
ENDMDL
MODEL 2
REMARK VINA RESULT:      -8.8      4.409      8.632
REMARK  Name = 
REMARK  4 active torsions:
REMARK  status: ('A' for Active; 'I' for Inactive)
REMARK    1  A    between atoms: C_2  and  O_3
REMARK    2  A    between atoms: C_2  and  C_4
REMARK    3  A    between atoms: C_10  and  C_11
REMARK    4  A    between atoms: C_11  and  C_13
REMARK                            x       y       z     vdW  Elec       q    Type
REMARK                         _______ _______ _______ _____ _____    ______ ____
ROOT
ATOM      1  C   UNL     1       0.159  10.087  21.490  0.00  0.00    +0.000 A 
ATOM      2  C   UNL     1      -0.205  11.034  20.532  0.00  0.00    +0.000 A 
ATOM      3  C   UNL     1       0.241  10.926  19.212  0.00  0.00    +0.000 A 
ATOM      4  C   UNL     1       1.024   9.814  18.876  0.00  0.00    +0.000 A 
ATOM      5  N   UNL     1       1.583   9.469  17.668  0.00  0.00    +0.000 N 
ATOM      6  C   UNL     1       2.225   8.269  17.774  0.00  0.00    +0.000 A 
ATOM      7  C   UNL     1       2.071   7.787  19.064  0.00  0.00    +0.000 A 
ATOM      8  C   UNL     1       1.368   8.815  19.791  0.00  0.00    +0.000 A 
ATOM      9  C   UNL     1       0.950   8.982  21.133  0.00  0.00    +0.000 A 
ATOM     10  H   UNL     1       1.509  10.016  16.821  0.00  0.00    +0.000 HD
ENDROOT
BRANCH   1  12
ATOM     11  O   UNL     1      -1.408  10.839  23.111  0.00  0.00    +0.000 OA
ATOM     12  C   UNL     1      -0.377  10.238  22.866  0.00  0.00    +0.000 C 
BRANCH  12  13
ATOM     13  O   UNL     1       0.392   9.673  23.820  0.00  0.00    +0.000 OA
ATOM     14  H   UNL     1      -0.044   8.982  24.352  0.00  0.00    +0.000 HD
ENDBRANCH  12  13
ENDBRANCH   1  12
BRANCH   7  15
ATOM     15  C   UNL     1       2.563   6.462  19.477  0.00  0.00    +0.000 C 
ATOM     16  O   UNL     1       2.741   6.193  20.661  0.00  0.00    +0.000 OA
BRANCH  15  17
ATOM     17  C   UNL     1       2.919   5.457  18.427  0.00  0.00    +0.000 A 
ATOM     18  C   UNL     1       1.930   4.527  18.054  0.00  0.00    +0.000 A 
ATOM     19  C   UNL     1       2.233   3.480  17.194  0.00  0.00    +0.000 A 
ATOM     20  C   UNL     1       3.507   3.387  16.646  0.00  0.00    +0.000 A 
ATOM     21  C   UNL     1       4.484   4.357  16.917  0.00  0.00    +0.000 A 
ATOM     22  C   UNL     1       5.734   4.269  16.287  0.00  0.00    +0.000 A 
ATOM     23  C   UNL     1       6.719   5.232  16.495  0.00  0.00    +0.000 A 
ATOM     24  C   UNL     1       6.468   6.287  17.358  0.00  0.00    +0.000 A 
ATOM     25  C   UNL     1       5.239   6.375  18.018  0.00  0.00    +0.000 A 
ATOM     26  C   UNL     1       4.205   5.424  17.813  0.00  0.00    +0.000 A 
ENDBRANCH  15  17
ENDBRANCH   7  15
TORSDOF 4
ENDMDL
MODEL 3
REMARK VINA RESULT:      -8.8      3.226      7.277
REMARK  Name = 
REMARK  4 active torsions:
REMARK  status: ('A' for Active; 'I' for Inactive)
REMARK    1  A    between atoms: C_2  and  O_3
REMARK    2  A    between atoms: C_2  and  C_4
REMARK    3  A    between atoms: C_10  and  C_11
REMARK    4  A    between atoms: C_11  and  C_13
REMARK                            x       y       z     vdW  Elec       q    Type
REMARK                         _______ _______ _______ _____ _____    ______ ____
ROOT
ATOM      1  C   UNL     1       1.690   8.625  18.847  0.00  0.00    +0.000 A 
ATOM      2  C   UNL     1       1.240   8.801  20.156  0.00  0.00    +0.000 A 
ATOM      3  C   UNL     1       1.262   7.744  21.070  0.00  0.00    +0.000 A 
ATOM      4  C   UNL     1       1.794   6.521  20.642  0.00  0.00    +0.000 A 
ATOM      5  N   UNL     1       1.936   5.338  21.329  0.00  0.00    +0.000 N 
ATOM      6  C   UNL     1       2.557   4.411  20.543  0.00  0.00    +0.000 A 
ATOM      7  C   UNL     1       2.864   4.988  19.321  0.00  0.00    +0.000 A 
ATOM      8  C   UNL     1       2.304   6.317  19.357  0.00  0.00    +0.000 A 
ATOM      9  C   UNL     1       2.215   7.388  18.436  0.00  0.00    +0.000 A 
ATOM     10  H   UNL     1       1.640   5.188  22.284  0.00  0.00    +0.000 HD
ENDROOT
BRANCH   1  12
ATOM     11  O   UNL     1       2.690  10.304  17.495  0.00  0.00    +0.000 OA
ATOM     12  C   UNL     1       1.674   9.796  17.935  0.00  0.00    +0.000 C 
BRANCH  12  13
ATOM     13  O   UNL     1       0.437  10.260  17.660  0.00  0.00    +0.000 OA
ATOM     14  H   UNL     1      -0.097  10.508  18.437  0.00  0.00    +0.000 HD
ENDBRANCH  12  13
ENDBRANCH   1  12
BRANCH   7  15
ATOM     15  C   UNL     1       3.629   4.278  18.282  0.00  0.00    +0.000 C 
ATOM     16  O   UNL     1       3.143   3.328  17.676  0.00  0.00    +0.000 OA
BRANCH  15  17
ATOM     17  C   UNL     1       5.046   4.680  18.017  0.00  0.00    +0.000 A 
ATOM     18  C   UNL     1       5.830   5.071  19.119  0.00  0.00    +0.000 A 
ATOM     19  C   UNL     1       7.103   5.591  18.932  0.00  0.00    +0.000 A 
ATOM     20  C   UNL     1       7.633   5.666  17.649  0.00  0.00    +0.000 A 
ATOM     21  C   UNL     1       6.917   5.189  16.541  0.00  0.00    +0.000 A 
ATOM     22  C   UNL     1       7.515   5.215  15.273  0.00  0.00    +0.000 A 
ATOM     23  C   UNL     1       6.857   4.715  14.151  0.00  0.00    +0.000 A 
ATOM     24  C   UNL     1       5.577   4.200  14.287  0.00  0.00    +0.000 A 
ATOM     25  C   UNL     1       4.953   4.194  15.538  0.00  0.00    +0.000 A 
ATOM     26  C   UNL     1       5.602   4.675  16.705  0.00  0.00    +0.000 A 
ENDBRANCH  15  17
ENDBRANCH   7  15
TORSDOF 4
ENDMDL
MODEL 4
REMARK VINA RESULT:      -8.7      1.237      2.250
REMARK  Name = 
REMARK  4 active torsions:
REMARK  status: ('A' for Active; 'I' for Inactive)
REMARK    1  A    between atoms: C_2  and  O_3
REMARK    2  A    between atoms: C_2  and  C_4
REMARK    3  A    between atoms: C_10  and  C_11
REMARK    4  A    between atoms: C_11  and  C_13
REMARK                            x       y       z     vdW  Elec       q    Type
REMARK                         _______ _______ _______ _____ _____    ______ ____
ROOT
ATOM      1  C   UNL     1       5.726   3.868  13.003  0.00  0.00    +0.000 A 
ATOM      2  C   UNL     1       7.087   4.145  12.875  0.00  0.00    +0.000 A 
ATOM      3  C   UNL     1       7.759   4.899  13.841  0.00  0.00    +0.000 A 
ATOM      4  C   UNL     1       7.031   5.327  14.959  0.00  0.00    +0.000 A 
ATOM      5  N   UNL     1       7.443   6.069  16.040  0.00  0.00    +0.000 N 
ATOM      6  C   UNL     1       6.417   6.210  16.930  0.00  0.00    +0.000 A 
ATOM      7  C   UNL     1       5.309   5.527  16.453  0.00  0.00    +0.000 A 
ATOM      8  C   UNL     1       5.680   5.028  15.152  0.00  0.00    +0.000 A 
ATOM      9  C   UNL     1       5.013   4.311  14.130  0.00  0.00    +0.000 A 
ATOM     10  H   UNL     1       8.376   6.438  16.165  0.00  0.00    +0.000 HD
ENDROOT
BRANCH   1  12
ATOM     11  O   UNL     1       4.029   3.339  11.425  0.00  0.00    +0.000 OA
ATOM     12  C   UNL     1       5.078   3.031  11.962  0.00  0.00    +0.000 C 
BRANCH  12  13
ATOM     13  O   UNL     1       5.742   1.889  11.685  0.00  0.00    +0.000 OA
ATOM     14  H   UNL     1       6.267   1.523  12.422  0.00  0.00    +0.000 HD
ENDBRANCH  12  13
ENDBRANCH   1  12
BRANCH   7  15
ATOM     15  C   UNL     1       4.064   5.402  17.229  0.00  0.00    +0.000 C 
ATOM     16  O   UNL     1       3.333   6.370  17.414  0.00  0.00    +0.000 OA
BRANCH  15  17
ATOM     17  C   UNL     1       3.728   4.087  17.859  0.00  0.00    +0.000 A 
ATOM     18  C   UNL     1       4.112   2.918  17.175  0.00  0.00    +0.000 A 
ATOM     19  C   UNL     1       3.709   1.670  17.627  0.00  0.00    +0.000 A 
ATOM     20  C   UNL     1       2.972   1.568  18.802  0.00  0.00    +0.000 A 
ATOM     21  C   UNL     1       2.662   2.706  19.561  0.00  0.00    +0.000 A 
ATOM     22  C   UNL     1       1.980   2.556  20.778  0.00  0.00    +0.000 A 
ATOM     23  C   UNL     1       1.686   3.654  21.584  0.00  0.00    +0.000 A 
ATOM     24  C   UNL     1       2.056   4.923  21.166  0.00  0.00    +0.000 A 
ATOM     25  C   UNL     1       2.708   5.095  19.942  0.00  0.00    +0.000 A 
ATOM     26  C   UNL     1       3.042   3.998  19.106  0.00  0.00    +0.000 A 
ENDBRANCH  15  17
ENDBRANCH   7  15
TORSDOF 4
ENDMDL
MODEL 5
REMARK VINA RESULT:      -8.7      0.943      2.466
REMARK  Name = 
REMARK  4 active torsions:
REMARK  status: ('A' for Active; 'I' for Inactive)
REMARK    1  A    between atoms: C_2  and  O_3
REMARK    2  A    between atoms: C_2  and  C_4
REMARK    3  A    between atoms: C_10  and  C_11
REMARK    4  A    between atoms: C_11  and  C_13
REMARK                            x       y       z     vdW  Elec       q    Type
REMARK                         _______ _______ _______ _____ _____    ______ ____
ROOT
ATOM      1  C   UNL     1       5.930   3.842  13.461  0.00  0.00    +0.000 A 
ATOM      2  C   UNL     1       7.172   4.478  13.446  0.00  0.00    +0.000 A 
ATOM      3  C   UNL     1       7.698   5.050  14.608  0.00  0.00    +0.000 A 
ATOM      4  C   UNL     1       6.959   4.922  15.792  0.00  0.00    +0.000 A 
ATOM      5  N   UNL     1       7.244   5.382  17.056  0.00  0.00    +0.000 N 
ATOM      6  C   UNL     1       6.272   4.985  17.929  0.00  0.00    +0.000 A 
ATOM      7  C   UNL     1       5.337   4.222  17.247  0.00  0.00    +0.000 A 
ATOM      8  C   UNL     1       5.737   4.248  15.861  0.00  0.00    +0.000 A 
ATOM      9  C   UNL     1       5.203   3.730  14.657  0.00  0.00    +0.000 A 
ATOM     10  H   UNL     1       8.064   5.918  17.303  0.00  0.00    +0.000 HD
ENDROOT
BRANCH   1  12
ATOM     11  O   UNL     1       4.419   3.578  11.645  0.00  0.00    +0.000 OA
ATOM     12  C   UNL     1       5.443   3.223  12.203  0.00  0.00    +0.000 C 
BRANCH  12  13
ATOM     13  O   UNL     1       6.220   2.218  11.749  0.00  0.00    +0.000 OA
ATOM     14  H   UNL     1       6.299   1.450  12.346  0.00  0.00    +0.000 HD
ENDBRANCH  12  13
ENDBRANCH   1  12
BRANCH   7  15
ATOM     15  C   UNL     1       4.212   3.558  17.927  0.00  0.00    +0.000 C 
ATOM     16  O   UNL     1       3.851   2.431  17.601  0.00  0.00    +0.000 OA
BRANCH  15  17
ATOM     17  C   UNL     1       3.456   4.303  18.981  0.00  0.00    +0.000 A 
ATOM     18  C   UNL     1       3.143   3.614  20.168  0.00  0.00    +0.000 A 
ATOM     19  C   UNL     1       2.323   4.194  21.127  0.00  0.00    +0.000 A 
ATOM     20  C   UNL     1       1.860   5.491  20.942  0.00  0.00    +0.000 A 
ATOM     21  C   UNL     1       2.240   6.242  19.819  0.00  0.00    +0.000 A 
ATOM     22  C   UNL     1       1.812   7.573  19.705  0.00  0.00    +0.000 A 
ATOM     23  C   UNL     1       2.197   8.367  18.627  0.00  0.00    +0.000 A 
ATOM     24  C   UNL     1       3.002   7.826  17.637  0.00  0.00    +0.000 A 
ATOM     25  C   UNL     1       3.413   6.493  17.719  0.00  0.00    +0.000 A 
ATOM     26  C   UNL     1       3.058   5.661  18.812  0.00  0.00    +0.000 A 
ENDBRANCH  15  17
ENDBRANCH   7  15
TORSDOF 4
ENDMDL
MODEL 6
REMARK VINA RESULT:      -8.6      3.600      5.549
REMARK  Name = 
REMARK  4 active torsions:
REMARK  status: ('A' for Active; 'I' for Inactive)
REMARK    1  A    between atoms: C_2  and  O_3
REMARK    2  A    between atoms: C_2  and  C_4
REMARK    3  A    between atoms: C_10  and  C_11
REMARK    4  A    between atoms: C_11  and  C_13
REMARK                            x       y       z     vdW  Elec       q    Type
REMARK                         _______ _______ _______ _____ _____    ______ ____
ROOT
ATOM      1  C   UNL     1       6.200   5.731  17.589  0.00  0.00    +0.000 A 
ATOM      2  C   UNL     1       6.065   4.781  16.577  0.00  0.00    +0.000 A 
ATOM      3  C   UNL     1       4.878   4.059  16.424  0.00  0.00    +0.000 A 
ATOM      4  C   UNL     1       3.818   4.355  17.291  0.00  0.00    +0.000 A 
ATOM      5  N   UNL     1       2.560   3.804  17.355  0.00  0.00    +0.000 N 
ATOM      6  C   UNL     1       1.823   4.430  18.320  0.00  0.00    +0.000 A 
ATOM      7  C   UNL     1       2.587   5.436  18.890  0.00  0.00    +0.000 A 
ATOM      8  C   UNL     1       3.892   5.335  18.284  0.00  0.00    +0.000 A 
ATOM      9  C   UNL     1       5.126   6.009  18.452  0.00  0.00    +0.000 A 
ATOM     10  H   UNL     1       2.226   3.058  16.761  0.00  0.00    +0.000 HD
ENDROOT
BRANCH   1  12
ATOM     11  O   UNL     1       8.095   6.619  18.715  0.00  0.00    +0.000 OA
ATOM     12  C   UNL     1       7.473   6.490  17.676  0.00  0.00    +0.000 C 
BRANCH  12  13
ATOM     13  O   UNL     1       7.862   7.044  16.509  0.00  0.00    +0.000 OA
ATOM     14  H   UNL     1       7.370   7.843  16.242  0.00  0.00    +0.000 HD
ENDBRANCH  12  13
ENDBRANCH   1  12
BRANCH   7  15
ATOM     15  C   UNL     1       2.047   6.364  19.896  0.00  0.00    +0.000 C 
ATOM     16  O   UNL     1       1.801   5.988  21.038  0.00  0.00    +0.000 OA
BRANCH  15  17
ATOM     17  C   UNL     1       1.727   7.770  19.494  0.00  0.00    +0.000 A 
ATOM     18  C   UNL     1       2.084   8.174  18.194  0.00  0.00    +0.000 A 
ATOM     19  C   UNL     1       1.948   9.498  17.803  0.00  0.00    +0.000 A 
ATOM     20  C   UNL     1       1.395  10.422  18.682  0.00  0.00    +0.000 A 
ATOM     21  C   UNL     1       0.934  10.029  19.948  0.00  0.00    +0.000 A 
ATOM     22  C   UNL     1       0.314  10.975  20.778  0.00  0.00    +0.000 A 
ATOM     23  C   UNL     1      -0.194  10.621  22.025  0.00  0.00    +0.000 A 
ATOM     24  C   UNL     1      -0.068   9.313  22.465  0.00  0.00    +0.000 A 
ATOM     25  C   UNL     1       0.574   8.363  21.664  0.00  0.00    +0.000 A 
ATOM     26  C   UNL     1       1.084   8.684  20.380  0.00  0.00    +0.000 A 
ENDBRANCH  15  17
ENDBRANCH   7  15
TORSDOF 4
ENDMDL
MODEL 7
REMARK VINA RESULT:      -8.6      3.088      6.795
REMARK  Name = 
REMARK  4 active torsions:
REMARK  status: ('A' for Active; 'I' for Inactive)
REMARK    1  A    between atoms: C_2  and  O_3
REMARK    2  A    between atoms: C_2  and  C_4
REMARK    3  A    between atoms: C_10  and  C_11
REMARK    4  A    between atoms: C_11  and  C_13
REMARK                            x       y       z     vdW  Elec       q    Type
REMARK                         _______ _______ _______ _____ _____    ______ ____
ROOT
ATOM      1  C   UNL     1       2.035   7.535  18.975  0.00  0.00    +0.000 A 
ATOM      2  C   UNL     1       1.547   7.627  20.278  0.00  0.00    +0.000 A 
ATOM      3  C   UNL     1       1.489   6.500  21.103  0.00  0.00    +0.000 A 
ATOM      4  C   UNL     1       1.979   5.291  20.593  0.00  0.00    +0.000 A 
ATOM      5  N   UNL     1       2.042   4.052  21.186  0.00  0.00    +0.000 N 
ATOM      6  C   UNL     1       2.649   3.161  20.346  0.00  0.00    +0.000 A 
ATOM      7  C   UNL     1       3.025   3.819  19.186  0.00  0.00    +0.000 A 
ATOM      8  C   UNL     1       2.525   5.166  19.313  0.00  0.00    +0.000 A 
ATOM      9  C   UNL     1       2.517   6.311  18.481  0.00  0.00    +0.000 A 
ATOM     10  H   UNL     1       1.706   3.839  22.115  0.00  0.00    +0.000 HD
ENDROOT
BRANCH   1  12
ATOM     11  O   UNL     1       2.677   8.829  17.088  0.00  0.00    +0.000 OA
ATOM     12  C   UNL     1       2.104   8.775  18.162  0.00  0.00    +0.000 C 
BRANCH  12  13
ATOM     13  O   UNL     1       1.500   9.839  18.730  0.00  0.00    +0.000 OA
ATOM     14  H   UNL     1       1.472   9.830  19.705  0.00  0.00    +0.000 HD
ENDBRANCH  12  13
ENDBRANCH   1  12
BRANCH   7  15
ATOM     15  C   UNL     1       3.793   3.159  18.118  0.00  0.00    +0.000 C 
ATOM     16  O   UNL     1       3.756   1.941  17.971  0.00  0.00    +0.000 OA
BRANCH  15  17
ATOM     17  C   UNL     1       4.687   3.984  17.246  0.00  0.00    +0.000 A 
ATOM     18  C   UNL     1       4.440   3.970  15.860  0.00  0.00    +0.000 A 
ATOM     19  C   UNL     1       5.313   4.595  14.980  0.00  0.00    +0.000 A 
ATOM     20  C   UNL     1       6.407   5.294  15.477  0.00  0.00    +0.000 A 
ATOM     21  C   UNL     1       6.623   5.412  16.858  0.00  0.00    +0.000 A 
ATOM     22  C   UNL     1       7.697   6.188  17.322  0.00  0.00    +0.000 A 
ATOM     23  C   UNL     1       7.926   6.365  18.685  0.00  0.00    +0.000 A 
ATOM     24  C   UNL     1       7.089   5.748  19.602  0.00  0.00    +0.000 A 
ATOM     25  C   UNL     1       6.033   4.947  19.158  0.00  0.00    +0.000 A 
ATOM     26  C   UNL     1       5.757   4.761  17.778  0.00  0.00    +0.000 A 
ENDBRANCH  15  17
ENDBRANCH   7  15
TORSDOF 4
ENDMDL
MODEL 8
REMARK VINA RESULT:      -8.6      4.684      7.154
REMARK  Name = 
REMARK  4 active torsions:
REMARK  status: ('A' for Active; 'I' for Inactive)
REMARK    1  A    between atoms: C_2  and  O_3
REMARK    2  A    between atoms: C_2  and  C_4
REMARK    3  A    between atoms: C_10  and  C_11
REMARK    4  A    between atoms: C_11  and  C_13
REMARK                            x       y       z     vdW  Elec       q    Type
REMARK                         _______ _______ _______ _____ _____    ______ ____
ROOT
ATOM      1  C   UNL     1       4.082   5.847  17.562  0.00  0.00    +0.000 A 
ATOM      2  C   UNL     1       3.868   4.884  18.549  0.00  0.00    +0.000 A 
ATOM      3  C   UNL     1       3.095   5.174  19.677  0.00  0.00    +0.000 A 
ATOM      4  C   UNL     1       2.508   6.443  19.759  0.00  0.00    +0.000 A 
ATOM      5  N   UNL     1       1.712   6.978  20.744  0.00  0.00    +0.000 N 
ATOM      6  C   UNL     1       1.311   8.235  20.391  0.00  0.00    +0.000 A 
ATOM      7  C   UNL     1       1.821   8.537  19.138  0.00  0.00    +0.000 A 
ATOM      8  C   UNL     1       2.653   7.418  18.768  0.00  0.00    +0.000 A 
ATOM      9  C   UNL     1       3.488   7.116  17.666  0.00  0.00    +0.000 A 
ATOM     10  H   UNL     1       1.447   6.500  21.594  0.00  0.00    +0.000 HD
ENDROOT
BRANCH   1  12
ATOM     11  O   UNL     1       5.081   4.307  16.052  0.00  0.00    +0.000 OA
ATOM     12  C   UNL     1       4.881   5.466  16.371  0.00  0.00    +0.000 C 
BRANCH  12  13
ATOM     13  O   UNL     1       5.386   6.516  15.690  0.00  0.00    +0.000 OA
ATOM     14  H   UNL     1       6.354   6.507  15.569  0.00  0.00    +0.000 HD
ENDBRANCH  12  13
ENDBRANCH   1  12
BRANCH   7  15
ATOM     15  C   UNL     1       1.489   9.784  18.430  0.00  0.00    +0.000 C 
ATOM     16  O   UNL     1       2.146  10.157  17.462  0.00  0.00    +0.000 OA
BRANCH  15  17
ATOM     17  C   UNL     1       0.377  10.641  18.946  0.00  0.00    +0.000 A 
ATOM     18  C   UNL     1       0.667  11.512  20.014  0.00  0.00    +0.000 A 
ATOM     19  C   UNL     1      -0.346  12.230  20.635  0.00  0.00    +0.000 A 
ATOM     20  C   UNL     1      -1.648  12.137  20.157  0.00  0.00    +0.000 A 
ATOM     21  C   UNL     1      -1.951  11.358  19.030  0.00  0.00    +0.000 A 
ATOM     22  C   UNL     1      -3.263  11.348  18.534  0.00  0.00    +0.000 A 
ATOM     23  C   UNL     1      -3.600  10.620  17.395  0.00  0.00    +0.000 A 
ATOM     24  C   UNL     1      -2.626   9.875  16.750  0.00  0.00    +0.000 A 
ATOM     25  C   UNL     1      -1.320   9.850  17.247  0.00  0.00    +0.000 A 
ATOM     26  C   UNL     1      -0.936  10.595  18.392  0.00  0.00    +0.000 A 
ENDBRANCH  15  17
ENDBRANCH   7  15
TORSDOF 4
ENDMDL
MODEL 9
REMARK VINA RESULT:      -8.6      4.670      7.446
REMARK  Name = 
REMARK  4 active torsions:
REMARK  status: ('A' for Active; 'I' for Inactive)
REMARK    1  A    between atoms: C_2  and  O_3
REMARK    2  A    between atoms: C_2  and  C_4
REMARK    3  A    between atoms: C_10  and  C_11
REMARK    4  A    between atoms: C_11  and  C_13
REMARK                            x       y       z     vdW  Elec       q    Type
REMARK                         _______ _______ _______ _____ _____    ______ ____
ROOT
ATOM      1  C   UNL     1       2.753   4.913  18.384  0.00  0.00    +0.000 A 
ATOM      2  C   UNL     1       2.484   4.339  19.627  0.00  0.00    +0.000 A 
ATOM      3  C   UNL     1       2.055   5.122  20.702  0.00  0.00    +0.000 A 
ATOM      4  C   UNL     1       1.861   6.491  20.476  0.00  0.00    +0.000 A 
ATOM      5  N   UNL     1       1.447   7.473  21.345  0.00  0.00    +0.000 N 
ATOM      6  C   UNL     1       1.341   8.666  20.690  0.00  0.00    +0.000 A 
ATOM      7  C   UNL     1       1.658   8.476  19.354  0.00  0.00    +0.000 A 
ATOM      8  C   UNL     1       2.068   7.098  19.234  0.00  0.00    +0.000 A 
ATOM      9  C   UNL     1       2.557   6.290  18.180  0.00  0.00    +0.000 A 
ATOM     10  H   UNL     1       1.235   7.325  22.322  0.00  0.00    +0.000 HD
ENDROOT
BRANCH   1  12
ATOM     11  O   UNL     1       4.222   4.162  16.674  0.00  0.00    +0.000 OA
ATOM     12  C   UNL     1       3.171   4.022  17.273  0.00  0.00    +0.000 C 
BRANCH  12  13
ATOM     13  O   UNL     1       2.271   3.063  16.972  0.00  0.00    +0.000 OA
ATOM     14  H   UNL     1       2.635   2.277  16.523  0.00  0.00    +0.000 HD
ENDBRANCH  12  13
ENDBRANCH   1  12
BRANCH   7  15
ATOM     15  C   UNL     1       1.543   9.551  18.355  0.00  0.00    +0.000 C 
ATOM     16  O   UNL     1       2.211   9.533  17.325  0.00  0.00    +0.000 OA
BRANCH  15  17
ATOM     17  C   UNL     1       0.650  10.718  18.638  0.00  0.00    +0.000 A 
ATOM     18  C   UNL     1       1.227  11.848  19.248  0.00  0.00    +0.000 A 
ATOM     19  C   UNL     1       0.434  12.906  19.669  0.00  0.00    +0.000 A 
ATOM     20  C   UNL     1      -0.935  12.878  19.429  0.00  0.00    +0.000 A 
ATOM     21  C   UNL     1      -1.525  11.813  18.731  0.00  0.00    +0.000 A 
ATOM     22  C   UNL     1      -2.897  11.856  18.443  0.00  0.00    +0.000 A 
ATOM     23  C   UNL     1      -3.517  10.840  17.719  0.00  0.00    +0.000 A 
ATOM     24  C   UNL     1      -2.768   9.755  17.291  0.00  0.00    +0.000 A 
ATOM     25  C   UNL     1      -1.406   9.681  17.595  0.00  0.00    +0.000 A 
ATOM     26  C   UNL     1      -0.738  10.707  18.312  0.00  0.00    +0.000 A 
ENDBRANCH  15  17
ENDBRANCH   7  15
TORSDOF 4
ENDMDL
