MODEL 1
REMARK VINA RESULT:      -6.7      0.000      0.000
REMARK  Name = 
REMARK  6 active torsions:
REMARK  status: ('A' for Active; 'I' for Inactive)
REMARK    1  A    between atoms: N_4  and  C1*_5
REMARK    2  A    between atoms: C4*_7  and  C5*_8
REMARK    3  A    between atoms: C5*_8  and  O5*_9
REMARK    4  A    between atoms: C3*_10  and  O3*_11
REMARK    5  A    between atoms: C2*_12  and  O2*_13
REMARK    6  A    between atoms: C_16  and  S_17
REMARK                            x       y       z     vdW  Elec       q    Type
REMARK                         _______ _______ _______ _____ _____    ______ ____
ROOT
ATOM      1  C1* UNL     1       4.255   3.446  18.016  0.00  0.00    +0.000 C 
ATOM      2  O4* UNL     1       2.936   3.905  17.653  0.00  0.00    +0.000 OA
ATOM      3  C4* UNL     1       1.982   3.216  18.500  0.00  0.00    +0.000 C 
ATOM      4  C3* UNL     1       2.786   2.232  19.349  0.00  0.00    +0.000 C 
ATOM      5  C2* UNL     1       4.162   2.876  19.428  0.00  0.00    +0.000 C 
ENDROOT
BRANCH   1   9
ATOM      6  O   UNL     1       8.110   5.451  19.483  0.00  0.00    +0.000 OA
ATOM      7  C   UNL     1       7.144   5.576  18.672  0.00  0.00    +0.000 A 
ATOM      8  N   UNL     1       6.260   4.573  18.696  0.00  0.00    +0.000 NA
ATOM      9  N   UNL     1       5.221   4.544  17.885  0.00  0.00    +0.000 N 
ATOM     10  C   UNL     1       5.008   5.536  17.010  0.00  0.00    +0.000 A 
ATOM     11  C   UNL     1       5.845   6.622  16.937  0.00  0.00    +0.000 A 
ATOM     12  C   UNL     1       6.934   6.662  17.794  0.00  0.00    +0.000 A 
BRANCH  12  13
ATOM     13  S   UNL     1       7.953   8.138  17.783  0.00  0.00    +0.000 S 
ATOM     14  H   UNL     1       7.033   8.993  17.326  0.00  0.00    +0.000 HD
ENDBRANCH  12  13
ENDBRANCH   1   9
BRANCH   4  15
ATOM     15  O3* UNL     1       2.980   0.988  18.642  0.00  0.00    +0.000 OA
ATOM     16  H3* UNL     1       3.929   0.760  18.645  0.00  0.00    +0.000 HD
ENDBRANCH   4  15
BRANCH   5  17
ATOM     17  O2* UNL     1       5.173   1.905  19.704  0.00  0.00    +0.000 OA
ATOM     18  H2* UNL     1       5.228   1.823  20.679  0.00  0.00    +0.000 HD
ENDBRANCH   5  17
BRANCH   3  19
ATOM     19  C5* UNL     1       1.196   4.228  19.336  0.00  0.00    +0.000 C 
BRANCH  19  20
ATOM     20  O5* UNL     1       0.560   3.555  20.419  0.00  0.00    +0.000 OA
ATOM     21  H5* UNL     1       1.182   2.879  20.747  0.00  0.00    +0.000 HD
ENDBRANCH  19  20
ENDBRANCH   3  19
TORSDOF 6
ENDMDL
MODEL 2
REMARK VINA RESULT:      -6.7      1.311      1.411
REMARK  Name = 
REMARK  6 active torsions:
REMARK  status: ('A' for Active; 'I' for Inactive)
REMARK    1  A    between atoms: N_4  and  C1*_5
REMARK    2  A    between atoms: C4*_7  and  C5*_8
REMARK    3  A    between atoms: C5*_8  and  O5*_9
REMARK    4  A    between atoms: C3*_10  and  O3*_11
REMARK    5  A    between atoms: C2*_12  and  O2*_13
REMARK    6  A    between atoms: C_16  and  S_17
REMARK                            x       y       z     vdW  Elec       q    Type
REMARK                         _______ _______ _______ _____ _____    ______ ____
ROOT
ATOM      1  C1* UNL     1       3.122   3.771  18.179  0.00  0.00    +0.000 C 
ATOM      2  O4* UNL     1       2.141   4.438  19.000  0.00  0.00    +0.000 OA
ATOM      3  C4* UNL     1       1.557   3.447  19.881  0.00  0.00    +0.000 C 
ATOM      4  C3* UNL     1       2.171   2.103  19.491  0.00  0.00    +0.000 C 
ATOM      5  C2* UNL     1       3.520   2.488  18.904  0.00  0.00    +0.000 C 
ENDROOT
BRANCH   1   9
ATOM      6  O   UNL     1       7.652   4.482  18.243  0.00  0.00    +0.000 OA
ATOM      7  C   UNL     1       6.539   5.038  18.000  0.00  0.00    +0.000 A 
ATOM      8  N   UNL     1       5.473   4.247  18.162  0.00  0.00    +0.000 NA
ATOM      9  N   UNL     1       4.250   4.672  17.912  0.00  0.00    +0.000 N 
ATOM     10  C   UNL     1       4.033   5.927  17.495  0.00  0.00    +0.000 A 
ATOM     11  C   UNL     1       5.064   6.819  17.332  0.00  0.00    +0.000 A 
ATOM     12  C   UNL     1       6.351   6.379  17.603  0.00  0.00    +0.000 A 
BRANCH  12  13
ATOM     13  S   UNL     1       7.681   7.580  17.509  0.00  0.00    +0.000 S 
ATOM     14  H   UNL     1       7.800   7.617  16.178  0.00  0.00    +0.000 HD
ENDBRANCH  12  13
ENDBRANCH   1   9
BRANCH   4  15
ATOM     15  O3* UNL     1       1.434   1.500  18.406  0.00  0.00    +0.000 OA
ATOM     16  H3* UNL     1       0.872   2.175  17.982  0.00  0.00    +0.000 HD
ENDBRANCH   4  15
BRANCH   5  17
ATOM     17  O2* UNL     1       4.008   1.478  18.020  0.00  0.00    +0.000 OA
ATOM     18  H2* UNL     1       4.350   1.938  17.225  0.00  0.00    +0.000 HD
ENDBRANCH   5  17
BRANCH   3  19
ATOM     19  C5* UNL     1       1.815   3.824  21.341  0.00  0.00    +0.000 C 
BRANCH  19  20
ATOM     20  O5* UNL     1       2.023   2.641  22.106  0.00  0.00    +0.000 OA
ATOM     21  H5* UNL     1       1.387   1.973  21.789  0.00  0.00    +0.000 HD
ENDBRANCH  19  20
ENDBRANCH   3  19
TORSDOF 6
ENDMDL
MODEL 3
REMARK VINA RESULT:      -6.6      2.859      5.747
REMARK  Name = 
REMARK  6 active torsions:
REMARK  status: ('A' for Active; 'I' for Inactive)
REMARK    1  A    between atoms: N_4  and  C1*_5
REMARK    2  A    between atoms: C4*_7  and  C5*_8
REMARK    3  A    between atoms: C5*_8  and  O5*_9
REMARK    4  A    between atoms: C3*_10  and  O3*_11
REMARK    5  A    between atoms: C2*_12  and  O2*_13
REMARK    6  A    between atoms: C_16  and  S_17
REMARK                            x       y       z     vdW  Elec       q    Type
REMARK                         _______ _______ _______ _____ _____    ______ ____
ROOT
ATOM      1  C1* UNL     1       5.728   4.488  17.371  0.00  0.00    +0.000 C 
ATOM      2  O4* UNL     1       6.863   4.312  18.245  0.00  0.00    +0.000 OA
ATOM      3  C4* UNL     1       7.785   5.402  17.993  0.00  0.00    +0.000 C 
ATOM      4  C3* UNL     1       7.194   6.213  16.841  0.00  0.00    +0.000 C 
ATOM      5  C2* UNL     1       5.700   5.956  16.958  0.00  0.00    +0.000 C 
ENDROOT
BRANCH   1   9
ATOM      6  O   UNL     1       1.153   4.181  17.352  0.00  0.00    +0.000 OA
ATOM      7  C   UNL     1       2.184   3.939  18.047  0.00  0.00    +0.000 A 
ATOM      8  N   UNL     1       3.341   4.265  17.461  0.00  0.00    +0.000 NA
ATOM      9  N   UNL     1       4.502   4.040  18.044  0.00  0.00    +0.000 N 
ATOM     10  C   UNL     1       4.560   3.482  19.261  0.00  0.00    +0.000 A 
ATOM     11  C   UNL     1       3.423   3.145  19.952  0.00  0.00    +0.000 A 
ATOM     12  C   UNL     1       2.199   3.389  19.347  0.00  0.00    +0.000 A 
BRANCH  12  13
ATOM     13  S   UNL     1       0.715   3.061  20.300  0.00  0.00    +0.000 S 
ATOM     14  H   UNL     1       1.308   2.696  21.441  0.00  0.00    +0.000 HD
ENDBRANCH  12  13
ENDBRANCH   1   9
BRANCH   4  15
ATOM     15  O3* UNL     1       7.586   5.654  15.569  0.00  0.00    +0.000 OA
ATOM     16  H3* UNL     1       8.389   6.107  15.250  0.00  0.00    +0.000 HD
ENDBRANCH   4  15
BRANCH   5  17
ATOM     17  O2* UNL     1       5.038   6.170  15.709  0.00  0.00    +0.000 OA
ATOM     18  H2* UNL     1       5.638   6.718  15.161  0.00  0.00    +0.000 HD
ENDBRANCH   5  17
BRANCH   3  19
ATOM     19  C5* UNL     1       7.986   6.225  19.267  0.00  0.00    +0.000 C 
BRANCH  19  20
ATOM     20  O5* UNL     1       7.902   5.369  20.402  0.00  0.00    +0.000 OA
ATOM     21  H5* UNL     1       8.274   4.505  20.143  0.00  0.00    +0.000 HD
ENDBRANCH  19  20
ENDBRANCH   3  19
TORSDOF 6
ENDMDL
MODEL 4
REMARK VINA RESULT:      -6.6      3.091      5.287
REMARK  Name = 
REMARK  6 active torsions:
REMARK  status: ('A' for Active; 'I' for Inactive)
REMARK    1  A    between atoms: N_4  and  C1*_5
REMARK    2  A    between atoms: C4*_7  and  C5*_8
REMARK    3  A    between atoms: C5*_8  and  O5*_9
REMARK    4  A    between atoms: C3*_10  and  O3*_11
REMARK    5  A    between atoms: C2*_12  and  O2*_13
REMARK    6  A    between atoms: C_16  and  S_17
REMARK                            x       y       z     vdW  Elec       q    Type
REMARK                         _______ _______ _______ _____ _____    ______ ____
ROOT
ATOM      1  C1* UNL     1       5.532   5.414  17.730  0.00  0.00    +0.000 C 
ATOM      2  O4* UNL     1       4.805   5.615  16.499  0.00  0.00    +0.000 OA
ATOM      3  C4* UNL     1       5.738   5.439  15.404  0.00  0.00    +0.000 C 
ATOM      4  C3* UNL     1       7.111   5.208  16.035  0.00  0.00    +0.000 C 
ATOM      5  C2* UNL     1       6.779   4.603  17.391  0.00  0.00    +0.000 C 
ENDROOT
BRANCH   1   9
ATOM      6  O   UNL     1       4.770   1.876  20.547  0.00  0.00    +0.000 OA
ATOM      7  C   UNL     1       4.265   2.953  20.107  0.00  0.00    +0.000 A 
ATOM      8  N   UNL     1       5.037   3.619  19.242  0.00  0.00    +0.000 NA
ATOM      9  N   UNL     1       4.664   4.773  18.725  0.00  0.00    +0.000 N 
ATOM     10  C   UNL     1       3.481   5.316  19.046  0.00  0.00    +0.000 A 
ATOM     11  C   UNL     1       2.609   4.687  19.900  0.00  0.00    +0.000 A 
ATOM     12  C   UNL     1       2.993   3.468  20.438  0.00  0.00    +0.000 A 
BRANCH  12  13
ATOM     13  S   UNL     1       1.803   2.591  21.454  0.00  0.00    +0.000 S 
ATOM     14  H   UNL     1       1.858   1.412  20.825  0.00  0.00    +0.000 HD
ENDBRANCH  12  13
ENDBRANCH   1   9
BRANCH   4  15
ATOM     15  O3* UNL     1       7.760   6.465  16.320  0.00  0.00    +0.000 OA
ATOM     16  H3* UNL     1       7.281   7.186  15.871  0.00  0.00    +0.000 HD
ENDBRANCH   4  15
BRANCH   5  17
ATOM     17  O2* UNL     1       7.843   4.804  18.322  0.00  0.00    +0.000 OA
ATOM     18  H2* UNL     1       7.548   5.500  18.945  0.00  0.00    +0.000 HD
ENDBRANCH   5  17
BRANCH   3  19
ATOM     19  C5* UNL     1       5.286   4.282  14.509  0.00  0.00    +0.000 C 
BRANCH  19  20
ATOM     20  O5* UNL     1       6.425   3.545  14.078  0.00  0.00    +0.000 OA
ATOM     21  H5* UNL     1       7.211   3.958  14.483  0.00  0.00    +0.000 HD
ENDBRANCH  19  20
ENDBRANCH   3  19
TORSDOF 6
ENDMDL
MODEL 5
REMARK VINA RESULT:      -6.2      3.049      5.647
REMARK  Name = 
REMARK  6 active torsions:
REMARK  status: ('A' for Active; 'I' for Inactive)
REMARK    1  A    between atoms: N_4  and  C1*_5
REMARK    2  A    between atoms: C4*_7  and  C5*_8
REMARK    3  A    between atoms: C5*_8  and  O5*_9
REMARK    4  A    between atoms: C3*_10  and  O3*_11
REMARK    5  A    between atoms: C2*_12  and  O2*_13
REMARK    6  A    between atoms: C_16  and  S_17
REMARK                            x       y       z     vdW  Elec       q    Type
REMARK                         _______ _______ _______ _____ _____    ______ ____
ROOT
ATOM      1  C1* UNL     1       5.602   4.581  17.814  0.00  0.00    +0.000 C 
ATOM      2  O4* UNL     1       6.856   4.348  18.489  0.00  0.00    +0.000 OA
ATOM      3  C4* UNL     1       7.756   5.426  18.130  0.00  0.00    +0.000 C 
ATOM      4  C3* UNL     1       7.012   6.293  17.115  0.00  0.00    +0.000 C 
ATOM      5  C2* UNL     1       5.548   6.064  17.461  0.00  0.00    +0.000 C 
ENDROOT
BRANCH   1   9
ATOM      6  O   UNL     1       1.997   5.682  20.427  0.00  0.00    +0.000 OA
ATOM      7  C   UNL     1       2.698   4.708  20.020  0.00  0.00    +0.000 A 
ATOM      8  N   UNL     1       3.694   5.042  19.193  0.00  0.00    +0.000 NA
ATOM      9  N   UNL     1       4.487   4.134  18.659  0.00  0.00    +0.000 N 
ATOM     10  C   UNL     1       4.327   2.834  18.941  0.00  0.00    +0.000 A 
ATOM     11  C   UNL     1       3.352   2.401  19.806  0.00  0.00    +0.000 A 
ATOM     12  C   UNL     1       2.522   3.353  20.378  0.00  0.00    +0.000 A 
BRANCH  12  13
ATOM     13  S   UNL     1       1.332   2.799  21.600  0.00  0.00    +0.000 S 
ATOM     14  H   UNL     1       0.471   2.209  20.764  0.00  0.00    +0.000 HD
ENDBRANCH  12  13
ENDBRANCH   1   9
BRANCH   4  15
ATOM     15  O3* UNL     1       7.180   5.775  15.779  0.00  0.00    +0.000 OA
ATOM     16  H3* UNL     1       6.914   4.837  15.760  0.00  0.00    +0.000 HD
ENDBRANCH   4  15
BRANCH   5  17
ATOM     17  O2* UNL     1       4.702   6.340  16.343  0.00  0.00    +0.000 OA
ATOM     18  H2* UNL     1       5.194   6.064  15.541  0.00  0.00    +0.000 HD
ENDBRANCH   5  17
BRANCH   3  19
ATOM     19  C5* UNL     1       8.179   6.196  19.383  0.00  0.00    +0.000 C 
BRANCH  19  20
ATOM     20  O5* UNL     1       8.081   5.342  20.519  0.00  0.00    +0.000 OA
ATOM     21  H5* UNL     1       7.937   5.910  21.299  0.00  0.00    +0.000 HD
ENDBRANCH  19  20
ENDBRANCH   3  19
TORSDOF 6
ENDMDL
MODEL 6
REMARK VINA RESULT:      -6.2      1.817      2.192
REMARK  Name = 
REMARK  6 active torsions:
REMARK  status: ('A' for Active; 'I' for Inactive)
REMARK    1  A    between atoms: N_4  and  C1*_5
REMARK    2  A    between atoms: C4*_7  and  C5*_8
REMARK    3  A    between atoms: C5*_8  and  O5*_9
REMARK    4  A    between atoms: C3*_10  and  O3*_11
REMARK    5  A    between atoms: C2*_12  and  O2*_13
REMARK    6  A    between atoms: C_16  and  S_17
REMARK                            x       y       z     vdW  Elec       q    Type
REMARK                         _______ _______ _______ _____ _____    ______ ____
ROOT
ATOM      1  C1* UNL     1       3.018   3.851  18.346  0.00  0.00    +0.000 C 
ATOM      2  O4* UNL     1       2.036   4.395  19.253  0.00  0.00    +0.000 OA
ATOM      3  C4* UNL     1       1.499   3.296  20.031  0.00  0.00    +0.000 C 
ATOM      4  C3* UNL     1       2.141   2.022  19.484  0.00  0.00    +0.000 C 
ATOM      5  C2* UNL     1       3.466   2.510  18.918  0.00  0.00    +0.000 C 
ENDROOT
BRANCH   1   9
ATOM      6  O   UNL     1       5.151   6.859  15.620  0.00  0.00    +0.000 OA
ATOM      7  C   UNL     1       5.214   6.290  16.750  0.00  0.00    +0.000 A 
ATOM      8  N   UNL     1       4.206   5.450  17.010  0.00  0.00    +0.000 NA
ATOM      9  N   UNL     1       4.114   4.809  18.159  0.00  0.00    +0.000 N 
ATOM     10  C   UNL     1       5.043   4.973  19.109  0.00  0.00    +0.000 A 
ATOM     11  C   UNL     1       6.131   5.789  18.919  0.00  0.00    +0.000 A 
ATOM     12  C   UNL     1       6.237   6.457  17.708  0.00  0.00    +0.000 A 
BRANCH  12  13
ATOM     13  S   UNL     1       7.719   7.425  17.415  0.00  0.00    +0.000 S 
ATOM     14  H   UNL     1       8.602   6.575  17.948  0.00  0.00    +0.000 HD
ENDBRANCH  12  13
ENDBRANCH   1   9
BRANCH   4  15
ATOM     15  O3* UNL     1       1.398   1.519  18.353  0.00  0.00    +0.000 OA
ATOM     16  H3* UNL     1       1.031   2.269  17.849  0.00  0.00    +0.000 HD
ENDBRANCH   4  15
BRANCH   5  17
ATOM     17  O2* UNL     1       3.963   1.617  17.918  0.00  0.00    +0.000 OA
ATOM     18  H2* UNL     1       3.940   2.102  17.068  0.00  0.00    +0.000 HD
ENDBRANCH   5  17
BRANCH   3  19
ATOM     19  C5* UNL     1       1.779   3.519  21.519  0.00  0.00    +0.000 C 
BRANCH  19  20
ATOM     20  O5* UNL     1       1.480   2.329  22.240  0.00  0.00    +0.000 OA
ATOM     21  H5* UNL     1       1.875   1.583  21.750  0.00  0.00    +0.000 HD
ENDBRANCH  19  20
ENDBRANCH   3  19
TORSDOF 6
ENDMDL
MODEL 7
REMARK VINA RESULT:      -6.2      3.143      5.459
REMARK  Name = 
REMARK  6 active torsions:
REMARK  status: ('A' for Active; 'I' for Inactive)
REMARK    1  A    between atoms: N_4  and  C1*_5
REMARK    2  A    between atoms: C4*_7  and  C5*_8
REMARK    3  A    between atoms: C5*_8  and  O5*_9
REMARK    4  A    between atoms: C3*_10  and  O3*_11
REMARK    5  A    between atoms: C2*_12  and  O2*_13
REMARK    6  A    between atoms: C_16  and  S_17
REMARK                            x       y       z     vdW  Elec       q    Type
REMARK                         _______ _______ _______ _____ _____    ______ ____
ROOT
ATOM      1  C1* UNL     1       5.301   5.377  17.692  0.00  0.00    +0.000 C 
ATOM      2  O4* UNL     1       4.694   5.610  16.405  0.00  0.00    +0.000 OA
ATOM      3  C4* UNL     1       5.726   5.461  15.398  0.00  0.00    +0.000 C 
ATOM      4  C3* UNL     1       7.033   5.213  16.149  0.00  0.00    +0.000 C 
ATOM      5  C2* UNL     1       6.576   4.573  17.452  0.00  0.00    +0.000 C 
ENDROOT
BRANCH   1   9
ATOM      6  O   UNL     1       1.879   5.750  20.721  0.00  0.00    +0.000 OA
ATOM      7  C   UNL     1       2.649   4.918  20.156  0.00  0.00    +0.000 A 
ATOM      8  N   UNL     1       3.504   5.454  19.279  0.00  0.00    +0.000 NA
ATOM      9  N   UNL     1       4.344   4.712  18.586  0.00  0.00    +0.000 N 
ATOM     10  C   UNL     1       4.376   3.382  18.747  0.00  0.00    +0.000 A 
ATOM     11  C   UNL     1       3.558   2.748  19.650  0.00  0.00    +0.000 A 
ATOM     12  C   UNL     1       2.680   3.526  20.388  0.00  0.00    +0.000 A 
BRANCH  12  13
ATOM     13  S   UNL     1       1.701   2.711  21.651  0.00  0.00    +0.000 S 
ATOM     14  H   UNL     1       2.537   2.895  22.678  0.00  0.00    +0.000 HD
ENDBRANCH  12  13
ENDBRANCH   1   9
BRANCH   4  15
ATOM     15  O3* UNL     1       7.651   6.461  16.526  0.00  0.00    +0.000 OA
ATOM     16  H3* UNL     1       8.327   6.700  15.864  0.00  0.00    +0.000 HD
ENDBRANCH   4  15
BRANCH   5  17
ATOM     17  O2* UNL     1       7.548   4.749  18.484  0.00  0.00    +0.000 OA
ATOM     18  H2* UNL     1       7.217   4.266  19.270  0.00  0.00    +0.000 HD
ENDBRANCH   5  17
BRANCH   3  19
ATOM     19  C5* UNL     1       5.361   4.329  14.435  0.00  0.00    +0.000 C 
BRANCH  19  20
ATOM     20  O5* UNL     1       6.537   3.602  14.093  0.00  0.00    +0.000 OA
ATOM     21  H5* UNL     1       7.033   3.444  14.918  0.00  0.00    +0.000 HD
ENDBRANCH  19  20
ENDBRANCH   3  19
TORSDOF 6
ENDMDL
MODEL 8
REMARK VINA RESULT:      -6.1      3.107      5.640
REMARK  Name = 
REMARK  6 active torsions:
REMARK  status: ('A' for Active; 'I' for Inactive)
REMARK    1  A    between atoms: N_4  and  C1*_5
REMARK    2  A    between atoms: C4*_7  and  C5*_8
REMARK    3  A    between atoms: C5*_8  and  O5*_9
REMARK    4  A    between atoms: C3*_10  and  O3*_11
REMARK    5  A    between atoms: C2*_12  and  O2*_13
REMARK    6  A    between atoms: C_16  and  S_17
REMARK                            x       y       z     vdW  Elec       q    Type
REMARK                         _______ _______ _______ _____ _____    ______ ____
ROOT
ATOM      1  C1* UNL     1       5.343   5.809  18.174  0.00  0.00    +0.000 C 
ATOM      2  O4* UNL     1       5.410   6.060  16.755  0.00  0.00    +0.000 OA
ATOM      3  C4* UNL     1       6.808   6.048  16.372  0.00  0.00    +0.000 C 
ATOM      4  C3* UNL     1       7.610   5.867  17.660  0.00  0.00    +0.000 C 
ATOM      5  C2* UNL     1       6.647   5.125  18.574  0.00  0.00    +0.000 C 
ENDROOT
BRANCH   1   9
ATOM      6  O   UNL     1       3.369   2.550  20.726  0.00  0.00    +0.000 OA
ATOM      7  C   UNL     1       3.173   3.336  19.752  0.00  0.00    +0.000 A 
ATOM      8  N   UNL     1       4.209   4.128  19.455  0.00  0.00    +0.000 NA
ATOM      9  N   UNL     1       4.144   5.023  18.489  0.00  0.00    +0.000 N 
ATOM     10  C   UNL     1       3.030   5.161  17.758  0.00  0.00    +0.000 A 
ATOM     11  C   UNL     1       1.928   4.368  17.969  0.00  0.00    +0.000 A 
ATOM     12  C   UNL     1       1.995   3.419  18.977  0.00  0.00    +0.000 A 
BRANCH  12  13
ATOM     13  S   UNL     1       0.603   2.305  19.170  0.00  0.00    +0.000 S 
ATOM     14  H   UNL     1       1.014   1.689  20.283  0.00  0.00    +0.000 HD
ENDBRANCH  12  13
ENDBRANCH   1   9
BRANCH   4  15
ATOM     15  O3* UNL     1       7.848   7.140  18.297  0.00  0.00    +0.000 OA
ATOM     16  H3* UNL     1       7.111   7.746  18.093  0.00  0.00    +0.000 HD
ENDBRANCH   4  15
BRANCH   5  17
ATOM     17  O2* UNL     1       6.981   5.325  19.949  0.00  0.00    +0.000 OA
ATOM     18  H2* UNL     1       6.322   4.827  20.476  0.00  0.00    +0.000 HD
ENDBRANCH   5  17
BRANCH   3  19
ATOM     19  C5* UNL     1       7.062   4.941  15.345  0.00  0.00    +0.000 C 
BRANCH  19  20
ATOM     20  O5* UNL     1       7.820   5.467  14.260  0.00  0.00    +0.000 OA
ATOM     21  H5* UNL     1       7.305   6.201  13.874  0.00  0.00    +0.000 HD
ENDBRANCH  19  20
ENDBRANCH   3  19
TORSDOF 6
ENDMDL
MODEL 9
REMARK VINA RESULT:      -6.1      2.120      2.935
REMARK  Name = 
REMARK  6 active torsions:
REMARK  status: ('A' for Active; 'I' for Inactive)
REMARK    1  A    between atoms: N_4  and  C1*_5
REMARK    2  A    between atoms: C4*_7  and  C5*_8
REMARK    3  A    between atoms: C5*_8  and  O5*_9
REMARK    4  A    between atoms: C3*_10  and  O3*_11
REMARK    5  A    between atoms: C2*_12  and  O2*_13
REMARK    6  A    between atoms: C_16  and  S_17
REMARK                            x       y       z     vdW  Elec       q    Type
REMARK                         _______ _______ _______ _____ _____    ______ ____
ROOT
ATOM      1  C1* UNL     1       4.046   4.336  19.341  0.00  0.00    +0.000 C 
ATOM      2  O4* UNL     1       3.719   2.986  19.734  0.00  0.00    +0.000 OA
ATOM      3  C4* UNL     1       2.406   3.013  20.347  0.00  0.00    +0.000 C 
ATOM      4  C3* UNL     1       1.979   4.479  20.395  0.00  0.00    +0.000 C 
ATOM      5  C2* UNL     1       2.734   5.106  19.233  0.00  0.00    +0.000 C 
ENDROOT
BRANCH   1   9
ATOM      6  O   UNL     1       8.157   4.405  17.309  0.00  0.00    +0.000 OA
ATOM      7  C   UNL     1       6.911   4.410  17.081  0.00  0.00    +0.000 A 
ATOM      8  N   UNL     1       6.142   4.359  18.175  0.00  0.00    +0.000 NA
ATOM      9  N   UNL     1       4.826   4.321  18.097  0.00  0.00    +0.000 N 
ATOM     10  C   UNL     1       4.210   4.345  16.908  0.00  0.00    +0.000 A 
ATOM     11  C   UNL     1       4.917   4.431  15.733  0.00  0.00    +0.000 A 
ATOM     12  C   UNL     1       6.300   4.480  15.810  0.00  0.00    +0.000 A 
BRANCH  12  13
ATOM     13  S   UNL     1       7.214   4.716  14.285  0.00  0.00    +0.000 S 
ATOM     14  H   UNL     1       6.613   5.840  13.882  0.00  0.00    +0.000 HD
ENDBRANCH  12  13
ENDBRANCH   1   9
BRANCH   4  15
ATOM     15  O3* UNL     1       2.491   5.123  21.582  0.00  0.00    +0.000 OA
ATOM     16  H3* UNL     1       3.095   4.513  22.045  0.00  0.00    +0.000 HD
ENDBRANCH   4  15
BRANCH   5  17
ATOM     17  O2* UNL     1       2.897   6.513  19.419  0.00  0.00    +0.000 OA
ATOM     18  H2* UNL     1       2.571   6.946  18.602  0.00  0.00    +0.000 HD
ENDBRANCH   5  17
BRANCH   3  19
ATOM     19  C5* UNL     1       1.439   2.131  19.556  0.00  0.00    +0.000 C 
BRANCH  19  20
ATOM     20  O5* UNL     1       2.150   1.458  18.521  0.00  0.00    +0.000 OA
ATOM     21  H5* UNL     1       2.143   2.038  17.737  0.00  0.00    +0.000 HD
ENDBRANCH  19  20
ENDBRANCH   3  19
TORSDOF 6
ENDMDL
