MODEL 1
REMARK VINA RESULT:      -7.6      0.000      0.000
REMARK  Name = 
REMARK  11 active torsions:
REMARK  status: ('A' for Active; 'I' for Inactive)
REMARK    1  A    between atoms: C_1  and  O_2
REMARK    2  A    between atoms: O_2  and  C_3
REMARK    3  A    between atoms: C_6  and  C_7
REMARK    4  A    between atoms: C_8  and  C_9
REMARK    5  A    between atoms: C_9  and  C_11
REMARK    6  A    between atoms: C_12  and  O_13
REMARK    7  A    between atoms: O_13  and  C_14
REMARK    8  A    between atoms: C_16  and  C_17
REMARK    9  A    between atoms: C_20  and  C_21
REMARK   10  A    between atoms: C_23  and  O_24
REMARK   11  A    between atoms: O_24  and  C_25
REMARK                            x       y       z     vdW  Elec       q    Type
REMARK                         _______ _______ _______ _____ _____    ______ ____
ROOT
ATOM      1  C   UNL     1       1.440   9.829  18.515  0.00  0.00    +0.000 C 
ATOM      2  O   UNL     1       2.141  10.713  18.029  0.00  0.00    +0.000 OA
ENDROOT
BRANCH   1   3
ATOM      3  C   UNL     1       0.471  10.161  19.607  0.00  0.00    +0.000 A 
ATOM      4  C   UNL     1      -0.434  11.225  19.412  0.00  0.00    +0.000 A 
ATOM      5  C   UNL     1      -1.149  11.739  20.503  0.00  0.00    +0.000 A 
ATOM      6  C   UNL     1      -1.024  11.200  21.787  0.00  0.00    +0.000 A 
ATOM      7  C   UNL     1      -1.766  11.842  22.928  0.00  0.00    +0.000 C 
ATOM      8  C   UNL     1      -0.181  10.092  21.972  0.00  0.00    +0.000 A 
ATOM      9 CL   UNL     1      -0.088   9.397  23.567  0.00  0.00    +0.000 Cl
ATOM     10  C   UNL     1       0.594   9.570  20.905  0.00  0.00    +0.000 A 
ATOM     11  C   UNL     1       1.529   8.410  21.171  0.00  0.00    +0.000 C 
BRANCH   4  12
ATOM     12  O   UNL     1      -0.680  11.936  18.265  0.00  0.00    +0.000 OA
ATOM     13  C   UNL     1      -0.432  13.337  18.281  0.00  0.00    +0.000 C 
ENDBRANCH   4  12
ENDBRANCH   1   3
BRANCH   1  15
ATOM     14  C   UNL     1       2.844   7.948  17.910  0.00  0.00    +0.000 C 
ATOM     15  C   UNL     1       1.596   8.409  18.092  0.00  0.00    +0.000 C 
BRANCH  14  19
ATOM     16  C   UNL     1       3.683   3.767  18.155  0.00  0.00    +0.000 A 
ATOM     17  C   UNL     1       4.715   4.709  18.041  0.00  0.00    +0.000 A 
ATOM     18  C   UNL     1       4.430   6.072  17.927  0.00  0.00    +0.000 A 
ATOM     19  C   UNL     1       3.106   6.509  17.894  0.00  0.00    +0.000 A 
ATOM     20  C   UNL     1       2.078   5.567  17.906  0.00  0.00    +0.000 A 
ATOM     21  C   UNL     1       2.350   4.194  18.026  0.00  0.00    +0.000 A 
BRANCH  16  23
ATOM     22  C   UNL     1       4.304   2.081  19.696  0.00  0.00    +0.000 C 
ATOM     23  O   UNL     1       3.962   2.441  18.358  0.00  0.00    +0.000 OA
ENDBRANCH  16  23
BRANCH  21  24
ATOM     24  O   UNL     1       1.202   3.447  18.028  0.00  0.00    +0.000 OA
ATOM     25  C   UNL     1       0.683   2.976  19.260  0.00  0.00    +0.000 C 
ENDBRANCH  21  24
ENDBRANCH  14  19
ENDBRANCH   1  15
TORSDOF 6
ENDMDL
MODEL 2
REMARK VINA RESULT:      -7.5      0.896      1.913
REMARK  Name = 
REMARK  11 active torsions:
REMARK  status: ('A' for Active; 'I' for Inactive)
REMARK    1  A    between atoms: C_1  and  O_2
REMARK    2  A    between atoms: O_2  and  C_3
REMARK    3  A    between atoms: C_6  and  C_7
REMARK    4  A    between atoms: C_8  and  C_9
REMARK    5  A    between atoms: C_9  and  C_11
REMARK    6  A    between atoms: C_12  and  O_13
REMARK    7  A    between atoms: O_13  and  C_14
REMARK    8  A    between atoms: C_16  and  C_17
REMARK    9  A    between atoms: C_20  and  C_21
REMARK   10  A    between atoms: C_23  and  O_24
REMARK   11  A    between atoms: O_24  and  C_25
REMARK                            x       y       z     vdW  Elec       q    Type
REMARK                         _______ _______ _______ _____ _____    ______ ____
ROOT
ATOM      1  C   UNL     1       1.489   9.948  18.461  0.00  0.00    +0.000 C 
ATOM      2  O   UNL     1       2.216  10.832  18.015  0.00  0.00    +0.000 OA
ENDROOT
BRANCH   1   3
ATOM      3  C   UNL     1       0.518  10.262  19.556  0.00  0.00    +0.000 A 
ATOM      4  C   UNL     1      -0.379  11.336  19.381  0.00  0.00    +0.000 A 
ATOM      5  C   UNL     1      -1.096  11.831  20.481  0.00  0.00    +0.000 A 
ATOM      6  C   UNL     1      -0.978  11.263  21.753  0.00  0.00    +0.000 A 
ATOM      7  C   UNL     1      -1.721  11.886  22.905  0.00  0.00    +0.000 C 
ATOM      8  C   UNL     1      -0.144  10.146  21.917  0.00  0.00    +0.000 A 
ATOM      9 CL   UNL     1      -0.060   9.416  23.496  0.00  0.00    +0.000 Cl
ATOM     10  C   UNL     1       0.632   9.643  20.841  0.00  0.00    +0.000 A 
ATOM     11  C   UNL     1       1.559   8.471  21.085  0.00  0.00    +0.000 C 
BRANCH   4  12
ATOM     12  O   UNL     1      -0.616  12.074  18.250  0.00  0.00    +0.000 OA
ATOM     13  C   UNL     1      -0.317  13.464  18.283  0.00  0.00    +0.000 C 
ENDBRANCH   4  12
ENDBRANCH   1   3
BRANCH   1  15
ATOM     14  C   UNL     1       2.847   8.013  17.925  0.00  0.00    +0.000 C 
ATOM     15  C   UNL     1       1.614   8.542  17.986  0.00  0.00    +0.000 C 
BRANCH  14  19
ATOM     16  C   UNL     1       3.179   3.774  17.518  0.00  0.00    +0.000 A 
ATOM     17  C   UNL     1       2.079   4.358  18.164  0.00  0.00    +0.000 A 
ATOM     18  C   UNL     1       1.996   5.743  18.322  0.00  0.00    +0.000 A 
ATOM     19  C   UNL     1       3.028   6.562  17.865  0.00  0.00    +0.000 A 
ATOM     20  C   UNL     1       4.167   5.978  17.312  0.00  0.00    +0.000 A 
ATOM     21  C   UNL     1       4.262   4.587  17.142  0.00  0.00    +0.000 A 
BRANCH  16  23
ATOM     22  C   UNL     1       3.489   1.607  18.419  0.00  0.00    +0.000 C 
ATOM     23  O   UNL     1       3.219   2.425  17.281  0.00  0.00    +0.000 OA
ENDBRANCH  16  23
BRANCH  21  24
ATOM     24  O   UNL     1       5.455   4.225  16.575  0.00  0.00    +0.000 OA
ATOM     25  C   UNL     1       6.665   4.633  17.191  0.00  0.00    +0.000 C 
ENDBRANCH  21  24
ENDBRANCH  14  19
ENDBRANCH   1  15
TORSDOF 6
ENDMDL
MODEL 3
REMARK VINA RESULT:      -7.3      3.178      8.340
REMARK  Name = 
REMARK  11 active torsions:
REMARK  status: ('A' for Active; 'I' for Inactive)
REMARK    1  A    between atoms: C_1  and  O_2
REMARK    2  A    between atoms: O_2  and  C_3
REMARK    3  A    between atoms: C_6  and  C_7
REMARK    4  A    between atoms: C_8  and  C_9
REMARK    5  A    between atoms: C_9  and  C_11
REMARK    6  A    between atoms: C_12  and  O_13
REMARK    7  A    between atoms: O_13  and  C_14
REMARK    8  A    between atoms: C_16  and  C_17
REMARK    9  A    between atoms: C_20  and  C_21
REMARK   10  A    between atoms: C_23  and  O_24
REMARK   11  A    between atoms: O_24  and  C_25
REMARK                            x       y       z     vdW  Elec       q    Type
REMARK                         _______ _______ _______ _____ _____    ______ ____
ROOT
ATOM      1  C   UNL     1       3.730   4.428  19.385  0.00  0.00    +0.000 C 
ATOM      2  O   UNL     1       3.407   3.415  20.000  0.00  0.00    +0.000 OA
ENDROOT
BRANCH   1   3
ATOM      3  C   UNL     1       4.729   4.338  18.273  0.00  0.00    +0.000 A 
ATOM      4  C   UNL     1       6.050   4.770  18.509  0.00  0.00    +0.000 A 
ATOM      5  C   UNL     1       6.923   4.963  17.428  0.00  0.00    +0.000 A 
ATOM      6  C   UNL     1       6.534   4.702  16.111  0.00  0.00    +0.000 A 
ATOM      7  C   UNL     1       7.495   4.997  14.990  0.00  0.00    +0.000 C 
ATOM      8  C   UNL     1       5.244   4.200  15.877  0.00  0.00    +0.000 A 
ATOM      9 CL   UNL     1       4.802   3.821  14.235  0.00  0.00    +0.000 Cl
ATOM     10  C   UNL     1       4.316   4.032  16.937  0.00  0.00    +0.000 A 
ATOM     11  C   UNL     1       2.920   3.540  16.623  0.00  0.00    +0.000 C 
BRANCH   4  12
ATOM     12  O   UNL     1       6.629   5.133  19.698  0.00  0.00    +0.000 OA
ATOM     13  C   UNL     1       7.941   5.683  19.662  0.00  0.00    +0.000 C 
ENDBRANCH   4  12
ENDBRANCH   1   3
BRANCH   1  15
ATOM     14  C   UNL     1       3.084   6.694  18.818  0.00  0.00    +0.000 C 
ATOM     15  C   UNL     1       3.205   5.765  19.780  0.00  0.00    +0.000 C 
BRANCH  14  19
ATOM     16  C   UNL     1       0.347   9.936  19.309  0.00  0.00    +0.000 A 
ATOM     17  C   UNL     1       0.865   9.608  18.048  0.00  0.00    +0.000 A 
ATOM     18  C   UNL     1       1.787   8.568  17.902  0.00  0.00    +0.000 A 
ATOM     19  C   UNL     1       2.226   7.861  19.021  0.00  0.00    +0.000 A 
ATOM     20  C   UNL     1       1.788   8.250  20.287  0.00  0.00    +0.000 A 
ATOM     21  C   UNL     1       0.857   9.290  20.448  0.00  0.00    +0.000 A 
BRANCH  16  23
ATOM     22  C   UNL     1      -1.276  11.281  18.231  0.00  0.00    +0.000 C 
ATOM     23  O   UNL     1      -0.624  10.894  19.441  0.00  0.00    +0.000 OA
ENDBRANCH  16  23
BRANCH  21  24
ATOM     24  O   UNL     1       0.557   9.503  21.767  0.00  0.00    +0.000 OA
ATOM     25  C   UNL     1      -0.568   8.853  22.335  0.00  0.00    +0.000 C 
ENDBRANCH  21  24
ENDBRANCH  14  19
ENDBRANCH   1  15
TORSDOF 6
ENDMDL
MODEL 4
REMARK VINA RESULT:      -7.2      5.816      9.448
REMARK  Name = 
REMARK  11 active torsions:
REMARK  status: ('A' for Active; 'I' for Inactive)
REMARK    1  A    between atoms: C_1  and  O_2
REMARK    2  A    between atoms: O_2  and  C_3
REMARK    3  A    between atoms: C_6  and  C_7
REMARK    4  A    between atoms: C_8  and  C_9
REMARK    5  A    between atoms: C_9  and  C_11
REMARK    6  A    between atoms: C_12  and  O_13
REMARK    7  A    between atoms: O_13  and  C_14
REMARK    8  A    between atoms: C_16  and  C_17
REMARK    9  A    between atoms: C_20  and  C_21
REMARK   10  A    between atoms: C_23  and  O_24
REMARK   11  A    between atoms: O_24  and  C_25
REMARK                            x       y       z     vdW  Elec       q    Type
REMARK                         _______ _______ _______ _____ _____    ______ ____
ROOT
ATOM      1  C   UNL     1       7.190   7.048  17.207  0.00  0.00    +0.000 C 
ATOM      2  O   UNL     1       7.733   6.615  16.195  0.00  0.00    +0.000 OA
ENDROOT
BRANCH   1   3
ATOM      3  C   UNL     1       6.181   6.210  17.929  0.00  0.00    +0.000 A 
ATOM      4  C   UNL     1       6.634   5.154  18.747  0.00  0.00    +0.000 A 
ATOM      5  C   UNL     1       5.725   4.188  19.203  0.00  0.00    +0.000 A 
ATOM      6  C   UNL     1       4.362   4.256  18.901  0.00  0.00    +0.000 A 
ATOM      7  C   UNL     1       3.452   3.149  19.361  0.00  0.00    +0.000 C 
ATOM      8  C   UNL     1       3.893   5.345  18.150  0.00  0.00    +0.000 A 
ATOM      9 CL   UNL     1       2.183   5.445  17.839  0.00  0.00    +0.000 Cl
ATOM     10  C   UNL     1       4.784   6.321  17.632  0.00  0.00    +0.000 A 
ATOM     11  C   UNL     1       4.234   7.445  16.781  0.00  0.00    +0.000 C 
BRANCH   4  12
ATOM     12  O   UNL     1       7.919   4.860  19.125  0.00  0.00    +0.000 OA
ATOM     13  C   UNL     1       8.405   5.423  20.338  0.00  0.00    +0.000 C 
ENDBRANCH   4  12
ENDBRANCH   1   3
BRANCH   1  15
ATOM     14  C   UNL     1       8.462   8.603  18.563  0.00  0.00    +0.000 C 
ATOM     15  C   UNL     1       7.457   8.432  17.688  0.00  0.00    +0.000 C 
BRANCH  14  19
ATOM     16  C   UNL     1       9.892  12.591  19.107  0.00  0.00    +0.000 A 
ATOM     17  C   UNL     1       9.721  12.049  17.825  0.00  0.00    +0.000 A 
ATOM     18  C   UNL     1       9.285  10.732  17.657  0.00  0.00    +0.000 A 
ATOM     19  C   UNL     1       9.045   9.929  18.771  0.00  0.00    +0.000 A 
ATOM     20  C   UNL     1       9.310  10.432  20.044  0.00  0.00    +0.000 A 
ATOM     21  C   UNL     1       9.743  11.756  20.228  0.00  0.00    +0.000 A 
BRANCH  16  23
ATOM     22  C   UNL     1       9.760  14.797  18.261  0.00  0.00    +0.000 C 
ATOM     23  O   UNL     1      10.231  13.908  19.273  0.00  0.00    +0.000 OA
ENDBRANCH  16  23
BRANCH  21  24
ATOM     24  O   UNL     1       9.934  12.048  21.552  0.00  0.00    +0.000 OA
ATOM     25  C   UNL     1       8.848  12.544  22.316  0.00  0.00    +0.000 C 
ENDBRANCH  21  24
ENDBRANCH  14  19
ENDBRANCH   1  15
TORSDOF 6
ENDMDL
MODEL 5
REMARK VINA RESULT:      -7.1      2.040      2.819
REMARK  Name = 
REMARK  11 active torsions:
REMARK  status: ('A' for Active; 'I' for Inactive)
REMARK    1  A    between atoms: C_1  and  O_2
REMARK    2  A    between atoms: O_2  and  C_3
REMARK    3  A    between atoms: C_6  and  C_7
REMARK    4  A    between atoms: C_8  and  C_9
REMARK    5  A    between atoms: C_9  and  C_11
REMARK    6  A    between atoms: C_12  and  O_13
REMARK    7  A    between atoms: O_13  and  C_14
REMARK    8  A    between atoms: C_16  and  C_17
REMARK    9  A    between atoms: C_20  and  C_21
REMARK   10  A    between atoms: C_23  and  O_24
REMARK   11  A    between atoms: O_24  and  C_25
REMARK                            x       y       z     vdW  Elec       q    Type
REMARK                         _______ _______ _______ _____ _____    ______ ____
ROOT
ATOM      1  C   UNL     1       1.104  10.212  18.521  0.00  0.00    +0.000 C 
ATOM      2  O   UNL     1       1.842  11.014  17.954  0.00  0.00    +0.000 OA
ENDROOT
BRANCH   1   3
ATOM      3  C   UNL     1      -0.246  10.650  18.998  0.00  0.00    +0.000 A 
ATOM      4  C   UNL     1      -1.361  10.455  18.156  0.00  0.00    +0.000 A 
ATOM      5  C   UNL     1      -2.572  11.100  18.446  0.00  0.00    +0.000 A 
ATOM      6  C   UNL     1      -2.726  11.908  19.576  0.00  0.00    +0.000 A 
ATOM      7  C   UNL     1      -4.031  12.628  19.791  0.00  0.00    +0.000 C 
ATOM      8  C   UNL     1      -1.642  12.045  20.458  0.00  0.00    +0.000 A 
ATOM      9 CL   UNL     1      -1.875  13.006  21.892  0.00  0.00    +0.000 Cl
ATOM     10  C   UNL     1      -0.386  11.447  20.179  0.00  0.00    +0.000 A 
ATOM     11  C   UNL     1       0.766  11.672  21.134  0.00  0.00    +0.000 C 
BRANCH   4  12
ATOM     12  O   UNL     1      -1.429   9.756  16.979  0.00  0.00    +0.000 OA
ATOM     13  C   UNL     1      -2.586   9.921  16.168  0.00  0.00    +0.000 C 
ENDBRANCH   4  12
ENDBRANCH   1   3
BRANCH   1  15
ATOM     14  C   UNL     1       2.330   8.217  17.898  0.00  0.00    +0.000 C 
ATOM     15  C   UNL     1       1.562   8.827  18.816  0.00  0.00    +0.000 C 
BRANCH  14  19
ATOM     16  C   UNL     1       4.455   4.646  18.887  0.00  0.00    +0.000 A 
ATOM     17  C   UNL     1       3.489   5.180  19.753  0.00  0.00    +0.000 A 
ATOM     18  C   UNL     1       2.823   6.366  19.436  0.00  0.00    +0.000 A 
ATOM     19  C   UNL     1       3.138   7.053  18.264  0.00  0.00    +0.000 A 
ATOM     20  C   UNL     1       4.167   6.579  17.451  0.00  0.00    +0.000 A 
ATOM     21  C   UNL     1       4.841   5.383  17.754  0.00  0.00    +0.000 A 
BRANCH  16  23
ATOM     22  C   UNL     1       4.264   2.531  19.932  0.00  0.00    +0.000 C 
ATOM     23  O   UNL     1       5.043   3.437  19.151  0.00  0.00    +0.000 OA
ENDBRANCH  16  23
BRANCH  21  24
ATOM     24  O   UNL     1       5.806   5.096  16.826  0.00  0.00    +0.000 OA
ATOM     25  C   UNL     1       5.448   4.384  15.653  0.00  0.00    +0.000 C 
ENDBRANCH  21  24
ENDBRANCH  14  19
ENDBRANCH   1  15
TORSDOF 6
ENDMDL
MODEL 6
REMARK VINA RESULT:      -7.1      5.576      9.346
REMARK  Name = 
REMARK  11 active torsions:
REMARK  status: ('A' for Active; 'I' for Inactive)
REMARK    1  A    between atoms: C_1  and  O_2
REMARK    2  A    between atoms: O_2  and  C_3
REMARK    3  A    between atoms: C_6  and  C_7
REMARK    4  A    between atoms: C_8  and  C_9
REMARK    5  A    between atoms: C_9  and  C_11
REMARK    6  A    between atoms: C_12  and  O_13
REMARK    7  A    between atoms: O_13  and  C_14
REMARK    8  A    between atoms: C_16  and  C_17
REMARK    9  A    between atoms: C_20  and  C_21
REMARK   10  A    between atoms: C_23  and  O_24
REMARK   11  A    between atoms: O_24  and  C_25
REMARK                            x       y       z     vdW  Elec       q    Type
REMARK                         _______ _______ _______ _____ _____    ______ ____
ROOT
ATOM      1  C   UNL     1       6.939   6.974  17.186  0.00  0.00    +0.000 C 
ATOM      2  O   UNL     1       7.510   6.556  16.182  0.00  0.00    +0.000 OA
ENDROOT
BRANCH   1   3
ATOM      3  C   UNL     1       5.956   6.100  17.902  0.00  0.00    +0.000 A 
ATOM      4  C   UNL     1       6.442   5.043  18.701  0.00  0.00    +0.000 A 
ATOM      5  C   UNL     1       5.561   4.048  19.148  0.00  0.00    +0.000 A 
ATOM      6  C   UNL     1       4.194   4.088  18.859  0.00  0.00    +0.000 A 
ATOM      7  C   UNL     1       3.315   2.952  19.309  0.00  0.00    +0.000 C 
ATOM      8  C   UNL     1       3.693   5.177  18.129  0.00  0.00    +0.000 A 
ATOM      9 CL   UNL     1       1.977   5.240  17.834  0.00  0.00    +0.000 Cl
ATOM     10  C   UNL     1       4.556   6.182  17.619  0.00  0.00    +0.000 A 
ATOM     11  C   UNL     1       3.971   7.305  16.790  0.00  0.00    +0.000 C 
BRANCH   4  12
ATOM     12  O   UNL     1       7.737   4.774  19.063  0.00  0.00    +0.000 OA
ATOM     13  C   UNL     1       8.276   5.468  20.182  0.00  0.00    +0.000 C 
ENDBRANCH   4  12
ENDBRANCH   1   3
BRANCH   1  15
ATOM     14  C   UNL     1       8.328   8.666  18.226  0.00  0.00    +0.000 C 
ATOM     15  C   UNL     1       7.146   8.370  17.661  0.00  0.00    +0.000 C 
BRANCH  14  19
ATOM     16  C   UNL     1       9.823  12.663  18.389  0.00  0.00    +0.000 A 
ATOM     17  C   UNL     1      10.425  11.633  19.126  0.00  0.00    +0.000 A 
ATOM     18  C   UNL     1       9.908  10.335  19.093  0.00  0.00    +0.000 A 
ATOM     19  C   UNL     1       8.762  10.058  18.347  0.00  0.00    +0.000 A 
ATOM     20  C   UNL     1       8.105  11.100  17.694  0.00  0.00    +0.000 A 
ATOM     21  C   UNL     1       8.617  12.409  17.714  0.00  0.00    +0.000 A 
BRANCH  16  23
ATOM     22  C   UNL     1      11.230  14.174  17.231  0.00  0.00    +0.000 C 
ATOM     23  O   UNL     1      10.381  13.914  18.348  0.00  0.00    +0.000 OA
ENDBRANCH  16  23
BRANCH  21  24
ATOM     24  O   UNL     1       7.826  13.273  17.006  0.00  0.00    +0.000 OA
ATOM     25  C   UNL     1       7.005  14.193  17.707  0.00  0.00    +0.000 C 
ENDBRANCH  21  24
ENDBRANCH  14  19
ENDBRANCH   1  15
TORSDOF 6
ENDMDL
MODEL 7
REMARK VINA RESULT:      -7.0      2.251      3.034
REMARK  Name = 
REMARK  11 active torsions:
REMARK  status: ('A' for Active; 'I' for Inactive)
REMARK    1  A    between atoms: C_1  and  O_2
REMARK    2  A    between atoms: O_2  and  C_3
REMARK    3  A    between atoms: C_6  and  C_7
REMARK    4  A    between atoms: C_8  and  C_9
REMARK    5  A    between atoms: C_9  and  C_11
REMARK    6  A    between atoms: C_12  and  O_13
REMARK    7  A    between atoms: O_13  and  C_14
REMARK    8  A    between atoms: C_16  and  C_17
REMARK    9  A    between atoms: C_20  and  C_21
REMARK   10  A    between atoms: C_23  and  O_24
REMARK   11  A    between atoms: O_24  and  C_25
REMARK                            x       y       z     vdW  Elec       q    Type
REMARK                         _______ _______ _______ _____ _____    ______ ____
ROOT
ATOM      1  C   UNL     1       1.295  10.456  18.581  0.00  0.00    +0.000 C 
ATOM      2  O   UNL     1       2.189  10.973  17.917  0.00  0.00    +0.000 OA
ENDROOT
BRANCH   1   3
ATOM      3  C   UNL     1       0.174  11.299  19.107  0.00  0.00    +0.000 A 
ATOM      4  C   UNL     1       0.388  12.061  20.274  0.00  0.00    +0.000 A 
ATOM      5  C   UNL     1      -0.706  12.629  20.944  0.00  0.00    +0.000 A 
ATOM      6  C   UNL     1      -2.013  12.494  20.468  0.00  0.00    +0.000 A 
ATOM      7  C   UNL     1      -3.150  13.068  21.272  0.00  0.00    +0.000 C 
ATOM      8  C   UNL     1      -2.223  11.800  19.266  0.00  0.00    +0.000 A 
ATOM      9 CL   UNL     1      -3.852  11.698  18.657  0.00  0.00    +0.000 Cl
ATOM     10  C   UNL     1      -1.151  11.173  18.581  0.00  0.00    +0.000 A 
ATOM     11  C   UNL     1      -1.439  10.389  17.319  0.00  0.00    +0.000 C 
BRANCH   4  12
ATOM     12  O   UNL     1       1.563  12.282  20.946  0.00  0.00    +0.000 OA
ATOM     13  C   UNL     1       2.313  13.445  20.616  0.00  0.00    +0.000 C 
ENDBRANCH   4  12
ENDBRANCH   1   3
BRANCH   1  15
ATOM     14  C   UNL     1       2.253   8.246  18.314  0.00  0.00    +0.000 C 
ATOM     15  C   UNL     1       1.346   9.012  18.942  0.00  0.00    +0.000 C 
BRANCH  14  19
ATOM     16  C   UNL     1       3.126   4.360  19.858  0.00  0.00    +0.000 A 
ATOM     17  C   UNL     1       2.292   5.248  20.554  0.00  0.00    +0.000 A 
ATOM     18  C   UNL     1       2.040   6.529  20.058  0.00  0.00    +0.000 A 
ATOM     19  C   UNL     1       2.643   6.952  18.874  0.00  0.00    +0.000 A 
ATOM     20  C   UNL     1       3.550   6.108  18.232  0.00  0.00    +0.000 A 
ATOM     21  C   UNL     1       3.809   4.815  18.717  0.00  0.00    +0.000 A 
BRANCH  16  23
ATOM     22  C   UNL     1       2.532   2.701  21.438  0.00  0.00    +0.000 C 
ATOM     23  O   UNL     1       3.302   3.074  20.295  0.00  0.00    +0.000 OA
ENDBRANCH  16  23
BRANCH  21  24
ATOM     24  O   UNL     1       4.720   4.154  17.937  0.00  0.00    +0.000 OA
ATOM     25  C   UNL     1       6.095   4.474  18.056  0.00  0.00    +0.000 C 
ENDBRANCH  21  24
ENDBRANCH  14  19
ENDBRANCH   1  15
TORSDOF 6
ENDMDL
MODEL 8
REMARK VINA RESULT:      -7.0      1.580      2.378
REMARK  Name = 
REMARK  11 active torsions:
REMARK  status: ('A' for Active; 'I' for Inactive)
REMARK    1  A    between atoms: C_1  and  O_2
REMARK    2  A    between atoms: O_2  and  C_3
REMARK    3  A    between atoms: C_6  and  C_7
REMARK    4  A    between atoms: C_8  and  C_9
REMARK    5  A    between atoms: C_9  and  C_11
REMARK    6  A    between atoms: C_12  and  O_13
REMARK    7  A    between atoms: O_13  and  C_14
REMARK    8  A    between atoms: C_16  and  C_17
REMARK    9  A    between atoms: C_20  and  C_21
REMARK   10  A    between atoms: C_23  and  O_24
REMARK   11  A    between atoms: O_24  and  C_25
REMARK                            x       y       z     vdW  Elec       q    Type
REMARK                         _______ _______ _______ _____ _____    ______ ____
ROOT
ATOM      1  C   UNL     1       1.115  10.586  18.578  0.00  0.00    +0.000 C 
ATOM      2  O   UNL     1       1.944  11.456  18.323  0.00  0.00    +0.000 OA
ENDROOT
BRANCH   1   3
ATOM      3  C   UNL     1      -0.091  10.924  19.398  0.00  0.00    +0.000 A 
ATOM      4  C   UNL     1      -1.155  11.620  18.788  0.00  0.00    +0.000 A 
ATOM      5  C   UNL     1      -2.158  12.193  19.583  0.00  0.00    +0.000 A 
ATOM      6  C   UNL     1      -2.160  12.063  20.974  0.00  0.00    +0.000 A 
ATOM      7  C   UNL     1      -3.227  12.762  21.775  0.00  0.00    +0.000 C 
ATOM      8  C   UNL     1      -1.145  11.307  21.582  0.00  0.00    +0.000 A 
ATOM      9 CL   UNL     1      -1.202  11.105  23.311  0.00  0.00    +0.000 Cl
ATOM     10  C   UNL     1      -0.087  10.748  20.819  0.00  0.00    +0.000 A 
ATOM     11  C   UNL     1       1.013   9.990  21.528  0.00  0.00    +0.000 C 
BRANCH   4  12
ATOM     12  O   UNL     1      -1.331  11.914  17.460  0.00  0.00    +0.000 OA
ATOM     13  C   UNL     1      -2.299  11.168  16.732  0.00  0.00    +0.000 C 
ENDBRANCH   4  12
ENDBRANCH   1   3
BRANCH   1  15
ATOM     14  C   UNL     1       2.586   8.796  17.863  0.00  0.00    +0.000 C 
ATOM     15  C   UNL     1       1.330   9.175  18.152  0.00  0.00    +0.000 C 
BRANCH  14  19
ATOM     16  C   UNL     1       3.436   4.623  17.544  0.00  0.00    +0.000 A 
ATOM     17  C   UNL     1       2.267   5.080  18.171  0.00  0.00    +0.000 A 
ATOM     18  C   UNL     1       2.014   6.448  18.300  0.00  0.00    +0.000 A 
ATOM     19  C   UNL     1       2.942   7.378  17.834  0.00  0.00    +0.000 A 
ATOM     20  C   UNL     1       4.150   6.927  17.301  0.00  0.00    +0.000 A 
ATOM     21  C   UNL     1       4.415   5.555  17.159  0.00  0.00    +0.000 A 
BRANCH  16  23
ATOM     22  C   UNL     1       3.723   2.482  18.513  0.00  0.00    +0.000 C 
ATOM     23  O   UNL     1       3.642   3.285  17.335  0.00  0.00    +0.000 OA
ENDBRANCH  16  23
BRANCH  21  24
ATOM     24  O   UNL     1       5.649   5.330  16.609  0.00  0.00    +0.000 OA
ATOM     25  C   UNL     1       5.775   5.260  15.199  0.00  0.00    +0.000 C 
ENDBRANCH  21  24
ENDBRANCH  14  19
ENDBRANCH   1  15
TORSDOF 6
ENDMDL
MODEL 9
REMARK VINA RESULT:      -6.9      1.838      2.504
REMARK  Name = 
REMARK  11 active torsions:
REMARK  status: ('A' for Active; 'I' for Inactive)
REMARK    1  A    between atoms: C_1  and  O_2
REMARK    2  A    between atoms: O_2  and  C_3
REMARK    3  A    between atoms: C_6  and  C_7
REMARK    4  A    between atoms: C_8  and  C_9
REMARK    5  A    between atoms: C_9  and  C_11
REMARK    6  A    between atoms: C_12  and  O_13
REMARK    7  A    between atoms: O_13  and  C_14
REMARK    8  A    between atoms: C_16  and  C_17
REMARK    9  A    between atoms: C_20  and  C_21
REMARK   10  A    between atoms: C_23  and  O_24
REMARK   11  A    between atoms: O_24  and  C_25
REMARK                            x       y       z     vdW  Elec       q    Type
REMARK                         _______ _______ _______ _____ _____    ______ ____
ROOT
ATOM      1  C   UNL     1       1.063   9.980  18.062  0.00  0.00    +0.000 C 
ATOM      2  O   UNL     1       1.896  10.762  17.609  0.00  0.00    +0.000 OA
ENDROOT
BRANCH   1   3
ATOM      3  C   UNL     1      -0.167  10.508  18.733  0.00  0.00    +0.000 A 
ATOM      4  C   UNL     1      -1.368  10.573  17.998  0.00  0.00    +0.000 A 
ATOM      5  C   UNL     1      -2.450  11.313  18.497  0.00  0.00    +0.000 A 
ATOM      6  C   UNL     1      -2.390  11.965  19.732  0.00  0.00    +0.000 A 
ATOM      7  C   UNL     1      -3.561  12.801  20.177  0.00  0.00    +0.000 C 
ATOM      8  C   UNL     1      -1.224  11.841  20.502  0.00  0.00    +0.000 A 
ATOM      9 CL   UNL     1      -1.195  12.609  22.066  0.00  0.00    +0.000 Cl
ATOM     10  C   UNL     1      -0.091  11.139  20.016  0.00  0.00    +0.000 A 
ATOM     11  C   UNL     1       1.162  11.083  20.863  0.00  0.00    +0.000 C 
BRANCH   4  12
ATOM     12  O   UNL     1      -1.635  10.062  16.754  0.00  0.00    +0.000 OA
ATOM     13  C   UNL     1      -2.644  10.693  15.973  0.00  0.00    +0.000 C 
ENDBRANCH   4  12
ENDBRANCH   1   3
BRANCH   1  15
ATOM     14  C   UNL     1       2.552   8.073  18.209  0.00  0.00    +0.000 C 
ATOM     15  C   UNL     1       1.295   8.510  18.026  0.00  0.00    +0.000 C 
BRANCH  14  19
ATOM     16  C   UNL     1       2.994   3.960  19.270  0.00  0.00    +0.000 A 
ATOM     17  C   UNL     1       2.492   4.896  20.186  0.00  0.00    +0.000 A 
ATOM     18  C   UNL     1       2.382   6.245  19.841  0.00  0.00    +0.000 A 
ATOM     19  C   UNL     1       2.804   6.682  18.586  0.00  0.00    +0.000 A 
ATOM     20  C   UNL     1       3.396   5.772  17.711  0.00  0.00    +0.000 A 
ATOM     21  C   UNL     1       3.508   4.411  18.042  0.00  0.00    +0.000 A 
BRANCH  16  23
ATOM     22  C   UNL     1       1.864   1.882  19.178  0.00  0.00    +0.000 C 
ATOM     23  O   UNL     1       3.017   2.624  19.574  0.00  0.00    +0.000 OA
ENDBRANCH  16  23
BRANCH  21  24
ATOM     24  O   UNL     1       4.109   3.693  17.043  0.00  0.00    +0.000 OA
ATOM     25  C   UNL     1       5.273   4.211  16.422  0.00  0.00    +0.000 C 
ENDBRANCH  21  24
ENDBRANCH  14  19
ENDBRANCH   1  15
TORSDOF 6
ENDMDL
