MODEL 1
REMARK VINA RESULT:      -7.3      0.000      0.000
REMARK  Name = 
REMARK  11 active torsions:
REMARK  status: ('A' for Active; 'I' for Inactive)
REMARK    1  A    between atoms: C_1  and  C_2
REMARK    2  A    between atoms: C_2  and  C_3
REMARK    3  A    between atoms: C_2  and  C_4
REMARK    4  A    between atoms: C_2  and  C_5
REMARK    5  A    between atoms: C_5  and  C_6
REMARK    6  A    between atoms: N_8  and  C_9
REMARK    7  A    between atoms: C_9  and  C_10
REMARK    8  A    between atoms: C_13  and  N_14
REMARK    9  A    between atoms: N_14  and  C_15
REMARK   10  A    between atoms: C_15  and  C_16
REMARK   11  A    between atoms: C_22  and  O_23
REMARK                            x       y       z     vdW  Elec       q    Type
REMARK                         _______ _______ _______ _____ _____    ______ ____
ROOT
ATOM      1  C   UNL     1       3.046   2.381  19.722  0.00  0.00    +0.000 C 
ATOM      2  O   UNL     1       2.056   2.763  20.701  0.00  0.00    +0.000 OA
ATOM      3  C   UNL     1       1.318   3.888  20.181  0.00  0.00    +0.000 C 
ATOM      4  C   UNL     1       1.760   4.160  18.729  0.00  0.00    +0.000 C 
ATOM      5  C   UNL     1       2.467   2.844  18.386  0.00  0.00    +0.000 C 
ENDROOT
BRANCH   4   6
ATOM      6  N   UNL     1       2.621   5.355  18.652  0.00  0.00    +0.000 NA
ATOM      7  H   UNL     1       3.601   5.074  18.637  0.00  0.00    +0.000 HD
BRANCH   6   8
ATOM      8  C   UNL     1       2.444   6.242  19.815  0.00  0.00    +0.000 C 
BRANCH   8   9
ATOM      9  C   UNL     1       2.041   7.649  19.418  0.00  0.00    +0.000 A 
ATOM     10  C   UNL     1       2.319   8.124  18.138  0.00  0.00    +0.000 A 
ATOM     11  C   UNL     1       1.896   9.405  17.787  0.00  0.00    +0.000 A 
ATOM     12  C   UNL     1       1.211  10.169  18.723  0.00  0.00    +0.000 A 
ATOM     13  C   UNL     1       0.979   9.624  19.973  0.00  0.00    +0.000 A 
ATOM     14  N   UNL     1       1.381   8.388  20.346  0.00  0.00    +0.000 NA
ENDBRANCH   8   9
ENDBRANCH   6   8
ENDBRANCH   4   6
BRANCH   5  15
ATOM     15  O   UNL     1       1.496   1.904  17.900  0.00  0.00    +0.000 OA
ATOM     16  H   UNL     1       0.623   2.183  18.228  0.00  0.00    +0.000 HD
ENDBRANCH   5  15
BRANCH   1  17
ATOM     17  C   UNL     1       4.385   3.057  20.046  0.00  0.00    +0.000 C 
BRANCH  17  20
ATOM     18  C   UNL     1       5.897   4.467  18.761  0.00  0.00    +0.000 C 
ATOM     19  O   UNL     1       5.741   5.397  19.552  0.00  0.00    +0.000 OA
ATOM     20  N   UNL     1       5.232   3.265  18.884  0.00  0.00    +0.000 N 
ATOM     21  H   UNL     1       5.609   2.449  18.418  0.00  0.00    +0.000 HD
BRANCH  18  22
ATOM     22  C   UNL     1       6.798   4.597  17.549  0.00  0.00    +0.000 C 
BRANCH  22  24
ATOM     23  C   UNL     1       6.991   5.022  15.047  0.00  0.00    +0.000 C 
ATOM     24  C   UNL     1       6.062   5.072  16.272  0.00  0.00    +0.000 C 
ATOM     25  C   UNL     1       5.525   6.503  16.442  0.00  0.00    +0.000 C 
ATOM     26  C   UNL     1       4.873   4.128  16.009  0.00  0.00    +0.000 C 
ENDBRANCH  22  24
ENDBRANCH  18  22
ENDBRANCH  17  20
ENDBRANCH   1  17
TORSDOF 8
ENDMDL
MODEL 2
REMARK VINA RESULT:      -7.0      0.894      1.634
REMARK  Name = 
REMARK  11 active torsions:
REMARK  status: ('A' for Active; 'I' for Inactive)
REMARK    1  A    between atoms: C_1  and  C_2
REMARK    2  A    between atoms: C_2  and  C_3
REMARK    3  A    between atoms: C_2  and  C_4
REMARK    4  A    between atoms: C_2  and  C_5
REMARK    5  A    between atoms: C_5  and  C_6
REMARK    6  A    between atoms: N_8  and  C_9
REMARK    7  A    between atoms: C_9  and  C_10
REMARK    8  A    between atoms: C_13  and  N_14
REMARK    9  A    between atoms: N_14  and  C_15
REMARK   10  A    between atoms: C_15  and  C_16
REMARK   11  A    between atoms: C_22  and  O_23
REMARK                            x       y       z     vdW  Elec       q    Type
REMARK                         _______ _______ _______ _____ _____    ______ ____
ROOT
ATOM      1  C   UNL     1       2.906   2.572  19.486  0.00  0.00    +0.000 C 
ATOM      2  O   UNL     1       2.082   2.384  20.658  0.00  0.00    +0.000 OA
ATOM      3  C   UNL     1       1.406   3.627  20.937  0.00  0.00    +0.000 C 
ATOM      4  C   UNL     1       1.700   4.633  19.805  0.00  0.00    +0.000 C 
ATOM      5  C   UNL     1       2.224   3.697  18.710  0.00  0.00    +0.000 C 
ENDROOT
BRANCH   4   6
ATOM      6  N   UNL     1       2.664   5.659  20.244  0.00  0.00    +0.000 NA
ATOM      7  H   UNL     1       2.403   6.004  21.168  0.00  0.00    +0.000 HD
BRANCH   6   8
ATOM      8  C   UNL     1       2.687   6.822  19.339  0.00  0.00    +0.000 C 
BRANCH   8   9
ATOM      9  C   UNL     1       1.797   7.952  19.820  0.00  0.00    +0.000 A 
ATOM     10  C   UNL     1       1.291   7.943  21.118  0.00  0.00    +0.000 A 
ATOM     11  C   UNL     1       0.514   9.018  21.547  0.00  0.00    +0.000 A 
ATOM     12  C   UNL     1       0.268  10.065  20.668  0.00  0.00    +0.000 A 
ATOM     13  C   UNL     1       0.805   9.994  19.395  0.00  0.00    +0.000 A 
ATOM     14  N   UNL     1       1.557   8.964  18.948  0.00  0.00    +0.000 NA
ENDBRANCH   8   9
ENDBRANCH   6   8
ENDBRANCH   4   6
BRANCH   5  15
ATOM     15  O   UNL     1       1.112   3.192  17.954  0.00  0.00    +0.000 OA
ATOM     16  H   UNL     1       1.043   2.237  18.130  0.00  0.00    +0.000 HD
ENDBRANCH   5  15
BRANCH   1  17
ATOM     17  C   UNL     1       4.335   2.934  19.910  0.00  0.00    +0.000 C 
BRANCH  17  20
ATOM     18  C   UNL     1       5.861   4.444  18.760  0.00  0.00    +0.000 C 
ATOM     19  O   UNL     1       5.651   5.326  19.592  0.00  0.00    +0.000 OA
ATOM     20  N   UNL     1       5.221   3.222  18.794  0.00  0.00    +0.000 N 
ATOM     21  H   UNL     1       5.635   2.441  18.301  0.00  0.00    +0.000 HD
BRANCH  18  22
ATOM     22  C   UNL     1       6.803   4.658  17.593  0.00  0.00    +0.000 C 
BRANCH  22  24
ATOM     23  C   UNL     1       4.865   4.161  16.019  0.00  0.00    +0.000 C 
ATOM     24  C   UNL     1       6.088   5.058  16.279  0.00  0.00    +0.000 C 
ATOM     25  C   UNL     1       7.045   4.970  15.078  0.00  0.00    +0.000 C 
ATOM     26  C   UNL     1       5.595   6.512  16.410  0.00  0.00    +0.000 C 
ENDBRANCH  22  24
ENDBRANCH  18  22
ENDBRANCH  17  20
ENDBRANCH   1  17
TORSDOF 8
ENDMDL
MODEL 3
REMARK VINA RESULT:      -7.0      0.687      1.198
REMARK  Name = 
REMARK  11 active torsions:
REMARK  status: ('A' for Active; 'I' for Inactive)
REMARK    1  A    between atoms: C_1  and  C_2
REMARK    2  A    between atoms: C_2  and  C_3
REMARK    3  A    between atoms: C_2  and  C_4
REMARK    4  A    between atoms: C_2  and  C_5
REMARK    5  A    between atoms: C_5  and  C_6
REMARK    6  A    between atoms: N_8  and  C_9
REMARK    7  A    between atoms: C_9  and  C_10
REMARK    8  A    between atoms: C_13  and  N_14
REMARK    9  A    between atoms: N_14  and  C_15
REMARK   10  A    between atoms: C_15  and  C_16
REMARK   11  A    between atoms: C_22  and  O_23
REMARK                            x       y       z     vdW  Elec       q    Type
REMARK                         _______ _______ _______ _____ _____    ______ ____
ROOT
ATOM      1  C   UNL     1       2.893   2.641  19.278  0.00  0.00    +0.000 C 
ATOM      2  O   UNL     1       2.171   2.183  20.442  0.00  0.00    +0.000 OA
ATOM      3  C   UNL     1       1.409   3.291  20.963  0.00  0.00    +0.000 C 
ATOM      4  C   UNL     1       1.535   4.493  20.004  0.00  0.00    +0.000 C 
ATOM      5  C   UNL     1       2.065   3.806  18.740  0.00  0.00    +0.000 C 
ENDROOT
BRANCH   4   6
ATOM      6  N   UNL     1       2.432   5.523  20.561  0.00  0.00    +0.000 NA
ATOM      7  H   UNL     1       1.913   6.125  21.200  0.00  0.00    +0.000 HD
BRANCH   6   8
ATOM      8  C   UNL     1       2.998   6.391  19.513  0.00  0.00    +0.000 C 
BRANCH   8   9
ATOM      9  C   UNL     1       2.205   7.669  19.325  0.00  0.00    +0.000 A 
ATOM     10  C   UNL     1       2.102   8.253  18.065  0.00  0.00    +0.000 A 
ATOM     11  C   UNL     1       1.328   9.402  17.914  0.00  0.00    +0.000 A 
ATOM     12  C   UNL     1       0.683   9.931  19.025  0.00  0.00    +0.000 A 
ATOM     13  C   UNL     1       0.840   9.292  20.242  0.00  0.00    +0.000 A 
ATOM     14  N   UNL     1       1.588   8.181  20.421  0.00  0.00    +0.000 NA
ENDBRANCH   8   9
ENDBRANCH   6   8
ENDBRANCH   4   6
BRANCH   5  15
ATOM     15  O   UNL     1       0.952   3.324  17.969  0.00  0.00    +0.000 OA
ATOM     16  H   UNL     1       0.173   3.856  18.209  0.00  0.00    +0.000 HD
ENDBRANCH   5  15
BRANCH   1  17
ATOM     17  C   UNL     1       4.311   3.068  19.682  0.00  0.00    +0.000 C 
BRANCH  17  20
ATOM     18  C   UNL     1       6.061   4.391  18.626  0.00  0.00    +0.000 C 
ATOM     19  O   UNL     1       6.070   5.177  19.573  0.00  0.00    +0.000 OA
ATOM     20  N   UNL     1       5.188   3.325  18.552  0.00  0.00    +0.000 N 
ATOM     21  H   UNL     1       5.415   2.551  17.939  0.00  0.00    +0.000 HD
BRANCH  18  22
ATOM     22  C   UNL     1       6.977   4.572  17.433  0.00  0.00    +0.000 C 
BRANCH  22  24
ATOM     23  C   UNL     1       5.605   6.430  16.363  0.00  0.00    +0.000 C 
ATOM     24  C   UNL     1       6.248   5.048  16.152  0.00  0.00    +0.000 C 
ATOM     25  C   UNL     1       5.163   4.044  15.727  0.00  0.00    +0.000 C 
ATOM     26  C   UNL     1       7.279   5.170  15.014  0.00  0.00    +0.000 C 
ENDBRANCH  22  24
ENDBRANCH  18  22
ENDBRANCH  17  20
ENDBRANCH   1  17
TORSDOF 8
ENDMDL
MODEL 4
REMARK VINA RESULT:      -6.9      0.738      1.224
REMARK  Name = 
REMARK  11 active torsions:
REMARK  status: ('A' for Active; 'I' for Inactive)
REMARK    1  A    between atoms: C_1  and  C_2
REMARK    2  A    between atoms: C_2  and  C_3
REMARK    3  A    between atoms: C_2  and  C_4
REMARK    4  A    between atoms: C_2  and  C_5
REMARK    5  A    between atoms: C_5  and  C_6
REMARK    6  A    between atoms: N_8  and  C_9
REMARK    7  A    between atoms: C_9  and  C_10
REMARK    8  A    between atoms: C_13  and  N_14
REMARK    9  A    between atoms: N_14  and  C_15
REMARK   10  A    between atoms: C_15  and  C_16
REMARK   11  A    between atoms: C_22  and  O_23
REMARK                            x       y       z     vdW  Elec       q    Type
REMARK                         _______ _______ _______ _____ _____    ______ ____
ROOT
ATOM      1  C   UNL     1       2.776   2.192  19.699  0.00  0.00    +0.000 C 
ATOM      2  O   UNL     1       2.185   2.498  20.981  0.00  0.00    +0.000 OA
ATOM      3  C   UNL     1       1.390   3.693  20.836  0.00  0.00    +0.000 C 
ATOM      4  C   UNL     1       1.351   4.103  19.350  0.00  0.00    +0.000 C 
ATOM      5  C   UNL     1       1.825   2.810  18.676  0.00  0.00    +0.000 C 
ENDROOT
BRANCH   4   6
ATOM      6  N   UNL     1       2.213   5.273  19.100  0.00  0.00    +0.000 NA
ATOM      7  H   UNL     1       3.189   4.980  19.056  0.00  0.00    +0.000 HD
BRANCH   6   8
ATOM      8  C   UNL     1       2.111   6.276  20.174  0.00  0.00    +0.000 C 
BRANCH   8   9
ATOM      9  C   UNL     1       1.858   7.674  19.643  0.00  0.00    +0.000 A 
ATOM     10  C   UNL     1       2.280   8.025  18.362  0.00  0.00    +0.000 A 
ATOM     11  C   UNL     1       1.993   9.302  17.884  0.00  0.00    +0.000 A 
ATOM     12  C   UNL     1       1.296  10.187  18.697  0.00  0.00    +0.000 A 
ATOM     13  C   UNL     1       0.917   9.760  19.958  0.00  0.00    +0.000 A 
ATOM     14  N   UNL     1       1.185   8.531  20.452  0.00  0.00    +0.000 NA
ENDBRANCH   8   9
ENDBRANCH   6   8
ENDBRANCH   4   6
BRANCH   5  15
ATOM     15  O   UNL     1       0.691   1.955  18.456  0.00  0.00    +0.000 OA
ATOM     16  H   UNL     1       0.333   2.159  17.574  0.00  0.00    +0.000 HD
ENDBRANCH   5  15
BRANCH   1  17
ATOM     17  C   UNL     1       4.188   2.791  19.622  0.00  0.00    +0.000 C 
BRANCH  17  20
ATOM     18  C   UNL     1       5.073   4.637  18.305  0.00  0.00    +0.000 C 
ATOM     19  O   UNL     1       5.250   5.307  19.321  0.00  0.00    +0.000 OA
ATOM     20  N   UNL     1       4.503   3.380  18.332  0.00  0.00    +0.000 N 
ATOM     21  H   UNL     1       4.658   2.757  17.549  0.00  0.00    +0.000 HD
BRANCH  18  22
ATOM     22  C   UNL     1       5.417   5.170  16.928  0.00  0.00    +0.000 C 
BRANCH  22  24
ATOM     23  C   UNL     1       7.311   5.018  15.234  0.00  0.00    +0.000 C 
ATOM     24  C   UNL     1       6.937   5.348  16.690  0.00  0.00    +0.000 C 
ATOM     25  C   UNL     1       7.754   4.454  17.638  0.00  0.00    +0.000 C 
ATOM     26  C   UNL     1       7.309   6.819  16.957  0.00  0.00    +0.000 C 
ENDBRANCH  22  24
ENDBRANCH  18  22
ENDBRANCH  17  20
ENDBRANCH   1  17
TORSDOF 8
ENDMDL
MODEL 5
REMARK VINA RESULT:      -6.9      2.831      6.886
REMARK  Name = 
REMARK  11 active torsions:
REMARK  status: ('A' for Active; 'I' for Inactive)
REMARK    1  A    between atoms: C_1  and  C_2
REMARK    2  A    between atoms: C_2  and  C_3
REMARK    3  A    between atoms: C_2  and  C_4
REMARK    4  A    between atoms: C_2  and  C_5
REMARK    5  A    between atoms: C_5  and  C_6
REMARK    6  A    between atoms: N_8  and  C_9
REMARK    7  A    between atoms: C_9  and  C_10
REMARK    8  A    between atoms: C_13  and  N_14
REMARK    9  A    between atoms: N_14  and  C_15
REMARK   10  A    between atoms: C_15  and  C_16
REMARK   11  A    between atoms: C_22  and  O_23
REMARK                            x       y       z     vdW  Elec       q    Type
REMARK                         _______ _______ _______ _____ _____    ______ ____
ROOT
ATOM      1  C   UNL     1       6.514   5.659  19.172  0.00  0.00    +0.000 C 
ATOM      2  O   UNL     1       7.114   4.419  18.737  0.00  0.00    +0.000 OA
ATOM      3  C   UNL     1       7.616   4.607  17.399  0.00  0.00    +0.000 C 
ATOM      4  C   UNL     1       7.458   6.088  16.998  0.00  0.00    +0.000 C 
ATOM      5  C   UNL     1       7.232   6.740  18.367  0.00  0.00    +0.000 C 
ENDROOT
BRANCH   4   6
ATOM      6  N   UNL     1       6.345   6.264  16.046  0.00  0.00    +0.000 NA
ATOM      7  H   UNL     1       5.576   6.755  16.501  0.00  0.00    +0.000 HD
BRANCH   6   8
ATOM      8  C   UNL     1       5.814   4.975  15.570  0.00  0.00    +0.000 C 
BRANCH   8   9
ATOM      9  C   UNL     1       6.315   4.614  14.186  0.00  0.00    +0.000 A 
ATOM     10  C   UNL     1       5.679   3.620  13.445  0.00  0.00    +0.000 A 
ATOM     11  C   UNL     1       6.134   3.343  12.157  0.00  0.00    +0.000 A 
ATOM     12  C   UNL     1       7.207   4.064  11.650  0.00  0.00    +0.000 A 
ATOM     13  C   UNL     1       7.786   5.032  12.453  0.00  0.00    +0.000 A 
ATOM     14  N   UNL     1       7.371   5.320  13.707  0.00  0.00    +0.000 NA
ENDBRANCH   8   9
ENDBRANCH   6   8
ENDBRANCH   4   6
BRANCH   5  15
ATOM     15  O   UNL     1       8.507   7.048  18.954  0.00  0.00    +0.000 OA
ATOM     16  H   UNL     1       8.348   7.635  19.714  0.00  0.00    +0.000 HD
ENDBRANCH   5  15
BRANCH   1  17
ATOM     17  C   UNL     1       5.004   5.629  18.898  0.00  0.00    +0.000 C 
BRANCH  17  20
ATOM     18  C   UNL     1       3.745   3.575  19.253  0.00  0.00    +0.000 C 
ATOM     19  O   UNL     1       3.810   3.301  18.055  0.00  0.00    +0.000 OA
ATOM     20  N   UNL     1       4.267   4.739  19.779  0.00  0.00    +0.000 N 
ATOM     21  H   UNL     1       4.467   4.779  20.771  0.00  0.00    +0.000 HD
BRANCH  18  22
ATOM     22  C   UNL     1       3.029   2.674  20.238  0.00  0.00    +0.000 C 
BRANCH  22  24
ATOM     23  C   UNL     1       0.634   2.488  19.396  0.00  0.00    +0.000 C 
ATOM     24  C   UNL     1       1.552   3.068  20.486  0.00  0.00    +0.000 C 
ATOM     25  C   UNL     1       1.386   4.596  20.528  0.00  0.00    +0.000 C 
ATOM     26  C   UNL     1       1.108   2.487  21.842  0.00  0.00    +0.000 C 
ENDBRANCH  22  24
ENDBRANCH  18  22
ENDBRANCH  17  20
ENDBRANCH   1  17
TORSDOF 8
ENDMDL
MODEL 6
REMARK VINA RESULT:      -6.9      1.546      4.485
REMARK  Name = 
REMARK  11 active torsions:
REMARK  status: ('A' for Active; 'I' for Inactive)
REMARK    1  A    between atoms: C_1  and  C_2
REMARK    2  A    between atoms: C_2  and  C_3
REMARK    3  A    between atoms: C_2  and  C_4
REMARK    4  A    between atoms: C_2  and  C_5
REMARK    5  A    between atoms: C_5  and  C_6
REMARK    6  A    between atoms: N_8  and  C_9
REMARK    7  A    between atoms: C_9  and  C_10
REMARK    8  A    between atoms: C_13  and  N_14
REMARK    9  A    between atoms: N_14  and  C_15
REMARK   10  A    between atoms: C_15  and  C_16
REMARK   11  A    between atoms: C_22  and  O_23
REMARK                            x       y       z     vdW  Elec       q    Type
REMARK                         _______ _______ _______ _____ _____    ______ ____
ROOT
ATOM      1  C   UNL     1       5.209   3.992  16.670  0.00  0.00    +0.000 C 
ATOM      2  O   UNL     1       5.537   5.144  15.862  0.00  0.00    +0.000 OA
ATOM      3  C   UNL     1       5.514   6.310  16.709  0.00  0.00    +0.000 C 
ATOM      4  C   UNL     1       5.297   5.873  18.173  0.00  0.00    +0.000 C 
ATOM      5  C   UNL     1       5.632   4.380  18.086  0.00  0.00    +0.000 C 
ENDROOT
BRANCH   4   6
ATOM      6  N   UNL     1       3.921   6.166  18.615  0.00  0.00    +0.000 NA
ATOM      7  H   UNL     1       3.369   5.309  18.616  0.00  0.00    +0.000 HD
BRANCH   6   8
ATOM      8  C   UNL     1       3.241   7.117  17.718  0.00  0.00    +0.000 C 
BRANCH   8   9
ATOM      9  C   UNL     1       2.366   8.101  18.470  0.00  0.00    +0.000 A 
ATOM     10  C   UNL     1       1.878   9.239  17.830  0.00  0.00    +0.000 A 
ATOM     11  C   UNL     1       1.038  10.100  18.533  0.00  0.00    +0.000 A 
ATOM     12  C   UNL     1       0.712   9.800  19.849  0.00  0.00    +0.000 A 
ATOM     13  C   UNL     1       1.242   8.652  20.412  0.00  0.00    +0.000 A 
ATOM     14  N   UNL     1       2.063   7.801  19.759  0.00  0.00    +0.000 NA
ENDBRANCH   8   9
ENDBRANCH   6   8
ENDBRANCH   4   6
BRANCH   5  15
ATOM     15  O   UNL     1       7.047   4.207  18.258  0.00  0.00    +0.000 OA
ATOM     16  H   UNL     1       7.467   4.306  17.385  0.00  0.00    +0.000 HD
ENDBRANCH   5  15
BRANCH   1  17
ATOM     17  C   UNL     1       3.706   3.698  16.567  0.00  0.00    +0.000 C 
BRANCH  17  20
ATOM     18  C   UNL     1       1.833   3.304  18.072  0.00  0.00    +0.000 C 
ATOM     19  O   UNL     1       1.131   4.095  17.442  0.00  0.00    +0.000 OA
ATOM     20  N   UNL     1       3.153   3.062  17.751  0.00  0.00    +0.000 N 
ATOM     21  H   UNL     1       3.586   2.207  18.079  0.00  0.00    +0.000 HD
BRANCH  18  22
ATOM     22  C   UNL     1       1.310   2.572  19.292  0.00  0.00    +0.000 C 
BRANCH  22  24
ATOM     23  C   UNL     1       3.424   2.815  20.689  0.00  0.00    +0.000 C 
ATOM     24  C   UNL     1       1.909   3.079  20.627  0.00  0.00    +0.000 C 
ATOM     25  C   UNL     1       1.229   2.407  21.831  0.00  0.00    +0.000 C 
ATOM     26  C   UNL     1       1.686   4.600  20.721  0.00  0.00    +0.000 C 
ENDBRANCH  22  24
ENDBRANCH  18  22
ENDBRANCH  17  20
ENDBRANCH   1  17
TORSDOF 8
ENDMDL
MODEL 7
REMARK VINA RESULT:      -6.9      1.038      1.420
REMARK  Name = 
REMARK  11 active torsions:
REMARK  status: ('A' for Active; 'I' for Inactive)
REMARK    1  A    between atoms: C_1  and  C_2
REMARK    2  A    between atoms: C_2  and  C_3
REMARK    3  A    between atoms: C_2  and  C_4
REMARK    4  A    between atoms: C_2  and  C_5
REMARK    5  A    between atoms: C_5  and  C_6
REMARK    6  A    between atoms: N_8  and  C_9
REMARK    7  A    between atoms: C_9  and  C_10
REMARK    8  A    between atoms: C_13  and  N_14
REMARK    9  A    between atoms: N_14  and  C_15
REMARK   10  A    between atoms: C_15  and  C_16
REMARK   11  A    between atoms: C_22  and  O_23
REMARK                            x       y       z     vdW  Elec       q    Type
REMARK                         _______ _______ _______ _____ _____    ______ ____
ROOT
ATOM      1  C   UNL     1       2.986   2.676  18.939  0.00  0.00    +0.000 C 
ATOM      2  O   UNL     1       1.999   2.266  19.911  0.00  0.00    +0.000 OA
ATOM      3  C   UNL     1       1.244   3.430  20.305  0.00  0.00    +0.000 C 
ATOM      4  C   UNL     1       1.672   4.633  19.438  0.00  0.00    +0.000 C 
ATOM      5  C   UNL     1       2.392   3.923  18.286  0.00  0.00    +0.000 C 
ENDROOT
BRANCH   4   6
ATOM      6  N   UNL     1       2.518   5.565  20.206  0.00  0.00    +0.000 NA
ATOM      7  H   UNL     1       2.059   5.804  21.085  0.00  0.00    +0.000 HD
BRANCH   6   8
ATOM      8  C   UNL     1       2.752   6.826  19.483  0.00  0.00    +0.000 C 
BRANCH   8   9
ATOM      9  C   UNL     1       1.813   7.932  19.923  0.00  0.00    +0.000 A 
ATOM     10  C   UNL     1       1.567   9.020  19.088  0.00  0.00    +0.000 A 
ATOM     11  C   UNL     1       0.664   9.998  19.501  0.00  0.00    +0.000 A 
ATOM     12  C   UNL     1       0.036   9.859  20.732  0.00  0.00    +0.000 A 
ATOM     13  C   UNL     1       0.338   8.751  21.502  0.00  0.00    +0.000 A 
ATOM     14  N   UNL     1       1.213   7.789  21.133  0.00  0.00    +0.000 NA
ENDBRANCH   8   9
ENDBRANCH   6   8
ENDBRANCH   4   6
BRANCH   5  15
ATOM     15  O   UNL     1       1.428   3.561  17.284  0.00  0.00    +0.000 OA
ATOM     16  H   UNL     1       1.805   3.784  16.415  0.00  0.00    +0.000 HD
ENDBRANCH   5  15
BRANCH   1  17
ATOM     17  C   UNL     1       4.319   2.963  19.643  0.00  0.00    +0.000 C 
BRANCH  17  20
ATOM     18  C   UNL     1       6.005   4.547  18.883  0.00  0.00    +0.000 C 
ATOM     19  O   UNL     1       5.621   5.383  19.701  0.00  0.00    +0.000 OA
ATOM     20  N   UNL     1       5.396   3.318  18.733  0.00  0.00    +0.000 N 
ATOM     21  H   UNL     1       5.914   2.568  18.292  0.00  0.00    +0.000 HD
BRANCH  18  22
ATOM     22  C   UNL     1       7.149   4.832  17.931  0.00  0.00    +0.000 C 
BRANCH  22  24
ATOM     23  C   UNL     1       7.419   7.202  17.043  0.00  0.00    +0.000 C 
ATOM     24  C   UNL     1       6.785   5.822  16.796  0.00  0.00    +0.000 C 
ATOM     25  C   UNL     1       5.261   5.980  16.666  0.00  0.00    +0.000 C 
ATOM     26  C   UNL     1       7.339   5.273  15.468  0.00  0.00    +0.000 C 
ENDBRANCH  22  24
ENDBRANCH  18  22
ENDBRANCH  17  20
ENDBRANCH   1  17
TORSDOF 8
ENDMDL
MODEL 8
REMARK VINA RESULT:      -6.8      0.711      1.476
REMARK  Name = 
REMARK  11 active torsions:
REMARK  status: ('A' for Active; 'I' for Inactive)
REMARK    1  A    between atoms: C_1  and  C_2
REMARK    2  A    between atoms: C_2  and  C_3
REMARK    3  A    between atoms: C_2  and  C_4
REMARK    4  A    between atoms: C_2  and  C_5
REMARK    5  A    between atoms: C_5  and  C_6
REMARK    6  A    between atoms: N_8  and  C_9
REMARK    7  A    between atoms: C_9  and  C_10
REMARK    8  A    between atoms: C_13  and  N_14
REMARK    9  A    between atoms: N_14  and  C_15
REMARK   10  A    between atoms: C_15  and  C_16
REMARK   11  A    between atoms: C_22  and  O_23
REMARK                            x       y       z     vdW  Elec       q    Type
REMARK                         _______ _______ _______ _____ _____    ______ ____
ROOT
ATOM      1  C   UNL     1       2.966   2.465  19.742  0.00  0.00    +0.000 C 
ATOM      2  O   UNL     1       1.956   2.831  20.707  0.00  0.00    +0.000 OA
ATOM      3  C   UNL     1       1.231   3.967  20.192  0.00  0.00    +0.000 C 
ATOM      4  C   UNL     1       1.706   4.266  18.755  0.00  0.00    +0.000 C 
ATOM      5  C   UNL     1       2.418   2.955  18.403  0.00  0.00    +0.000 C 
ENDROOT
BRANCH   4   6
ATOM      6  N   UNL     1       2.571   5.460  18.720  0.00  0.00    +0.000 NA
ATOM      7  H   UNL     1       3.551   5.176  18.712  0.00  0.00    +0.000 HD
BRANCH   6   8
ATOM      8  C   UNL     1       2.379   6.318  19.902  0.00  0.00    +0.000 C 
BRANCH   8   9
ATOM      9  C   UNL     1       1.911   7.714  19.537  0.00  0.00    +0.000 A 
ATOM     10  C   UNL     1       1.254   8.503  20.479  0.00  0.00    +0.000 A 
ATOM     11  C   UNL     1       0.876   9.798  20.129  0.00  0.00    +0.000 A 
ATOM     12  C   UNL     1       1.166  10.263  18.852  0.00  0.00    +0.000 A 
ATOM     13  C   UNL     1       1.818   9.414  17.976  0.00  0.00    +0.000 A 
ATOM     14  N   UNL     1       2.191   8.152  18.283  0.00  0.00    +0.000 NA
ENDBRANCH   8   9
ENDBRANCH   6   8
ENDBRANCH   4   6
BRANCH   5  15
ATOM     15  O   UNL     1       1.455   2.027  17.878  0.00  0.00    +0.000 OA
ATOM     16  H   UNL     1       1.924   1.198  17.673  0.00  0.00    +0.000 HD
ENDBRANCH   5  15
BRANCH   1  17
ATOM     17  C   UNL     1       4.299   3.132  20.109  0.00  0.00    +0.000 C 
BRANCH  17  20
ATOM     18  C   UNL     1       5.941   4.421  18.855  0.00  0.00    +0.000 C 
ATOM     19  O   UNL     1       5.778   5.391  19.595  0.00  0.00    +0.000 OA
ATOM     20  N   UNL     1       5.219   3.252  18.990  0.00  0.00    +0.000 N 
ATOM     21  H   UNL     1       5.588   2.402  18.583  0.00  0.00    +0.000 HD
BRANCH  18  22
ATOM     22  C   UNL     1       6.914   4.459  17.694  0.00  0.00    +0.000 C 
BRANCH  22  24
ATOM     23  C   UNL     1       5.027   5.698  16.517  0.00  0.00    +0.000 C 
ATOM     24  C   UNL     1       6.551   5.504  16.610  0.00  0.00    +0.000 C 
ATOM     25  C   UNL     1       7.093   5.086  15.233  0.00  0.00    +0.000 C 
ATOM     26  C   UNL     1       7.181   6.855  16.998  0.00  0.00    +0.000 C 
ENDBRANCH  22  24
ENDBRANCH  18  22
ENDBRANCH  17  20
ENDBRANCH   1  17
TORSDOF 8
ENDMDL
MODEL 9
REMARK VINA RESULT:      -6.8      1.598      4.293
REMARK  Name = 
REMARK  11 active torsions:
REMARK  status: ('A' for Active; 'I' for Inactive)
REMARK    1  A    between atoms: C_1  and  C_2
REMARK    2  A    between atoms: C_2  and  C_3
REMARK    3  A    between atoms: C_2  and  C_4
REMARK    4  A    between atoms: C_2  and  C_5
REMARK    5  A    between atoms: C_5  and  C_6
REMARK    6  A    between atoms: N_8  and  C_9
REMARK    7  A    between atoms: C_9  and  C_10
REMARK    8  A    between atoms: C_13  and  N_14
REMARK    9  A    between atoms: N_14  and  C_15
REMARK   10  A    between atoms: C_15  and  C_16
REMARK   11  A    between atoms: C_22  and  O_23
REMARK                            x       y       z     vdW  Elec       q    Type
REMARK                         _______ _______ _______ _____ _____    ______ ____
ROOT
ATOM      1  C   UNL     1       7.017   5.181  17.854  0.00  0.00    +0.000 C 
ATOM      2  O   UNL     1       6.418   4.444  16.766  0.00  0.00    +0.000 OA
ATOM      3  C   UNL     1       5.375   5.258  16.191  0.00  0.00    +0.000 C 
ATOM      4  C   UNL     1       5.394   6.652  16.851  0.00  0.00    +0.000 C 
ATOM      5  C   UNL     1       6.781   6.649  17.504  0.00  0.00    +0.000 C 
ENDROOT
BRANCH   4   6
ATOM      6  N   UNL     1       4.273   6.806  17.798  0.00  0.00    +0.000 NA
ATOM      7  H   UNL     1       3.879   5.891  18.017  0.00  0.00    +0.000 HD
BRANCH   6   8
ATOM      8  C   UNL     1       3.183   7.623  17.238  0.00  0.00    +0.000 C 
BRANCH   8   9
ATOM      9  C   UNL     1       2.334   8.275  18.312  0.00  0.00    +0.000 A 
ATOM     10  C   UNL     1       1.669   9.471  18.052  0.00  0.00    +0.000 A 
ATOM     11  C   UNL     1       0.859  10.022  19.043  0.00  0.00    +0.000 A 
ATOM     12  C   UNL     1       0.740   9.364  20.261  0.00  0.00    +0.000 A 
ATOM     13  C   UNL     1       1.438   8.182  20.440  0.00  0.00    +0.000 A 
ATOM     14  N   UNL     1       2.235   7.626  19.500  0.00  0.00    +0.000 NA
ENDBRANCH   8   9
ENDBRANCH   6   8
ENDBRANCH   4   6
BRANCH   5  15
ATOM     15  O   UNL     1       7.750   7.104  16.546  0.00  0.00    +0.000 OA
ATOM     16  H   UNL     1       8.605   6.699  16.774  0.00  0.00    +0.000 HD
ENDBRANCH   5  15
BRANCH   1  17
ATOM     17  C   UNL     1       6.353   4.781  19.179  0.00  0.00    +0.000 C 
BRANCH  17  20
ATOM     18  C   UNL     1       4.078   3.980  19.514  0.00  0.00    +0.000 C 
ATOM     19  O   UNL     1       3.780   5.009  20.119  0.00  0.00    +0.000 OA
ATOM     20  N   UNL     1       5.351   3.738  19.039  0.00  0.00    +0.000 N 
ATOM     21  H   UNL     1       5.475   3.054  18.302  0.00  0.00    +0.000 HD
BRANCH  18  22
ATOM     22  C   UNL     1       3.074   2.867  19.293  0.00  0.00    +0.000 C 
BRANCH  22  24
ATOM     23  C   UNL     1       1.615   4.287  17.764  0.00  0.00    +0.000 C 
ATOM     24  C   UNL     1       1.639   3.370  19.000  0.00  0.00    +0.000 C 
ATOM     25  C   UNL     1       1.062   4.131  20.206  0.00  0.00    +0.000 C 
ATOM     26  C   UNL     1       0.740   2.153  18.709  0.00  0.00    +0.000 C 
ENDBRANCH  22  24
ENDBRANCH  18  22
ENDBRANCH  17  20
ENDBRANCH   1  17
TORSDOF 8
ENDMDL
