MODEL 1
REMARK VINA RESULT:      -7.4      0.000      0.000
REMARK  Name = 
REMARK  10 active torsions:
REMARK  status: ('A' for Active; 'I' for Inactive)
REMARK    1  A    between atoms: C_1  and  C_2
REMARK    2  A    between atoms: C_7  and  C_8
REMARK    3  A    between atoms: C_9  and  C_10
REMARK    4  A    between atoms: C_15  and  C_16
REMARK    5  A    between atoms: C_15  and  C_30
REMARK    6  A    between atoms: C_19  and  O_20
REMARK    7  A    between atoms: O_20  and  C_21
REMARK    8  A    between atoms: C_21  and  C_22
REMARK    9  A    between atoms: C_22  and  C_23
REMARK   10  A    between atoms: C_23  and  C_24
REMARK                            x       y       z     vdW  Elec       q    Type
REMARK                         _______ _______ _______ _____ _____    ______ ____
ROOT
ATOM      1  C   UNL     1       0.382  14.439  19.597  0.00  0.00    +0.000 C 
ATOM      2  C   UNL     1       1.626  14.018  19.526  0.00  0.00    +0.000 C 
ATOM      3  C   UNL     1       1.939  12.905  18.664  0.00  0.00    +0.000 C 
ATOM      4  O   UNL     1       2.339  12.979  17.504  0.00  0.00    +0.000 OA
ATOM      5  N   UNL     1       1.227  11.892  19.241  0.00  0.00    +0.000 N 
ATOM      6  C   UNL     1       0.138  11.553  18.357  0.00  0.00    +0.000 C 
ATOM      7  C   UNL     1      -0.441  13.355  18.632  0.00  0.00    +0.000 C 
ATOM      8  H   UNL     1       0.978  11.911  20.230  0.00  0.00    +0.000 HD
ENDROOT
BRANCH   1  15
ATOM      9  C   UNL     1      -0.558  15.943  22.296  0.00  0.00    +0.000 C 
ATOM     10  C   UNL     1       0.261  16.587  21.202  0.00  0.00    +0.000 A 
ATOM     11  C   UNL     1       0.827  17.842  21.631  0.00  0.00    +0.000 A 
ATOM     12  C   UNL     1       1.769  18.516  20.881  0.00  0.00    +0.000 A 
ATOM     13  C   UNL     1       2.162  17.939  19.683  0.00  0.00    +0.000 A 
ATOM     14  C   UNL     1       1.585  16.712  19.220  0.00  0.00    +0.000 A 
ATOM     15  C   UNL     1       0.597  15.968  19.937  0.00  0.00    +0.000 A 
ENDBRANCH   1  15
BRANCH   6  16
ATOM     16  C   UNL     1       0.796  10.003  18.760  0.00  0.00    +0.000 A 
ATOM     17  C   UNL     1       0.881   9.478  20.087  0.00  0.00    +0.000 A 
ATOM     18  C   UNL     1       1.571   8.265  20.420  0.00  0.00    +0.000 A 
ATOM     19  C   UNL     1       2.247   7.513  19.460  0.00  0.00    +0.000 A 
ATOM     20  C   UNL     1       2.242   8.033  18.156  0.00  0.00    +0.000 A 
ATOM     21  C   UNL     1       1.529   9.236  17.803  0.00  0.00    +0.000 A 
BRANCH  19  22
ATOM     22  O   UNL     1       2.946   6.333  19.682  0.00  0.00    +0.000 OA
BRANCH  22  23
ATOM     23  C   UNL     1       3.809   5.854  18.626  0.00  0.00    +0.000 C 
BRANCH  23  24
ATOM     24  C   UNL     1       3.388   4.484  18.034  0.00  0.00    +0.000 C 
BRANCH  24  25
ATOM     25  C   UNL     1       3.830   3.189  18.738  0.00  0.00    +0.000 C 
BRANCH  25  26
ATOM     26  C   UNL     1       3.007   1.945  18.439  0.00  0.00    +0.000 C 
ATOM     27  F   UNL     1       2.335   2.058  17.278  0.00  0.00    +0.000 F 
ATOM     28  F   UNL     1       3.809   0.856  18.338  0.00  0.00    +0.000 F 
ATOM     29  F   UNL     1       2.108   1.709  19.417  0.00  0.00    +0.000 F 
ENDBRANCH  25  26
ENDBRANCH  24  25
ENDBRANCH  23  24
ENDBRANCH  22  23
ENDBRANCH  19  22
ENDBRANCH   6  16
BRANCH   6  30
ATOM     30  C   UNL     1      -1.347  11.029  18.531  0.00  0.00    +0.000 C 
ATOM     31  F   UNL     1      -1.743  11.121  19.826  0.00  0.00    +0.000 F 
ATOM     32  F   UNL     1      -2.206  11.785  17.795  0.00  0.00    +0.000 F 
ATOM     33  F   UNL     1      -1.571   9.762  18.114  0.00  0.00    +0.000 F 
ENDBRANCH   6  30
BRANCH   2  34
ATOM     34  C   UNL     1       2.545  13.754  20.707  0.00  0.00    +0.000 C 
ATOM     35  N   UNL     1       3.308  13.536  21.688  0.00  0.00    +0.000 NA
ENDBRANCH   2  34
TORSDOF 9
ENDMDL
MODEL 2
REMARK VINA RESULT:      -7.3      2.617      3.710
REMARK  Name = 
REMARK  10 active torsions:
REMARK  status: ('A' for Active; 'I' for Inactive)
REMARK    1  A    between atoms: C_1  and  C_2
REMARK    2  A    between atoms: C_7  and  C_8
REMARK    3  A    between atoms: C_9  and  C_10
REMARK    4  A    between atoms: C_15  and  C_16
REMARK    5  A    between atoms: C_15  and  C_30
REMARK    6  A    between atoms: C_19  and  O_20
REMARK    7  A    between atoms: O_20  and  C_21
REMARK    8  A    between atoms: C_21  and  C_22
REMARK    9  A    between atoms: C_22  and  C_23
REMARK   10  A    between atoms: C_23  and  C_24
REMARK                            x       y       z     vdW  Elec       q    Type
REMARK                         _______ _______ _______ _____ _____    ______ ____
ROOT
ATOM      1  C   UNL     1      -2.027  12.201  21.062  0.00  0.00    +0.000 C 
ATOM      2  C   UNL     1      -0.856  11.996  21.627  0.00  0.00    +0.000 C 
ATOM      3  C   UNL     1       0.290  11.745  20.789  0.00  0.00    +0.000 C 
ATOM      4  O   UNL     1       1.096  12.586  20.396  0.00  0.00    +0.000 OA
ATOM      5  N   UNL     1      -0.054  10.568  20.186  0.00  0.00    +0.000 N 
ATOM      6  C   UNL     1      -0.316  10.842  18.793  0.00  0.00    +0.000 C 
ATOM      7  C   UNL     1      -1.709  11.982  19.439  0.00  0.00    +0.000 C 
ATOM      8  H   UNL     1      -0.708   9.918  20.619  0.00  0.00    +0.000 HD
ENDROOT
BRANCH   1  15
ATOM      9  C   UNL     1      -2.127  15.429  20.999  0.00  0.00    +0.000 C 
ATOM     10  C   UNL     1      -2.842  14.573  22.018  0.00  0.00    +0.000 A 
ATOM     11  C   UNL     1      -3.809  15.338  22.768  0.00  0.00    +0.000 A 
ATOM     12  C   UNL     1      -4.720  14.739  23.612  0.00  0.00    +0.000 A 
ATOM     13  C   UNL     1      -4.678  13.357  23.720  0.00  0.00    +0.000 A 
ATOM     14  C   UNL     1      -3.702  12.582  23.013  0.00  0.00    +0.000 A 
ATOM     15  C   UNL     1      -2.721  13.136  22.133  0.00  0.00    +0.000 A 
ENDBRANCH   1  15
BRANCH   6  16
ATOM     16  C   UNL     1       0.707   9.446  18.720  0.00  0.00    +0.000 A 
ATOM     17  C   UNL     1       0.824   8.470  19.758  0.00  0.00    +0.000 A 
ATOM     18  C   UNL     1       1.791   7.411  19.748  0.00  0.00    +0.000 A 
ATOM     19  C   UNL     1       2.725   7.272  18.722  0.00  0.00    +0.000 A 
ATOM     20  C   UNL     1       2.684   8.252  17.718  0.00  0.00    +0.000 A 
ATOM     21  C   UNL     1       1.700   9.307  17.701  0.00  0.00    +0.000 A 
BRANCH  19  22
ATOM     22  O   UNL     1       3.700   6.288  18.626  0.00  0.00    +0.000 OA
BRANCH  22  23
ATOM     23  C   UNL     1       3.497   5.232  17.661  0.00  0.00    +0.000 C 
BRANCH  23  24
ATOM     24  C   UNL     1       2.548   4.104  18.143  0.00  0.00    +0.000 C 
BRANCH  24  25
ATOM     25  C   UNL     1       2.486   3.760  19.641  0.00  0.00    +0.000 C 
BRANCH  25  26
ATOM     26  C   UNL     1       1.113   3.405  20.195  0.00  0.00    +0.000 C 
ATOM     27  F   UNL     1       0.402   4.504  20.509  0.00  0.00    +0.000 F 
ATOM     28  F   UNL     1       0.396   2.706  19.280  0.00  0.00    +0.000 F 
ATOM     29  F   UNL     1       1.218   2.647  21.306  0.00  0.00    +0.000 F 
ENDBRANCH  25  26
ENDBRANCH  24  25
ENDBRANCH  23  24
ENDBRANCH  22  23
ENDBRANCH  19  22
ENDBRANCH   6  16
BRANCH   6  30
ATOM     30  C   UNL     1      -1.283  10.257  17.682  0.00  0.00    +0.000 C 
ATOM     31  F   UNL     1      -0.636   9.351  16.907  0.00  0.00    +0.000 F 
ATOM     32  F   UNL     1      -2.332   9.613  18.260  0.00  0.00    +0.000 F 
ATOM     33  F   UNL     1      -1.857  11.172  16.869  0.00  0.00    +0.000 F 
ENDBRANCH   6  30
BRANCH   2  34
ATOM     34  C   UNL     1      -0.584  11.066  22.798  0.00  0.00    +0.000 C 
ATOM     35  N   UNL     1      -0.359  10.294  23.770  0.00  0.00    +0.000 NA
ENDBRANCH   2  34
TORSDOF 9
ENDMDL
MODEL 3
REMARK VINA RESULT:      -7.3      1.140      1.632
REMARK  Name = 
REMARK  10 active torsions:
REMARK  status: ('A' for Active; 'I' for Inactive)
REMARK    1  A    between atoms: C_1  and  C_2
REMARK    2  A    between atoms: C_7  and  C_8
REMARK    3  A    between atoms: C_9  and  C_10
REMARK    4  A    between atoms: C_15  and  C_16
REMARK    5  A    between atoms: C_15  and  C_30
REMARK    6  A    between atoms: C_19  and  O_20
REMARK    7  A    between atoms: O_20  and  C_21
REMARK    8  A    between atoms: C_21  and  C_22
REMARK    9  A    between atoms: C_22  and  C_23
REMARK   10  A    between atoms: C_23  and  C_24
REMARK                            x       y       z     vdW  Elec       q    Type
REMARK                         _______ _______ _______ _____ _____    ______ ____
ROOT
ATOM      1  C   UNL     1      -0.003  14.219  19.348  0.00  0.00    +0.000 C 
ATOM      2  C   UNL     1       1.289  13.990  19.451  0.00  0.00    +0.000 C 
ATOM      3  C   UNL     1       1.874  12.925  18.675  0.00  0.00    +0.000 C 
ATOM      4  O   UNL     1       2.407  13.042  17.573  0.00  0.00    +0.000 OA
ATOM      5  N   UNL     1       1.249  11.825  19.191  0.00  0.00    +0.000 N 
ATOM      6  C   UNL     1       0.348  11.312  18.187  0.00  0.00    +0.000 C 
ATOM      7  C   UNL     1      -0.522  13.010  18.324  0.00  0.00    +0.000 C 
ATOM      8  H   UNL     1       0.873  11.820  20.139  0.00  0.00    +0.000 HD
ENDROOT
BRANCH   1  15
ATOM      9  C   UNL     1      -1.007  15.572  22.104  0.00  0.00    +0.000 C 
ATOM     10  C   UNL     1      -0.414  16.338  20.944  0.00  0.00    +0.000 A 
ATOM     11  C   UNL     1      -0.071  17.688  21.319  0.00  0.00    +0.000 A 
ATOM     12  C   UNL     1       0.662  18.514  20.493  0.00  0.00    +0.000 A 
ATOM     13  C   UNL     1       1.066  17.998  19.271  0.00  0.00    +0.000 A 
ATOM     14  C   UNL     1       0.705  16.673  18.863  0.00  0.00    +0.000 A 
ATOM     15  C   UNL     1      -0.062  15.769  19.660  0.00  0.00    +0.000 A 
ENDBRANCH   1  15
BRANCH   6  16
ATOM     16  C   UNL     1       1.170   9.885  18.723  0.00  0.00    +0.000 A 
ATOM     17  C   UNL     1       1.876   8.984  17.866  0.00  0.00    +0.000 A 
ATOM     18  C   UNL     1       2.413   7.728  18.303  0.00  0.00    +0.000 A 
ATOM     19  C   UNL     1       2.255   7.272  19.612  0.00  0.00    +0.000 A 
ATOM     20  C   UNL     1       1.509   8.099  20.465  0.00  0.00    +0.000 A 
ATOM     21  C   UNL     1       0.987   9.377  20.046  0.00  0.00    +0.000 A 
BRANCH  19  22
ATOM     22  O   UNL     1       2.731   6.073  20.127  0.00  0.00    +0.000 OA
BRANCH  22  23
ATOM     23  C   UNL     1       1.811   5.255  20.885  0.00  0.00    +0.000 C 
BRANCH  23  24
ATOM     24  C   UNL     1       1.923   3.736  20.594  0.00  0.00    +0.000 C 
BRANCH  24  25
ATOM     25  C   UNL     1       1.319   3.170  19.298  0.00  0.00    +0.000 C 
BRANCH  25  26
ATOM     26  C   UNL     1       2.164   3.317  18.040  0.00  0.00    +0.000 C 
ATOM     27  F   UNL     1       1.738   4.334  17.268  0.00  0.00    +0.000 F 
ATOM     28  F   UNL     1       3.458   3.567  18.362  0.00  0.00    +0.000 F 
ATOM     29  F   UNL     1       2.131   2.191  17.298  0.00  0.00    +0.000 F 
ENDBRANCH  25  26
ENDBRANCH  24  25
ENDBRANCH  23  24
ENDBRANCH  22  23
ENDBRANCH  19  22
ENDBRANCH   6  16
BRANCH   6  30
ATOM     30  C   UNL     1      -1.052  10.572  18.188  0.00  0.00    +0.000 C 
ATOM     31  F   UNL     1      -2.027  11.381  17.702  0.00  0.00    +0.000 F 
ATOM     32  F   UNL     1      -1.008   9.473  17.387  0.00  0.00    +0.000 F 
ATOM     33  F   UNL     1      -1.460  10.098  19.387  0.00  0.00    +0.000 F 
ENDBRANCH   6  30
BRANCH   2  34
ATOM     34  C   UNL     1       2.074  13.886  20.748  0.00  0.00    +0.000 C 
ATOM     35  N   UNL     1       2.725  13.799  21.826  0.00  0.00    +0.000 NA
ENDBRANCH   2  34
TORSDOF 9
ENDMDL
MODEL 4
REMARK VINA RESULT:      -7.3      2.540      3.679
REMARK  Name = 
REMARK  10 active torsions:
REMARK  status: ('A' for Active; 'I' for Inactive)
REMARK    1  A    between atoms: C_1  and  C_2
REMARK    2  A    between atoms: C_7  and  C_8
REMARK    3  A    between atoms: C_9  and  C_10
REMARK    4  A    between atoms: C_15  and  C_16
REMARK    5  A    between atoms: C_15  and  C_30
REMARK    6  A    between atoms: C_19  and  O_20
REMARK    7  A    between atoms: O_20  and  C_21
REMARK    8  A    between atoms: C_21  and  C_22
REMARK    9  A    between atoms: C_22  and  C_23
REMARK   10  A    between atoms: C_23  and  C_24
REMARK                            x       y       z     vdW  Elec       q    Type
REMARK                         _______ _______ _______ _____ _____    ______ ____
ROOT
ATOM      1  C   UNL     1      -1.579  11.835  21.468  0.00  0.00    +0.000 C 
ATOM      2  C   UNL     1      -0.401  11.564  21.989  0.00  0.00    +0.000 C 
ATOM      3  C   UNL     1       0.718  11.343  21.108  0.00  0.00    +0.000 C 
ATOM      4  O   UNL     1       1.537  12.189  20.752  0.00  0.00    +0.000 OA
ATOM      5  N   UNL     1       0.330  10.218  20.436  0.00  0.00    +0.000 N 
ATOM      6  C   UNL     1       0.043  10.591  19.072  0.00  0.00    +0.000 C 
ATOM      7  C   UNL     1      -1.304  11.718  19.827  0.00  0.00    +0.000 C 
ATOM      8  H   UNL     1      -0.330   9.555  20.842  0.00  0.00    +0.000 HD
ENDROOT
BRANCH   1  15
ATOM      9  C   UNL     1      -1.607  15.062  21.617  0.00  0.00    +0.000 C 
ATOM     10  C   UNL     1      -2.315  14.156  22.598  0.00  0.00    +0.000 A 
ATOM     11  C   UNL     1      -3.244  14.890  23.422  0.00  0.00    +0.000 A 
ATOM     12  C   UNL     1      -4.147  14.257  24.250  0.00  0.00    +0.000 A 
ATOM     13  C   UNL     1      -4.134  12.870  24.266  0.00  0.00    +0.000 A 
ATOM     14  C   UNL     1      -3.194  12.123  23.484  0.00  0.00    +0.000 A 
ATOM     15  C   UNL     1      -2.224  12.712  22.616  0.00  0.00    +0.000 A 
ENDBRANCH   1  15
BRANCH   6  16
ATOM     16  C   UNL     1       1.028   9.179  18.880  0.00  0.00    +0.000 A 
ATOM     17  C   UNL     1       1.054   8.078  19.792  0.00  0.00    +0.000 A 
ATOM     18  C   UNL     1       1.989   6.993  19.703  0.00  0.00    +0.000 A 
ATOM     19  C   UNL     1       2.978   6.950  18.721  0.00  0.00    +0.000 A 
ATOM     20  C   UNL     1       3.026   8.048  17.848  0.00  0.00    +0.000 A 
ATOM     21  C   UNL     1       2.076   9.131  17.910  0.00  0.00    +0.000 A 
BRANCH  19  22
ATOM     22  O   UNL     1       3.929   5.951  18.556  0.00  0.00    +0.000 OA
BRANCH  22  23
ATOM     23  C   UNL     1       4.188   5.484  17.212  0.00  0.00    +0.000 C 
BRANCH  23  24
ATOM     24  C   UNL     1       3.444   4.175  16.840  0.00  0.00    +0.000 C 
BRANCH  24  25
ATOM     25  C   UNL     1       3.020   3.204  17.956  0.00  0.00    +0.000 C 
BRANCH  25  26
ATOM     26  C   UNL     1       1.590   3.339  18.458  0.00  0.00    +0.000 C 
ATOM     27  F   UNL     1       0.873   4.192  17.703  0.00  0.00    +0.000 F 
ATOM     28  F   UNL     1       0.958   2.139  18.423  0.00  0.00    +0.000 F 
ATOM     29  F   UNL     1       1.562   3.786  19.730  0.00  0.00    +0.000 F 
ENDBRANCH  25  26
ENDBRANCH  24  25
ENDBRANCH  23  24
ENDBRANCH  22  23
ENDBRANCH  19  22
ENDBRANCH   6  16
BRANCH   6  30
ATOM     30  C   UNL     1      -0.964  10.106  17.949  0.00  0.00    +0.000 C 
ATOM     31  F   UNL     1      -1.411  11.156  17.215  0.00  0.00    +0.000 F 
ATOM     32  F   UNL     1      -0.342   9.254  17.091  0.00  0.00    +0.000 F 
ATOM     33  F   UNL     1      -2.039   9.414  18.390  0.00  0.00    +0.000 F 
ENDBRANCH   6  30
BRANCH   2  34
ATOM     34  C   UNL     1      -0.127  10.551  23.089  0.00  0.00    +0.000 C 
ATOM     35  N   UNL     1       0.101   9.710  24.001  0.00  0.00    +0.000 NA
ENDBRANCH   2  34
TORSDOF 9
ENDMDL
MODEL 5
REMARK VINA RESULT:      -7.3      2.967      4.011
REMARK  Name = 
REMARK  10 active torsions:
REMARK  status: ('A' for Active; 'I' for Inactive)
REMARK    1  A    between atoms: C_1  and  C_2
REMARK    2  A    between atoms: C_7  and  C_8
REMARK    3  A    between atoms: C_9  and  C_10
REMARK    4  A    between atoms: C_15  and  C_16
REMARK    5  A    between atoms: C_15  and  C_30
REMARK    6  A    between atoms: C_19  and  O_20
REMARK    7  A    between atoms: O_20  and  C_21
REMARK    8  A    between atoms: C_21  and  C_22
REMARK    9  A    between atoms: C_22  and  C_23
REMARK   10  A    between atoms: C_23  and  C_24
REMARK                            x       y       z     vdW  Elec       q    Type
REMARK                         _______ _______ _______ _____ _____    ______ ____
ROOT
ATOM      1  C   UNL     1      -1.758  11.828  21.363  0.00  0.00    +0.000 C 
ATOM      2  C   UNL     1      -0.593  11.658  21.951  0.00  0.00    +0.000 C 
ATOM      3  C   UNL     1       0.590  11.535  21.136  0.00  0.00    +0.000 C 
ATOM      4  O   UNL     1       1.351  12.448  20.823  0.00  0.00    +0.000 OA
ATOM      5  N   UNL     1       0.339  10.381  20.448  0.00  0.00    +0.000 N 
ATOM      6  C   UNL     1       0.098  10.728  19.067  0.00  0.00    +0.000 C 
ATOM      7  C   UNL     1      -1.382  11.736  19.741  0.00  0.00    +0.000 C 
ATOM      8  H   UNL     1      -0.285   9.664  20.818  0.00  0.00    +0.000 HD
ENDROOT
BRANCH   1  15
ATOM      9  C   UNL     1      -2.862  14.850  21.077  0.00  0.00    +0.000 C 
ATOM     10  C   UNL     1      -3.116  13.958  22.269  0.00  0.00    +0.000 A 
ATOM     11  C   UNL     1      -4.149  14.494  23.122  0.00  0.00    +0.000 A 
ATOM     12  C   UNL     1      -4.693  13.767  24.160  0.00  0.00    +0.000 A 
ATOM     13  C   UNL     1      -4.209  12.483  24.362  0.00  0.00    +0.000 A 
ATOM     14  C   UNL     1      -3.158  11.946  23.550  0.00  0.00    +0.000 A 
ATOM     15  C   UNL     1      -2.540  12.646  22.468  0.00  0.00    +0.000 A 
ENDBRANCH   1  15
BRANCH   6  16
ATOM     16  C   UNL     1       1.210   9.407  18.938  0.00  0.00    +0.000 A 
ATOM     17  C   UNL     1       2.001   9.122  17.782  0.00  0.00    +0.000 A 
ATOM     18  C   UNL     1       2.795   7.936  17.634  0.00  0.00    +0.000 A 
ATOM     19  C   UNL     1       2.828   6.943  18.612  0.00  0.00    +0.000 A 
ATOM     20  C   UNL     1       2.011   7.156  19.733  0.00  0.00    +0.000 A 
ATOM     21  C   UNL     1       1.229   8.356  19.907  0.00  0.00    +0.000 A 
BRANCH  19  22
ATOM     22  O   UNL     1       3.557   5.761  18.560  0.00  0.00    +0.000 OA
BRANCH  22  23
ATOM     23  C   UNL     1       3.130   4.749  17.620  0.00  0.00    +0.000 C 
BRANCH  23  24
ATOM     24  C   UNL     1       1.676   4.256  17.834  0.00  0.00    +0.000 C 
BRANCH  24  25
ATOM     25  C   UNL     1       1.404   3.121  18.837  0.00  0.00    +0.000 C 
BRANCH  25  26
ATOM     26  C   UNL     1       1.288   3.528  20.299  0.00  0.00    +0.000 C 
ATOM     27  F   UNL     1       0.396   4.522  20.472  0.00  0.00    +0.000 F 
ATOM     28  F   UNL     1       0.876   2.479  21.054  0.00  0.00    +0.000 F 
ATOM     29  F   UNL     1       2.475   3.947  20.782  0.00  0.00    +0.000 F 
ENDBRANCH  25  26
ENDBRANCH  24  25
ENDBRANCH  23  24
ENDBRANCH  22  23
ENDBRANCH  19  22
ENDBRANCH   6  16
BRANCH   6  30
ATOM     30  C   UNL     1      -0.799  10.159  17.892  0.00  0.00    +0.000 C 
ATOM     31  F   UNL     1      -1.863   9.476  18.384  0.00  0.00    +0.000 F 
ATOM     32  F   UNL     1      -1.291  11.178  17.137  0.00  0.00    +0.000 F 
ATOM     33  F   UNL     1      -0.161   9.361  17.006  0.00  0.00    +0.000 F 
ENDBRANCH   6  30
BRANCH   2  34
ATOM     34  C   UNL     1      -0.295  10.673  23.068  0.00  0.00    +0.000 C 
ATOM     35  N   UNL     1      -0.047   9.855  23.996  0.00  0.00    +0.000 NA
ENDBRANCH   2  34
TORSDOF 9
ENDMDL
MODEL 6
REMARK VINA RESULT:      -7.2      2.928      4.028
REMARK  Name = 
REMARK  10 active torsions:
REMARK  status: ('A' for Active; 'I' for Inactive)
REMARK    1  A    between atoms: C_1  and  C_2
REMARK    2  A    between atoms: C_7  and  C_8
REMARK    3  A    between atoms: C_9  and  C_10
REMARK    4  A    between atoms: C_15  and  C_16
REMARK    5  A    between atoms: C_15  and  C_30
REMARK    6  A    between atoms: C_19  and  O_20
REMARK    7  A    between atoms: O_20  and  C_21
REMARK    8  A    between atoms: C_21  and  C_22
REMARK    9  A    between atoms: C_22  and  C_23
REMARK   10  A    between atoms: C_23  and  C_24
REMARK                            x       y       z     vdW  Elec       q    Type
REMARK                         _______ _______ _______ _____ _____    ______ ____
ROOT
ATOM      1  C   UNL     1      -1.621  11.830  21.616  0.00  0.00    +0.000 C 
ATOM      2  C   UNL     1      -0.424  11.563  22.094  0.00  0.00    +0.000 C 
ATOM      3  C   UNL     1       0.678  11.421  21.176  0.00  0.00    +0.000 C 
ATOM      4  O   UNL     1       1.465  12.307  20.847  0.00  0.00    +0.000 OA
ATOM      5  N   UNL     1       0.303  10.323  20.453  0.00  0.00    +0.000 N 
ATOM      6  C   UNL     1      -0.027  10.761  19.118  0.00  0.00    +0.000 C 
ATOM      7  C   UNL     1      -1.385  11.809  19.965  0.00  0.00    +0.000 C 
ATOM      8  H   UNL     1      -0.330   9.622  20.837  0.00  0.00    +0.000 HD
ENDROOT
BRANCH   1  15
ATOM      9  C   UNL     1      -1.456  15.020  22.100  0.00  0.00    +0.000 C 
ATOM     10  C   UNL     1      -2.260  14.068  22.954  0.00  0.00    +0.000 A 
ATOM     11  C   UNL     1      -3.178  14.774  23.815  0.00  0.00    +0.000 A 
ATOM     12  C   UNL     1      -4.153  14.120  24.539  0.00  0.00    +0.000 A 
ATOM     13  C   UNL     1      -4.226  12.741  24.411  0.00  0.00    +0.000 A 
ATOM     14  C   UNL     1      -3.302  12.017  23.591  0.00  0.00    +0.000 A 
ATOM     15  C   UNL     1      -2.260  12.626  22.825  0.00  0.00    +0.000 A 
ENDBRANCH   1  15
BRANCH   6  16
ATOM     16  C   UNL     1       0.989   9.389  18.827  0.00  0.00    +0.000 A 
ATOM     17  C   UNL     1       1.125   8.277  19.716  0.00  0.00    +0.000 A 
ATOM     18  C   UNL     1       2.088   7.229  19.536  0.00  0.00    +0.000 A 
ATOM     19  C   UNL     1       2.998   7.235  18.479  0.00  0.00    +0.000 A 
ATOM     20  C   UNL     1       2.939   8.346  17.624  0.00  0.00    +0.000 A 
ATOM     21  C   UNL     1       1.958   9.393  17.777  0.00  0.00    +0.000 A 
BRANCH  19  22
ATOM     22  O   UNL     1       3.968   6.274  18.224  0.00  0.00    +0.000 OA
BRANCH  22  23
ATOM     23  C   UNL     1       3.893   5.031  18.959  0.00  0.00    +0.000 C 
BRANCH  23  24
ATOM     24  C   UNL     1       4.675   3.861  18.310  0.00  0.00    +0.000 C 
BRANCH  24  25
ATOM     25  C   UNL     1       4.632   3.679  16.783  0.00  0.00    +0.000 C 
BRANCH  25  26
ATOM     26  C   UNL     1       5.854   4.158  16.012  0.00  0.00    +0.000 C 
ATOM     27  F   UNL     1       6.116   3.373  14.951  0.00  0.00    +0.000 F 
ATOM     28  F   UNL     1       5.660   5.417  15.546  0.00  0.00    +0.000 F 
ATOM     29  F   UNL     1       6.950   4.172  16.799  0.00  0.00    +0.000 F 
ENDBRANCH  25  26
ENDBRANCH  24  25
ENDBRANCH  23  24
ENDBRANCH  22  23
ENDBRANCH  19  22
ENDBRANCH   6  16
BRANCH   6  30
ATOM     30  C   UNL     1      -1.049  10.309  17.995  0.00  0.00    +0.000 C 
ATOM     31  F   UNL     1      -2.152   9.741  18.545  0.00  0.00    +0.000 F 
ATOM     32  F   UNL     1      -1.470  11.386  17.277  0.00  0.00    +0.000 F 
ATOM     33  F   UNL     1      -0.557   9.457  17.067  0.00  0.00    +0.000 F 
ENDBRANCH   6  30
BRANCH   2  34
ATOM     34  C   UNL     1      -0.096  10.502  23.130  0.00  0.00    +0.000 C 
ATOM     35  N   UNL     1       0.177   9.620  23.990  0.00  0.00    +0.000 NA
ENDBRANCH   2  34
TORSDOF 9
ENDMDL
MODEL 7
REMARK VINA RESULT:      -7.1      1.371      1.950
REMARK  Name = 
REMARK  10 active torsions:
REMARK  status: ('A' for Active; 'I' for Inactive)
REMARK    1  A    between atoms: C_1  and  C_2
REMARK    2  A    between atoms: C_7  and  C_8
REMARK    3  A    between atoms: C_9  and  C_10
REMARK    4  A    between atoms: C_15  and  C_16
REMARK    5  A    between atoms: C_15  and  C_30
REMARK    6  A    between atoms: C_19  and  O_20
REMARK    7  A    between atoms: O_20  and  C_21
REMARK    8  A    between atoms: C_21  and  C_22
REMARK    9  A    between atoms: C_22  and  C_23
REMARK   10  A    between atoms: C_23  and  C_24
REMARK                            x       y       z     vdW  Elec       q    Type
REMARK                         _______ _______ _______ _____ _____    ______ ____
ROOT
ATOM      1  C   UNL     1      -0.258  14.371  19.580  0.00  0.00    +0.000 C 
ATOM      2  C   UNL     1       1.047  14.206  19.606  0.00  0.00    +0.000 C 
ATOM      3  C   UNL     1       1.643  13.215  18.746  0.00  0.00    +0.000 C 
ATOM      4  O   UNL     1       2.111  13.415  17.627  0.00  0.00    +0.000 OA
ATOM      5  N   UNL     1       1.104  12.057  19.234  0.00  0.00    +0.000 N 
ATOM      6  C   UNL     1       0.178  11.548  18.250  0.00  0.00    +0.000 C 
ATOM      7  C   UNL     1      -0.769  13.188  18.521  0.00  0.00    +0.000 C 
ATOM      8  H   UNL     1       0.779  11.985  20.198  0.00  0.00    +0.000 HD
ENDROOT
BRANCH   1  15
ATOM      9  C   UNL     1      -1.196  15.528  22.446  0.00  0.00    +0.000 C 
ATOM     10  C   UNL     1      -0.699  16.381  21.303  0.00  0.00    +0.000 A 
ATOM     11  C   UNL     1      -0.406  17.726  21.734  0.00  0.00    +0.000 A 
ATOM     12  C   UNL     1       0.245  18.630  20.920  0.00  0.00    +0.000 A 
ATOM     13  C   UNL     1       0.616  18.199  19.656  0.00  0.00    +0.000 A 
ATOM     14  C   UNL     1       0.302  16.880  19.195  0.00  0.00    +0.000 A 
ATOM     15  C   UNL     1      -0.380  15.897  19.977  0.00  0.00    +0.000 A 
ENDBRANCH   1  15
BRANCH   6  16
ATOM     16  C   UNL     1       1.098  10.142  18.669  0.00  0.00    +0.000 A 
ATOM     17  C   UNL     1       1.901   9.395  17.752  0.00  0.00    +0.000 A 
ATOM     18  C   UNL     1       2.527   8.146  18.078  0.00  0.00    +0.000 A 
ATOM     19  C   UNL     1       2.369   7.544  19.325  0.00  0.00    +0.000 A 
ATOM     20  C   UNL     1       1.532   8.215  20.230  0.00  0.00    +0.000 A 
ATOM     21  C   UNL     1       0.919   9.485  19.925  0.00  0.00    +0.000 A 
BRANCH  19  22
ATOM     22  O   UNL     1       2.927   6.339  19.733  0.00  0.00    +0.000 OA
BRANCH  22  23
ATOM     23  C   UNL     1       2.739   5.188  18.879  0.00  0.00    +0.000 C 
BRANCH  23  24
ATOM     24  C   UNL     1       1.629   4.216  19.357  0.00  0.00    +0.000 C 
BRANCH  24  25
ATOM     25  C   UNL     1       1.376   4.042  20.865  0.00  0.00    +0.000 C 
BRANCH  25  26
ATOM     26  C   UNL     1       1.667   2.664  21.442  0.00  0.00    +0.000 C 
ATOM     27  F   UNL     1       0.772   2.319  22.387  0.00  0.00    +0.000 F 
ATOM     28  F   UNL     1       1.613   1.719  20.470  0.00  0.00    +0.000 F 
ATOM     29  F   UNL     1       2.896   2.619  21.997  0.00  0.00    +0.000 F 
ENDBRANCH  25  26
ENDBRANCH  24  25
ENDBRANCH  23  24
ENDBRANCH  22  23
ENDBRANCH  19  22
ENDBRANCH   6  16
BRANCH   6  30
ATOM     30  C   UNL     1      -1.181  10.735  18.283  0.00  0.00    +0.000 C 
ATOM     31  F   UNL     1      -1.091   9.613  17.525  0.00  0.00    +0.000 F 
ATOM     32  F   UNL     1      -1.464  10.338  19.553  0.00  0.00    +0.000 F 
ATOM     33  F   UNL     1      -2.280  11.419  17.891  0.00  0.00    +0.000 F 
ENDBRANCH   6  30
BRANCH   2  34
ATOM     34  C   UNL     1       1.904  14.079  20.855  0.00  0.00    +0.000 C 
ATOM     35  N   UNL     1       2.615  13.973  21.892  0.00  0.00    +0.000 NA
ENDBRANCH   2  34
TORSDOF 9
ENDMDL
MODEL 8
REMARK VINA RESULT:      -7.1      3.193      4.248
REMARK  Name = 
REMARK  10 active torsions:
REMARK  status: ('A' for Active; 'I' for Inactive)
REMARK    1  A    between atoms: C_1  and  C_2
REMARK    2  A    between atoms: C_7  and  C_8
REMARK    3  A    between atoms: C_9  and  C_10
REMARK    4  A    between atoms: C_15  and  C_16
REMARK    5  A    between atoms: C_15  and  C_30
REMARK    6  A    between atoms: C_19  and  O_20
REMARK    7  A    between atoms: O_20  and  C_21
REMARK    8  A    between atoms: C_21  and  C_22
REMARK    9  A    between atoms: C_22  and  C_23
REMARK   10  A    between atoms: C_23  and  C_24
REMARK                            x       y       z     vdW  Elec       q    Type
REMARK                         _______ _______ _______ _____ _____    ______ ____
ROOT
ATOM      1  C   UNL     1      -1.570  11.847  21.561  0.00  0.00    +0.000 C 
ATOM      2  C   UNL     1      -0.387  11.569  22.066  0.00  0.00    +0.000 C 
ATOM      3  C   UNL     1       0.728  11.383  21.170  0.00  0.00    +0.000 C 
ATOM      4  O   UNL     1       1.538  12.245  20.834  0.00  0.00    +0.000 OA
ATOM      5  N   UNL     1       0.344  10.276  20.467  0.00  0.00    +0.000 N 
ATOM      6  C   UNL     1       0.044  10.687  19.117  0.00  0.00    +0.000 C 
ATOM      7  C   UNL     1      -1.306  11.782  19.915  0.00  0.00    +0.000 C 
ATOM      8  H   UNL     1      -0.309   9.596  20.857  0.00  0.00    +0.000 HD
ENDROOT
BRANCH   1  15
ATOM      9  C   UNL     1      -1.408  15.051  21.934  0.00  0.00    +0.000 C 
ATOM     10  C   UNL     1      -2.215  14.129  22.818  0.00  0.00    +0.000 A 
ATOM     11  C   UNL     1      -3.135  14.863  23.652  0.00  0.00    +0.000 A 
ATOM     12  C   UNL     1      -4.112  14.234  24.395  0.00  0.00    +0.000 A 
ATOM     13  C   UNL     1      -4.184  12.852  24.314  0.00  0.00    +0.000 A 
ATOM     14  C   UNL     1      -3.256  12.101  23.522  0.00  0.00    +0.000 A 
ATOM     15  C   UNL     1      -2.213  12.684  22.739  0.00  0.00    +0.000 A 
ENDBRANCH   1  15
BRANCH   6  16
ATOM     16  C   UNL     1       1.038   9.289  18.876  0.00  0.00    +0.000 A 
ATOM     17  C   UNL     1       1.128   8.191  19.787  0.00  0.00    +0.000 A 
ATOM     18  C   UNL     1       2.072   7.120  19.650  0.00  0.00    +0.000 A 
ATOM     19  C   UNL     1       3.009   7.088  18.617  0.00  0.00    +0.000 A 
ATOM     20  C   UNL     1       2.995   8.185  17.742  0.00  0.00    +0.000 A 
ATOM     21  C   UNL     1       2.034   9.254  17.851  0.00  0.00    +0.000 A 
BRANCH  19  22
ATOM     22  O   UNL     1       3.964   6.102  18.404  0.00  0.00    +0.000 OA
BRANCH  22  23
ATOM     23  C   UNL     1       4.326   5.802  17.037  0.00  0.00    +0.000 C 
BRANCH  23  24
ATOM     24  C   UNL     1       5.839   5.953  16.733  0.00  0.00    +0.000 C 
BRANCH  24  25
ATOM     25  C   UNL     1       6.606   4.772  16.113  0.00  0.00    +0.000 C 
BRANCH  25  26
ATOM     26  C   UNL     1       6.441   4.575  14.613  0.00  0.00    +0.000 C 
ATOM     27  F   UNL     1       5.306   5.138  14.156  0.00  0.00    +0.000 F 
ATOM     28  F   UNL     1       7.473   5.142  13.940  0.00  0.00    +0.000 F 
ATOM     29  F   UNL     1       6.410   3.264  14.296  0.00  0.00    +0.000 F 
ENDBRANCH  25  26
ENDBRANCH  24  25
ENDBRANCH  23  24
ENDBRANCH  22  23
ENDBRANCH  19  22
ENDBRANCH   6  16
BRANCH   6  30
ATOM     30  C   UNL     1      -0.967  10.229  17.987  0.00  0.00    +0.000 C 
ATOM     31  F   UNL     1      -2.070   9.655  18.530  0.00  0.00    +0.000 F 
ATOM     32  F   UNL     1      -1.389  11.302  17.266  0.00  0.00    +0.000 F 
ATOM     33  F   UNL     1      -0.464   9.379  17.063  0.00  0.00    +0.000 F 
ENDBRANCH   6  30
BRANCH   2  34
ATOM     34  C   UNL     1      -0.097  10.525  23.132  0.00  0.00    +0.000 C 
ATOM     35  N   UNL     1       0.144   9.659  24.017  0.00  0.00    +0.000 NA
ENDBRANCH   2  34
TORSDOF 9
ENDMDL
MODEL 9
REMARK VINA RESULT:      -7.0      3.484      4.707
REMARK  Name = 
REMARK  10 active torsions:
REMARK  status: ('A' for Active; 'I' for Inactive)
REMARK    1  A    between atoms: C_1  and  C_2
REMARK    2  A    between atoms: C_7  and  C_8
REMARK    3  A    between atoms: C_9  and  C_10
REMARK    4  A    between atoms: C_15  and  C_16
REMARK    5  A    between atoms: C_15  and  C_30
REMARK    6  A    between atoms: C_19  and  O_20
REMARK    7  A    between atoms: O_20  and  C_21
REMARK    8  A    between atoms: C_21  and  C_22
REMARK    9  A    between atoms: C_22  and  C_23
REMARK   10  A    between atoms: C_23  and  C_24
REMARK                            x       y       z     vdW  Elec       q    Type
REMARK                         _______ _______ _______ _____ _____    ______ ____
ROOT
ATOM      1  C   UNL     1      -4.213  12.620  19.911  0.00  0.00    +0.000 C 
ATOM      2  C   UNL     1      -3.169  12.959  20.637  0.00  0.00    +0.000 C 
ATOM      3  C   UNL     1      -1.852  12.843  20.063  0.00  0.00    +0.000 C 
ATOM      4  O   UNL     1      -1.227  13.739  19.500  0.00  0.00    +0.000 OA
ATOM      5  N   UNL     1      -1.752  11.495  19.857  0.00  0.00    +0.000 N 
ATOM      6  C   UNL     1      -1.787  11.257  18.434  0.00  0.00    +0.000 C 
ATOM      7  C   UNL     1      -3.527  12.048  18.502  0.00  0.00    +0.000 C 
ATOM      8  H   UNL     1      -2.291  10.830  20.410  0.00  0.00    +0.000 HD
ENDROOT
BRANCH   1  15
ATOM      9  C   UNL     1      -7.087  11.685  21.052  0.00  0.00    +0.000 C 
ATOM     10  C   UNL     1      -6.559  13.099  21.124  0.00  0.00    +0.000 A 
ATOM     11  C   UNL     1      -7.344  13.913  22.020  0.00  0.00    +0.000 A 
ATOM     12  C   UNL     1      -6.943  15.177  22.401  0.00  0.00    +0.000 A 
ATOM     13  C   UNL     1      -5.743  15.648  21.890  0.00  0.00    +0.000 A 
ATOM     14  C   UNL     1      -4.968  14.870  20.970  0.00  0.00    +0.000 A 
ATOM     15  C   UNL     1      -5.327  13.562  20.521  0.00  0.00    +0.000 A 
ENDBRANCH   1  15
BRANCH   6  16
ATOM     16  C   UNL     1      -0.447  10.288  18.948  0.00  0.00    +0.000 A 
ATOM     17  C   UNL     1       0.690   9.979  18.136  0.00  0.00    +0.000 A 
ATOM     18  C   UNL     1       1.711   9.048  18.521  0.00  0.00    +0.000 A 
ATOM     19  C   UNL     1       1.652   8.341  19.721  0.00  0.00    +0.000 A 
ATOM     20  C   UNL     1       0.516   8.568  20.513  0.00  0.00    +0.000 A 
ATOM     21  C   UNL     1      -0.504   9.521  20.152  0.00  0.00    +0.000 A 
BRANCH  19  22
ATOM     22  O   UNL     1       2.584   7.417  20.177  0.00  0.00    +0.000 OA
BRANCH  22  23
ATOM     23  C   UNL     1       2.941   6.329  19.294  0.00  0.00    +0.000 C 
BRANCH  23  24
ATOM     24  C   UNL     1       2.045   5.072  19.441  0.00  0.00    +0.000 C 
BRANCH  24  25
ATOM     25  C   UNL     1       1.929   4.384  20.812  0.00  0.00    +0.000 C 
BRANCH  25  26
ATOM     26  C   UNL     1       1.403   2.956  20.807  0.00  0.00    +0.000 C 
ATOM     27  F   UNL     1       0.926   2.594  22.013  0.00  0.00    +0.000 F 
ATOM     28  F   UNL     1       0.389   2.825  19.915  0.00  0.00    +0.000 F 
ATOM     29  F   UNL     1       2.372   2.082  20.464  0.00  0.00    +0.000 F 
ENDBRANCH  25  26
ENDBRANCH  24  25
ENDBRANCH  23  24
ENDBRANCH  22  23
ENDBRANCH  19  22
ENDBRANCH   6  16
BRANCH   6  30
ATOM     30  C   UNL     1      -2.325  10.107  17.487  0.00  0.00    +0.000 C 
ATOM     31  F   UNL     1      -3.079   9.221  18.184  0.00  0.00    +0.000 F 
ATOM     32  F   UNL     1      -3.119  10.629  16.513  0.00  0.00    +0.000 F 
ATOM     33  F   UNL     1      -1.378   9.415  16.815  0.00  0.00    +0.000 F 
ENDBRANCH   6  30
BRANCH   2  34
ATOM     34  C   UNL     1      -2.911  12.541  22.075  0.00  0.00    +0.000 C 
ATOM     35  N   UNL     1      -2.697  12.194  23.269  0.00  0.00    +0.000 NA
ENDBRANCH   2  34
TORSDOF 9
ENDMDL
