MODEL 1
REMARK VINA RESULT:      -9.1      0.000      0.000
REMARK  Name = 
REMARK  12 active torsions:
REMARK  status: ('A' for Active; 'I' for Inactive)
REMARK    1  A    between atoms: C_1  and  O_2
REMARK    2  A    between atoms: O_2  and  C_3
REMARK    3  A    between atoms: C_3  and  C_5
REMARK    4  A    between atoms: C_7  and  C_8
REMARK    5  A    between atoms: C_9  and  C_10
REMARK    6  A    between atoms: C_10  and  C_12
REMARK    7  A    between atoms: C_13  and  O_14
REMARK    8  A    between atoms: N_17  and  C_18
REMARK    9  A    between atoms: C_18  and  C_19
REMARK   10  A    between atoms: C_19  and  N_20
REMARK   11  A    between atoms: C_26  and  C_27
REMARK   12  A    between atoms: C_32  and  C_33
REMARK                            x       y       z     vdW  Elec       q    Type
REMARK                         _______ _______ _______ _____ _____    ______ ____
ROOT
ATOM      1  C   UNL     1       4.013   5.686  18.706  0.00  0.00    +0.000 C 
ATOM      2  C   UNL     1       3.635   6.699  17.904  0.00  0.00    +0.000 C 
ATOM      3  C   UNL     1       2.512   7.394  18.559  0.00  0.00    +0.000 C 
ATOM      4  O   UNL     1       1.850   8.285  18.058  0.00  0.00    +0.000 OA
ATOM      5  N   UNL     1       2.400   6.877  19.830  0.00  0.00    +0.000 N 
ATOM      6  C   UNL     1       3.251   5.701  20.022  0.00  0.00    +0.000 C 
ENDROOT
BRANCH   6   7
ATOM      7  C   UNL     1       2.388   4.543  20.431  0.00  0.00    +0.000 A 
ATOM      8  C   UNL     1       2.234   3.760  21.559  0.00  0.00    +0.000 A 
ATOM      9  C   UNL     1       1.352   2.701  21.206  0.00  0.00    +0.000 A 
ATOM     10  C   UNL     1       1.017   2.899  19.890  0.00  0.00    +0.000 A 
ATOM     11  O   UNL     1       1.596   4.034  19.434  0.00  0.00    +0.000 OA
ENDBRANCH   6   7
BRANCH   1  12
ATOM     12  C   UNL     1       5.154   4.739  18.536  0.00  0.00    +0.000 C 
ATOM     13  O   UNL     1       5.374   3.883  19.387  0.00  0.00    +0.000 OA
BRANCH  12  18
ATOM     14  C   UNL     1       6.966   5.070  15.275  0.00  0.00    +0.000 A 
ATOM     15  N   UNL     1       7.547   6.007  16.091  0.00  0.00    +0.000 N 
ATOM     16  C   UNL     1       7.144   5.837  17.389  0.00  0.00    +0.000 A 
ATOM     17  C   UNL     1       7.855   6.582  18.464  0.00  0.00    +0.000 C 
ATOM     18  C   UNL     1       6.051   4.972  17.385  0.00  0.00    +0.000 A 
ATOM     19  C   UNL     1       6.035   4.382  16.053  0.00  0.00    +0.000 A 
ATOM     20  C   UNL     1       5.145   3.283  15.567  0.00  0.00    +0.000 C 
ATOM     21  H   UNL     1       8.245   6.668  15.769  0.00  0.00    +0.000 HD
BRANCH  14  22
ATOM     22  C   UNL     1       7.382   4.980  13.885  0.00  0.00    +0.000 C 
ATOM     23  O   UNL     1       8.304   5.626  13.413  0.00  0.00    +0.000 OA
BRANCH  22  25
ATOM     24  C   UNL     1       6.996   3.854  11.853  0.00  0.00    +0.000 C 
ATOM     25  O   UNL     1       6.637   4.061  13.221  0.00  0.00    +0.000 OA
ENDBRANCH  22  25
ENDBRANCH  14  22
ENDBRANCH  12  18
ENDBRANCH   1  12
BRANCH   2  26
ATOM     26  O   UNL     1       4.139   7.175  16.731  0.00  0.00    +0.000 OA
ATOM     27  H   UNL     1       4.200   8.143  16.752  0.00  0.00    +0.000 HD
ENDBRANCH   2  26
BRANCH   5  28
ATOM     28  C   UNL     1       1.366   7.360  20.745  0.00  0.00    +0.000 C 
BRANCH  28  29
ATOM     29  C   UNL     1       1.130   8.877  20.703  0.00  0.00    +0.000 C 
BRANCH  29  30
ATOM     30  N   UNL     1      -0.289   9.267  20.828  0.00  0.00    +0.000 NA
ATOM     31  C   UNL     1      -0.505  10.717  20.619  0.00  0.00    +0.000 C 
ATOM     32  C   UNL     1       0.116  11.588  21.724  0.00  0.00    +0.000 C 
ATOM     33  O   UNL     1      -0.377  11.219  23.020  0.00  0.00    +0.000 OA
ATOM     34  C   UNL     1      -0.178   9.824  23.285  0.00  0.00    +0.000 C 
ATOM     35  C   UNL     1      -0.795   8.944  22.184  0.00  0.00    +0.000 C 
ENDBRANCH  29  30
ENDBRANCH  28  29
ENDBRANCH   5  28
TORSDOF 9
ENDMDL
MODEL 2
REMARK VINA RESULT:      -8.9      0.823      1.050
REMARK  Name = 
REMARK  12 active torsions:
REMARK  status: ('A' for Active; 'I' for Inactive)
REMARK    1  A    between atoms: C_1  and  O_2
REMARK    2  A    between atoms: O_2  and  C_3
REMARK    3  A    between atoms: C_3  and  C_5
REMARK    4  A    between atoms: C_7  and  C_8
REMARK    5  A    between atoms: C_9  and  C_10
REMARK    6  A    between atoms: C_10  and  C_12
REMARK    7  A    between atoms: C_13  and  O_14
REMARK    8  A    between atoms: N_17  and  C_18
REMARK    9  A    between atoms: C_18  and  C_19
REMARK   10  A    between atoms: C_19  and  N_20
REMARK   11  A    between atoms: C_26  and  C_27
REMARK   12  A    between atoms: C_32  and  C_33
REMARK                            x       y       z     vdW  Elec       q    Type
REMARK                         _______ _______ _______ _____ _____    ______ ____
ROOT
ATOM      1  C   UNL     1       3.956   5.836  18.757  0.00  0.00    +0.000 C 
ATOM      2  C   UNL     1       3.586   6.818  17.914  0.00  0.00    +0.000 C 
ATOM      3  C   UNL     1       2.421   7.501  18.505  0.00  0.00    +0.000 C 
ATOM      4  O   UNL     1       1.758   8.361  17.955  0.00  0.00    +0.000 OA
ATOM      5  N   UNL     1       2.270   7.014  19.784  0.00  0.00    +0.000 N 
ATOM      6  C   UNL     1       3.142   5.865  20.040  0.00  0.00    +0.000 C 
ENDROOT
BRANCH   6   7
ATOM      7  C   UNL     1       2.292   4.696  20.446  0.00  0.00    +0.000 A 
ATOM      8  C   UNL     1       2.190   3.868  21.547  0.00  0.00    +0.000 A 
ATOM      9  C   UNL     1       1.282   2.830  21.198  0.00  0.00    +0.000 A 
ATOM     10  C   UNL     1       0.882   3.084  19.910  0.00  0.00    +0.000 A 
ATOM     11  O   UNL     1       1.445   4.233  19.471  0.00  0.00    +0.000 OA
ENDBRANCH   6   7
BRANCH   1  12
ATOM     12  C   UNL     1       5.126   4.914  18.657  0.00  0.00    +0.000 C 
ATOM     13  O   UNL     1       5.372   4.133  19.570  0.00  0.00    +0.000 OA
BRANCH  12  18
ATOM     14  C   UNL     1       6.900   5.112  15.364  0.00  0.00    +0.000 A 
ATOM     15  N   UNL     1       7.544   6.024  16.160  0.00  0.00    +0.000 N 
ATOM     16  C   UNL     1       7.153   5.890  17.466  0.00  0.00    +0.000 A 
ATOM     17  C   UNL     1       7.922   6.606  18.522  0.00  0.00    +0.000 C 
ATOM     18  C   UNL     1       6.016   5.086  17.489  0.00  0.00    +0.000 A 
ATOM     19  C   UNL     1       5.945   4.484  16.164  0.00  0.00    +0.000 A 
ATOM     20  C   UNL     1       4.989   3.430  15.704  0.00  0.00    +0.000 C 
ATOM     21  H   UNL     1       8.272   6.643  15.819  0.00  0.00    +0.000 HD
BRANCH  14  22
ATOM     22  C   UNL     1       7.287   4.985  13.969  0.00  0.00    +0.000 C 
ATOM     23  O   UNL     1       8.258   5.544  13.484  0.00  0.00    +0.000 OA
BRANCH  22  25
ATOM     24  C   UNL     1       6.949   3.621  12.079  0.00  0.00    +0.000 C 
ATOM     25  O   UNL     1       6.452   4.139  13.315  0.00  0.00    +0.000 OA
ENDBRANCH  22  25
ENDBRANCH  14  22
ENDBRANCH  12  18
ENDBRANCH   1  12
BRANCH   2  26
ATOM     26  O   UNL     1       4.125   7.277  16.749  0.00  0.00    +0.000 OA
ATOM     27  H   UNL     1       4.193   8.245  16.760  0.00  0.00    +0.000 HD
ENDBRANCH   2  26
BRANCH   5  28
ATOM     28  C   UNL     1       1.189   7.493  20.644  0.00  0.00    +0.000 C 
BRANCH  28  29
ATOM     29  C   UNL     1       1.231   8.998  20.947  0.00  0.00    +0.000 C 
BRANCH  29  30
ATOM     30  N   UNL     1      -0.102   9.627  21.045  0.00  0.00    +0.000 NA
ATOM     31  C   UNL     1      -0.664   9.988  19.724  0.00  0.00    +0.000 C 
ATOM     32  C   UNL     1       0.116  11.111  19.020  0.00  0.00    +0.000 C 
ATOM     33  O   UNL     1       0.194  12.287  19.837  0.00  0.00    +0.000 OA
ATOM     34  C   UNL     1       0.749  12.000  21.128  0.00  0.00    +0.000 C 
ATOM     35  C   UNL     1      -0.025  10.877  21.840  0.00  0.00    +0.000 C 
ENDBRANCH  29  30
ENDBRANCH  28  29
ENDBRANCH   5  28
TORSDOF 9
ENDMDL
MODEL 3
REMARK VINA RESULT:      -8.6      0.570      1.054
REMARK  Name = 
REMARK  12 active torsions:
REMARK  status: ('A' for Active; 'I' for Inactive)
REMARK    1  A    between atoms: C_1  and  O_2
REMARK    2  A    between atoms: O_2  and  C_3
REMARK    3  A    between atoms: C_3  and  C_5
REMARK    4  A    between atoms: C_7  and  C_8
REMARK    5  A    between atoms: C_9  and  C_10
REMARK    6  A    between atoms: C_10  and  C_12
REMARK    7  A    between atoms: C_13  and  O_14
REMARK    8  A    between atoms: N_17  and  C_18
REMARK    9  A    between atoms: C_18  and  C_19
REMARK   10  A    between atoms: C_19  and  N_20
REMARK   11  A    between atoms: C_26  and  C_27
REMARK   12  A    between atoms: C_32  and  C_33
REMARK                            x       y       z     vdW  Elec       q    Type
REMARK                         _______ _______ _______ _____ _____    ______ ____
ROOT
ATOM      1  C   UNL     1       3.967   5.872  18.802  0.00  0.00    +0.000 C 
ATOM      2  C   UNL     1       3.604   6.863  17.967  0.00  0.00    +0.000 C 
ATOM      3  C   UNL     1       2.431   7.536  18.554  0.00  0.00    +0.000 C 
ATOM      4  O   UNL     1       1.772   8.402  18.005  0.00  0.00    +0.000 OA
ATOM      5  N   UNL     1       2.267   7.033  19.824  0.00  0.00    +0.000 N 
ATOM      6  C   UNL     1       3.138   5.883  20.076  0.00  0.00    +0.000 C 
ENDROOT
BRANCH   6   7
ATOM      7  C   UNL     1       2.287   4.708  20.459  0.00  0.00    +0.000 A 
ATOM      8  C   UNL     1       2.181   3.860  21.544  0.00  0.00    +0.000 A 
ATOM      9  C   UNL     1       1.274   2.829  21.173  0.00  0.00    +0.000 A 
ATOM     10  C   UNL     1       0.877   3.107  19.889  0.00  0.00    +0.000 A 
ATOM     11  O   UNL     1       1.442   4.263  19.473  0.00  0.00    +0.000 OA
ENDBRANCH   6   7
BRANCH   1  12
ATOM     12  C   UNL     1       5.140   4.954  18.705  0.00  0.00    +0.000 C 
ATOM     13  O   UNL     1       5.426   4.221  19.646  0.00  0.00    +0.000 OA
BRANCH  12  18
ATOM     14  C   UNL     1       6.795   4.994  15.345  0.00  0.00    +0.000 A 
ATOM     15  N   UNL     1       7.448   5.962  16.064  0.00  0.00    +0.000 N 
ATOM     16  C   UNL     1       7.105   5.896  17.389  0.00  0.00    +0.000 A 
ATOM     17  C   UNL     1       7.895   6.685  18.374  0.00  0.00    +0.000 C 
ATOM     18  C   UNL     1       5.985   5.074  17.498  0.00  0.00    +0.000 A 
ATOM     19  C   UNL     1       5.881   4.396  16.213  0.00  0.00    +0.000 A 
ATOM     20  C   UNL     1       4.931   3.300  15.848  0.00  0.00    +0.000 C 
ATOM     21  H   UNL     1       8.151   6.573  15.663  0.00  0.00    +0.000 HD
BRANCH  14  22
ATOM     22  C   UNL     1       7.136   4.794  13.946  0.00  0.00    +0.000 C 
ATOM     23  O   UNL     1       7.766   5.603  13.283  0.00  0.00    +0.000 OA
BRANCH  22  25
ATOM     24  C   UNL     1       6.068   3.584  12.231  0.00  0.00    +0.000 C 
ATOM     25  O   UNL     1       6.698   3.585  13.514  0.00  0.00    +0.000 OA
ENDBRANCH  22  25
ENDBRANCH  14  22
ENDBRANCH  12  18
ENDBRANCH   1  12
BRANCH   2  26
ATOM     26  O   UNL     1       4.155   7.337  16.814  0.00  0.00    +0.000 OA
ATOM     27  H   UNL     1       3.561   7.189  16.062  0.00  0.00    +0.000 HD
ENDBRANCH   2  26
BRANCH   5  28
ATOM     28  C   UNL     1       1.174   7.500  20.678  0.00  0.00    +0.000 C 
BRANCH  28  29
ATOM     29  C   UNL     1       0.807   8.980  20.497  0.00  0.00    +0.000 C 
BRANCH  29  30
ATOM     30  N   UNL     1       1.325   9.861  21.563  0.00  0.00    +0.000 NA
ATOM     31  C   UNL     1       0.844   9.475  22.909  0.00  0.00    +0.000 C 
ATOM     32  C   UNL     1      -0.669   9.680  23.095  0.00  0.00    +0.000 C 
ATOM     33  O   UNL     1      -1.049  11.038  22.831  0.00  0.00    +0.000 OA
ATOM     34  C   UNL     1      -0.624  11.463  21.529  0.00  0.00    +0.000 C 
ATOM     35  C   UNL     1       0.889  11.260  21.333  0.00  0.00    +0.000 C 
ENDBRANCH  29  30
ENDBRANCH  28  29
ENDBRANCH   5  28
TORSDOF 9
ENDMDL
MODEL 4
REMARK VINA RESULT:      -8.0      1.020      1.867
REMARK  Name = 
REMARK  12 active torsions:
REMARK  status: ('A' for Active; 'I' for Inactive)
REMARK    1  A    between atoms: C_1  and  O_2
REMARK    2  A    between atoms: O_2  and  C_3
REMARK    3  A    between atoms: C_3  and  C_5
REMARK    4  A    between atoms: C_7  and  C_8
REMARK    5  A    between atoms: C_9  and  C_10
REMARK    6  A    between atoms: C_10  and  C_12
REMARK    7  A    between atoms: C_13  and  O_14
REMARK    8  A    between atoms: N_17  and  C_18
REMARK    9  A    between atoms: C_18  and  C_19
REMARK   10  A    between atoms: C_19  and  N_20
REMARK   11  A    between atoms: C_26  and  C_27
REMARK   12  A    between atoms: C_32  and  C_33
REMARK                            x       y       z     vdW  Elec       q    Type
REMARK                         _______ _______ _______ _____ _____    ______ ____
ROOT
ATOM      1  C   UNL     1       3.753   6.120  19.009  0.00  0.00    +0.000 C 
ATOM      2  C   UNL     1       3.322   7.176  18.293  0.00  0.00    +0.000 C 
ATOM      3  C   UNL     1       2.132   7.721  18.971  0.00  0.00    +0.000 C 
ATOM      4  O   UNL     1       1.419   8.606  18.533  0.00  0.00    +0.000 OA
ATOM      5  N   UNL     1       2.023   7.077  20.182  0.00  0.00    +0.000 N 
ATOM      6  C   UNL     1       2.955   5.952  20.291  0.00  0.00    +0.000 C 
ENDROOT
BRANCH   6   7
ATOM      7  C   UNL     1       2.171   4.701  20.559  0.00  0.00    +0.000 A 
ATOM      8  C   UNL     1       2.116   3.749  21.560  0.00  0.00    +0.000 A 
ATOM      9  C   UNL     1       1.266   2.709  21.091  0.00  0.00    +0.000 A 
ATOM     10  C   UNL     1       0.850   3.085  19.838  0.00  0.00    +0.000 A 
ATOM     11  O   UNL     1       1.349   4.305  19.534  0.00  0.00    +0.000 OA
ENDBRANCH   6   7
BRANCH   1  12
ATOM     12  C   UNL     1       4.966   5.279  18.789  0.00  0.00    +0.000 C 
ATOM     13  O   UNL     1       5.696   4.996  19.734  0.00  0.00    +0.000 OA
BRANCH  12  18
ATOM     14  C   UNL     1       6.349   4.697  15.357  0.00  0.00    +0.000 A 
ATOM     15  N   UNL     1       5.398   3.722  15.518  0.00  0.00    +0.000 N 
ATOM     16  C   UNL     1       4.643   3.959  16.637  0.00  0.00    +0.000 A 
ATOM     17  C   UNL     1       3.399   3.167  16.844  0.00  0.00    +0.000 C 
ATOM     18  C   UNL     1       5.296   4.932  17.391  0.00  0.00    +0.000 A 
ATOM     19  C   UNL     1       6.305   5.492  16.503  0.00  0.00    +0.000 A 
ATOM     20  C   UNL     1       7.191   6.667  16.773  0.00  0.00    +0.000 C 
ATOM     21  H   UNL     1       5.235   2.986  14.839  0.00  0.00    +0.000 HD
BRANCH  14  22
ATOM     22  C   UNL     1       7.153   4.715  14.147  0.00  0.00    +0.000 C 
ATOM     23  O   UNL     1       8.019   5.546  13.925  0.00  0.00    +0.000 OA
BRANCH  22  25
ATOM     24  C   UNL     1       6.877   3.939  11.940  0.00  0.00    +0.000 C 
ATOM     25  O   UNL     1       6.833   3.670  13.343  0.00  0.00    +0.000 OA
ENDBRANCH  22  25
ENDBRANCH  14  22
ENDBRANCH  12  18
ENDBRANCH   1  12
BRANCH   2  26
ATOM     26  O   UNL     1       3.822   7.799  17.189  0.00  0.00    +0.000 OA
ATOM     27  H   UNL     1       3.638   7.282  16.389  0.00  0.00    +0.000 HD
ENDBRANCH   2  26
BRANCH   5  28
ATOM     28  C   UNL     1       0.931   7.392  21.102  0.00  0.00    +0.000 C 
BRANCH  28  29
ATOM     29  C   UNL     1       0.396   8.827  20.993  0.00  0.00    +0.000 C 
BRANCH  29  30
ATOM     30  N   UNL     1       1.008   9.770  21.952  0.00  0.00    +0.000 NA
ATOM     31  C   UNL     1       0.317   9.787  23.260  0.00  0.00    +0.000 C 
ATOM     32  C   UNL     1      -1.108  10.361  23.185  0.00  0.00    +0.000 C 
ATOM     33  O   UNL     1      -1.110  11.685  22.633  0.00  0.00    +0.000 OA
ATOM     34  C   UNL     1      -0.467  11.727  21.353  0.00  0.00    +0.000 C 
ATOM     35  C   UNL     1       0.960  11.153  21.417  0.00  0.00    +0.000 C 
ENDBRANCH  29  30
ENDBRANCH  28  29
ENDBRANCH   5  28
TORSDOF 9
ENDMDL
MODEL 5
REMARK VINA RESULT:      -7.9      1.135      1.801
REMARK  Name = 
REMARK  12 active torsions:
REMARK  status: ('A' for Active; 'I' for Inactive)
REMARK    1  A    between atoms: C_1  and  O_2
REMARK    2  A    between atoms: O_2  and  C_3
REMARK    3  A    between atoms: C_3  and  C_5
REMARK    4  A    between atoms: C_7  and  C_8
REMARK    5  A    between atoms: C_9  and  C_10
REMARK    6  A    between atoms: C_10  and  C_12
REMARK    7  A    between atoms: C_13  and  O_14
REMARK    8  A    between atoms: N_17  and  C_18
REMARK    9  A    between atoms: C_18  and  C_19
REMARK   10  A    between atoms: C_19  and  N_20
REMARK   11  A    between atoms: C_26  and  C_27
REMARK   12  A    between atoms: C_32  and  C_33
REMARK                            x       y       z     vdW  Elec       q    Type
REMARK                         _______ _______ _______ _____ _____    ______ ____
ROOT
ATOM      1  C   UNL     1       3.757   6.274  18.909  0.00  0.00    +0.000 C 
ATOM      2  C   UNL     1       3.330   7.296  18.144  0.00  0.00    +0.000 C 
ATOM      3  C   UNL     1       2.138   7.873  18.792  0.00  0.00    +0.000 C 
ATOM      4  O   UNL     1       1.427   8.738  18.312  0.00  0.00    +0.000 OA
ATOM      5  N   UNL     1       2.023   7.284  20.031  0.00  0.00    +0.000 N 
ATOM      6  C   UNL     1       2.953   6.164  20.195  0.00  0.00    +0.000 C 
ENDROOT
BRANCH   6   7
ATOM      7  C   UNL     1       2.167   4.927  20.515  0.00  0.00    +0.000 A 
ATOM      8  C   UNL     1       2.116   4.015  21.552  0.00  0.00    +0.000 A 
ATOM      9  C   UNL     1       1.259   2.961  21.129  0.00  0.00    +0.000 A 
ATOM     10  C   UNL     1       0.836   3.290  19.865  0.00  0.00    +0.000 A 
ATOM     11  O   UNL     1       1.337   4.496  19.511  0.00  0.00    +0.000 OA
ENDBRANCH   6   7
BRANCH   1  12
ATOM     12  C   UNL     1       4.971   5.423  18.733  0.00  0.00    +0.000 C 
ATOM     13  O   UNL     1       5.697   5.185  19.692  0.00  0.00    +0.000 OA
BRANCH  12  18
ATOM     14  C   UNL     1       6.362   4.672  15.338  0.00  0.00    +0.000 A 
ATOM     15  N   UNL     1       5.403   3.713  15.539  0.00  0.00    +0.000 N 
ATOM     16  C   UNL     1       4.646   4.007  16.642  0.00  0.00    +0.000 A 
ATOM     17  C   UNL     1       3.395   3.236  16.881  0.00  0.00    +0.000 C 
ATOM     18  C   UNL     1       5.304   5.008  17.354  0.00  0.00    +0.000 A 
ATOM     19  C   UNL     1       6.321   5.519  16.445  0.00  0.00    +0.000 A 
ATOM     20  C   UNL     1       7.214   6.698  16.666  0.00  0.00    +0.000 C 
ATOM     21  H   UNL     1       5.238   2.947  14.894  0.00  0.00    +0.000 HD
BRANCH  14  22
ATOM     22  C   UNL     1       7.172   4.627  14.132  0.00  0.00    +0.000 C 
ATOM     23  O   UNL     1       8.006   5.473  13.848  0.00  0.00    +0.000 OA
BRANCH  22  25
ATOM     24  C   UNL     1       6.476   3.739  12.064  0.00  0.00    +0.000 C 
ATOM     25  O   UNL     1       6.898   3.512  13.411  0.00  0.00    +0.000 OA
ENDBRANCH  22  25
ENDBRANCH  14  22
ENDBRANCH  12  18
ENDBRANCH   1  12
BRANCH   2  26
ATOM     26  O   UNL     1       3.835   7.869  17.016  0.00  0.00    +0.000 OA
ATOM     27  H   UNL     1       3.559   8.797  16.947  0.00  0.00    +0.000 HD
ENDBRANCH   2  26
BRANCH   5  28
ATOM     28  C   UNL     1       0.927   7.642  20.931  0.00  0.00    +0.000 C 
BRANCH  28  29
ATOM     29  C   UNL     1       0.844   9.135  21.277  0.00  0.00    +0.000 C 
BRANCH  29  30
ATOM     30  N   UNL     1      -0.530   9.677  21.270  0.00  0.00    +0.000 NA
ATOM     31  C   UNL     1      -0.932  10.203  19.946  0.00  0.00    +0.000 C 
ATOM     32  C   UNL     1      -0.143  11.455  19.526  0.00  0.00    +0.000 C 
ATOM     33  O   UNL     1      -0.259  12.498  20.503  0.00  0.00    +0.000 OA
ATOM     34  C   UNL     1       0.136  12.050  21.807  0.00  0.00    +0.000 C 
ATOM     35  C   UNL     1      -0.648  10.797  22.236  0.00  0.00    +0.000 C 
ENDBRANCH  29  30
ENDBRANCH  28  29
ENDBRANCH   5  28
TORSDOF 9
ENDMDL
MODEL 6
REMARK VINA RESULT:      -7.9      0.943      1.114
REMARK  Name = 
REMARK  12 active torsions:
REMARK  status: ('A' for Active; 'I' for Inactive)
REMARK    1  A    between atoms: C_1  and  O_2
REMARK    2  A    between atoms: O_2  and  C_3
REMARK    3  A    between atoms: C_3  and  C_5
REMARK    4  A    between atoms: C_7  and  C_8
REMARK    5  A    between atoms: C_9  and  C_10
REMARK    6  A    between atoms: C_10  and  C_12
REMARK    7  A    between atoms: C_13  and  O_14
REMARK    8  A    between atoms: N_17  and  C_18
REMARK    9  A    between atoms: C_18  and  C_19
REMARK   10  A    between atoms: C_19  and  N_20
REMARK   11  A    between atoms: C_26  and  C_27
REMARK   12  A    between atoms: C_32  and  C_33
REMARK                            x       y       z     vdW  Elec       q    Type
REMARK                         _______ _______ _______ _____ _____    ______ ____
ROOT
ATOM      1  C   UNL     1       3.931   6.280  18.688  0.00  0.00    +0.000 C 
ATOM      2  C   UNL     1       3.561   7.191  17.768  0.00  0.00    +0.000 C 
ATOM      3  C   UNL     1       2.306   7.810  18.231  0.00  0.00    +0.000 C 
ATOM      4  O   UNL     1       1.630   8.592  17.586  0.00  0.00    +0.000 OA
ATOM      5  N   UNL     1       2.086   7.373  19.518  0.00  0.00    +0.000 N 
ATOM      6  C   UNL     1       3.014   6.306  19.901  0.00  0.00    +0.000 C 
ENDROOT
BRANCH   6   7
ATOM      7  C   UNL     1       2.220   5.097  20.300  0.00  0.00    +0.000 A 
ATOM      8  C   UNL     1       2.112   4.296  21.420  0.00  0.00    +0.000 A 
ATOM      9  C   UNL     1       1.292   3.191  21.058  0.00  0.00    +0.000 A 
ATOM     10  C   UNL     1       0.947   3.381  19.743  0.00  0.00    +0.000 A 
ATOM     11  O   UNL     1       1.458   4.551  19.297  0.00  0.00    +0.000 OA
ENDBRANCH   6   7
BRANCH   1  12
ATOM     12  C   UNL     1       5.168   5.446  18.728  0.00  0.00    +0.000 C 
ATOM     13  O   UNL     1       5.490   4.874  19.765  0.00  0.00    +0.000 OA
BRANCH  12  18
ATOM     14  C   UNL     1       6.832   5.222  15.380  0.00  0.00    +0.000 A 
ATOM     15  N   UNL     1       7.536   6.187  16.053  0.00  0.00    +0.000 N 
ATOM     16  C   UNL     1       7.186   6.209  17.378  0.00  0.00    +0.000 A 
ATOM     17  C   UNL     1       8.016   7.002  18.326  0.00  0.00    +0.000 C 
ATOM     18  C   UNL     1       6.022   5.457  17.522  0.00  0.00    +0.000 A 
ATOM     19  C   UNL     1       5.884   4.721  16.273  0.00  0.00    +0.000 A 
ATOM     20  C   UNL     1       4.875   3.663  15.958  0.00  0.00    +0.000 C 
ATOM     21  H   UNL     1       8.274   6.737  15.626  0.00  0.00    +0.000 HD
BRANCH  14  22
ATOM     22  C   UNL     1       7.166   4.932  13.996  0.00  0.00    +0.000 C 
ATOM     23  O   UNL     1       8.123   5.421  13.416  0.00  0.00    +0.000 OA
BRANCH  22  25
ATOM     24  C   UNL     1       6.659   3.504  12.192  0.00  0.00    +0.000 C 
ATOM     25  O   UNL     1       6.300   4.028  13.473  0.00  0.00    +0.000 OA
ENDBRANCH  22  25
ENDBRANCH  14  22
ENDBRANCH  12  18
ENDBRANCH   1  12
BRANCH   2  26
ATOM     26  O   UNL     1       4.159   7.635  16.627  0.00  0.00    +0.000 OA
ATOM     27  H   UNL     1       4.849   7.017  16.338  0.00  0.00    +0.000 HD
ENDBRANCH   2  26
BRANCH   5  28
ATOM     28  C   UNL     1       0.907   7.809  20.264  0.00  0.00    +0.000 C 
BRANCH  28  29
ATOM     29  C   UNL     1       1.067   9.153  20.989  0.00  0.00    +0.000 C 
BRANCH  29  30
ATOM     30  N   UNL     1       0.970  10.329  20.100  0.00  0.00    +0.000 NA
ATOM     31  C   UNL     1       1.107  11.610  20.827  0.00  0.00    +0.000 C 
ATOM     32  C   UNL     1      -0.066  11.893  21.782  0.00  0.00    +0.000 C 
ATOM     33  O   UNL     1      -1.321  11.875  21.089  0.00  0.00    +0.000 OA
ATOM     34  C   UNL     1      -1.517  10.646  20.377  0.00  0.00    +0.000 C 
ATOM     35  C   UNL     1      -0.348  10.354  19.420  0.00  0.00    +0.000 C 
ENDBRANCH  29  30
ENDBRANCH  28  29
ENDBRANCH   5  28
TORSDOF 9
ENDMDL
MODEL 7
REMARK VINA RESULT:      -7.3      4.201      8.176
REMARK  Name = 
REMARK  12 active torsions:
REMARK  status: ('A' for Active; 'I' for Inactive)
REMARK    1  A    between atoms: C_1  and  O_2
REMARK    2  A    between atoms: O_2  and  C_3
REMARK    3  A    between atoms: C_3  and  C_5
REMARK    4  A    between atoms: C_7  and  C_8
REMARK    5  A    between atoms: C_9  and  C_10
REMARK    6  A    between atoms: C_10  and  C_12
REMARK    7  A    between atoms: C_13  and  O_14
REMARK    8  A    between atoms: N_17  and  C_18
REMARK    9  A    between atoms: C_18  and  C_19
REMARK   10  A    between atoms: C_19  and  N_20
REMARK   11  A    between atoms: C_26  and  C_27
REMARK   12  A    between atoms: C_32  and  C_33
REMARK                            x       y       z     vdW  Elec       q    Type
REMARK                         _______ _______ _______ _____ _____    ______ ____
ROOT
ATOM      1  C   UNL     1       1.281  11.874  19.360  0.00  0.00    +0.000 C 
ATOM      2  C   UNL     1       2.189  12.314  18.468  0.00  0.00    +0.000 C 
ATOM      3  C   UNL     1       2.905  13.447  19.080  0.00  0.00    +0.000 C 
ATOM      4  O   UNL     1       3.713  14.158  18.509  0.00  0.00    +0.000 OA
ATOM      5  N   UNL     1       2.520  13.507  20.400  0.00  0.00    +0.000 N 
ATOM      6  C   UNL     1       1.404  12.603  20.688  0.00  0.00    +0.000 C 
ENDROOT
BRANCH   6   7
ATOM      7  C   UNL     1       0.263  13.407  21.240  0.00  0.00    +0.000 A 
ATOM      8  C   UNL     1      -0.637  14.335  20.751  0.00  0.00    +0.000 A 
ATOM      9  C   UNL     1      -1.349  14.846  21.872  0.00  0.00    +0.000 A 
ATOM     10  C   UNL     1      -0.848  14.201  22.975  0.00  0.00    +0.000 A 
ATOM     11  O   UNL     1       0.085  13.298  22.596  0.00  0.00    +0.000 OA
ENDBRANCH   6   7
BRANCH   1  12
ATOM     12  C   UNL     1       0.366  10.699  19.255  0.00  0.00    +0.000 C 
ATOM     13  O   UNL     1      -0.793  10.855  18.883  0.00  0.00    +0.000 OA
BRANCH  12  18
ATOM     14  C   UNL     1       2.057   7.435  19.972  0.00  0.00    +0.000 A 
ATOM     15  N   UNL     1       1.555   7.839  21.182  0.00  0.00    +0.000 N 
ATOM     16  C   UNL     1       0.707   8.903  21.026  0.00  0.00    +0.000 A 
ATOM     17  C   UNL     1      -0.138   9.323  22.179  0.00  0.00    +0.000 C 
ATOM     18  C   UNL     1       0.884   9.402  19.737  0.00  0.00    +0.000 A 
ATOM     19  C   UNL     1       1.641   8.378  19.031  0.00  0.00    +0.000 A 
ATOM     20  C   UNL     1       1.980   8.353  17.574  0.00  0.00    +0.000 C 
ATOM     21  H   UNL     1       1.733   7.345  22.051  0.00  0.00    +0.000 HD
BRANCH  14  22
ATOM     22  C   UNL     1       2.857   6.224  19.900  0.00  0.00    +0.000 C 
ATOM     23  O   UNL     1       3.874   6.126  19.232  0.00  0.00    +0.000 OA
BRANCH  22  25
ATOM     24  C   UNL     1       1.348   4.426  20.098  0.00  0.00    +0.000 C 
ATOM     25  O   UNL     1       2.340   5.260  20.702  0.00  0.00    +0.000 OA
ENDBRANCH  22  25
ENDBRANCH  14  22
ENDBRANCH  12  18
ENDBRANCH   1  12
BRANCH   2  26
ATOM     26  O   UNL     1       2.559  11.859  17.238  0.00  0.00    +0.000 OA
ATOM     27  H   UNL     1       3.018  12.553  16.738  0.00  0.00    +0.000 HD
ENDBRANCH   2  26
BRANCH   5  28
ATOM     28  C   UNL     1       3.056  14.537  21.290  0.00  0.00    +0.000 C 
BRANCH  28  29
ATOM     29  C   UNL     1       4.421  14.203  21.907  0.00  0.00    +0.000 C 
BRANCH  29  30
ATOM     30  N   UNL     1       4.518  14.508  23.349  0.00  0.00    +0.000 NA
ATOM     31  C   UNL     1       4.712  15.950  23.619  0.00  0.00    +0.000 C 
ATOM     32  C   UNL     1       6.073  16.480  23.136  0.00  0.00    +0.000 C 
ATOM     33  O   UNL     1       7.158  15.741  23.717  0.00  0.00    +0.000 OA
ATOM     34  C   UNL     1       7.032  14.334  23.471  0.00  0.00    +0.000 C 
ATOM     35  C   UNL     1       5.672  13.795  23.950  0.00  0.00    +0.000 C 
ENDBRANCH  29  30
ENDBRANCH  28  29
ENDBRANCH   5  28
TORSDOF 9
ENDMDL
MODEL 8
REMARK VINA RESULT:      -7.3      6.117      9.964
REMARK  Name = 
REMARK  12 active torsions:
REMARK  status: ('A' for Active; 'I' for Inactive)
REMARK    1  A    between atoms: C_1  and  O_2
REMARK    2  A    between atoms: O_2  and  C_3
REMARK    3  A    between atoms: C_3  and  C_5
REMARK    4  A    between atoms: C_7  and  C_8
REMARK    5  A    between atoms: C_9  and  C_10
REMARK    6  A    between atoms: C_10  and  C_12
REMARK    7  A    between atoms: C_13  and  O_14
REMARK    8  A    between atoms: N_17  and  C_18
REMARK    9  A    between atoms: C_18  and  C_19
REMARK   10  A    between atoms: C_19  and  N_20
REMARK   11  A    between atoms: C_26  and  C_27
REMARK   12  A    between atoms: C_32  and  C_33
REMARK                            x       y       z     vdW  Elec       q    Type
REMARK                         _______ _______ _______ _____ _____    ______ ____
ROOT
ATOM      1  C   UNL     1       1.822  12.927  19.708  0.00  0.00    +0.000 C 
ATOM      2  C   UNL     1       2.442  13.143  18.533  0.00  0.00    +0.000 C 
ATOM      3  C   UNL     1       3.103  14.458  18.609  0.00  0.00    +0.000 C 
ATOM      4  O   UNL     1       3.657  15.020  17.681  0.00  0.00    +0.000 OA
ATOM      5  N   UNL     1       3.008  14.886  19.914  0.00  0.00    +0.000 N 
ATOM      6  C   UNL     1       2.123  14.032  20.708  0.00  0.00    +0.000 C 
ENDROOT
BRANCH   6   7
ATOM      7  C   UNL     1       1.025  14.878  21.284  0.00  0.00    +0.000 A 
ATOM      8  C   UNL     1      -0.077  15.555  20.796  0.00  0.00    +0.000 A 
ATOM      9  C   UNL     1      -0.599  16.320  21.876  0.00  0.00    +0.000 A 
ATOM     10  C   UNL     1       0.207  16.065  22.957  0.00  0.00    +0.000 A 
ATOM     11  O   UNL     1       1.155  15.159  22.621  0.00  0.00    +0.000 OA
ENDBRANCH   6   7
BRANCH   1  12
ATOM     12  C   UNL     1       1.085  11.712  20.164  0.00  0.00    +0.000 C 
ATOM     13  O   UNL     1       1.359  11.196  21.242  0.00  0.00    +0.000 OA
BRANCH  12  18
ATOM     14  C   UNL     1      -1.664  10.730  17.816  0.00  0.00    +0.000 A 
ATOM     15  N   UNL     1      -0.599   9.947  17.451  0.00  0.00    +0.000 N 
ATOM     16  C   UNL     1       0.406  10.030  18.378  0.00  0.00    +0.000 A 
ATOM     17  C   UNL     1       1.535   9.062  18.301  0.00  0.00    +0.000 C 
ATOM     18  C   UNL     1       0.128  11.113  19.210  0.00  0.00    +0.000 A 
ATOM     19  C   UNL     1      -1.258  11.464  18.931  0.00  0.00    +0.000 A 
ATOM     20  C   UNL     1      -2.093  12.473  19.653  0.00  0.00    +0.000 C 
ATOM     21  H   UNL     1      -0.613   9.330  16.645  0.00  0.00    +0.000 HD
BRANCH  14  22
ATOM     22  C   UNL     1      -2.895  10.664  17.046  0.00  0.00    +0.000 C 
ATOM     23  O   UNL     1      -3.971  10.336  17.521  0.00  0.00    +0.000 OA
BRANCH  22  25
ATOM     24  C   UNL     1      -3.223  10.191  14.762  0.00  0.00    +0.000 C 
ATOM     25  O   UNL     1      -2.680  11.054  15.765  0.00  0.00    +0.000 OA
ENDBRANCH  22  25
ENDBRANCH  14  22
ENDBRANCH  12  18
ENDBRANCH   1  12
BRANCH   2  26
ATOM     26  O   UNL     1       2.599  12.365  17.424  0.00  0.00    +0.000 OA
ATOM     27  H   UNL     1       3.167  12.806  16.773  0.00  0.00    +0.000 HD
ENDBRANCH   2  26
BRANCH   5  28
ATOM     28  C   UNL     1       3.570  16.173  20.321  0.00  0.00    +0.000 C 
BRANCH  28  29
ATOM     29  C   UNL     1       4.888  16.079  21.102  0.00  0.00    +0.000 C 
BRANCH  29  30
ATOM     30  N   UNL     1       5.946  16.982  20.605  0.00  0.00    +0.000 NA
ATOM     31  C   UNL     1       6.289  16.737  19.186  0.00  0.00    +0.000 C 
ATOM     32  C   UNL     1       6.962  15.374  18.953  0.00  0.00    +0.000 C 
ATOM     33  O   UNL     1       8.142  15.228  19.756  0.00  0.00    +0.000 OA
ATOM     34  C   UNL     1       7.866  15.439  21.147  0.00  0.00    +0.000 C 
ATOM     35  C   UNL     1       7.191  16.800  21.391  0.00  0.00    +0.000 C 
ENDBRANCH  29  30
ENDBRANCH  28  29
ENDBRANCH   5  28
TORSDOF 9
ENDMDL
MODEL 9
REMARK VINA RESULT:      -7.1      6.150      9.717
REMARK  Name = 
REMARK  12 active torsions:
REMARK  status: ('A' for Active; 'I' for Inactive)
REMARK    1  A    between atoms: C_1  and  O_2
REMARK    2  A    between atoms: O_2  and  C_3
REMARK    3  A    between atoms: C_3  and  C_5
REMARK    4  A    between atoms: C_7  and  C_8
REMARK    5  A    between atoms: C_9  and  C_10
REMARK    6  A    between atoms: C_10  and  C_12
REMARK    7  A    between atoms: C_13  and  O_14
REMARK    8  A    between atoms: N_17  and  C_18
REMARK    9  A    between atoms: C_18  and  C_19
REMARK   10  A    between atoms: C_19  and  N_20
REMARK   11  A    between atoms: C_26  and  C_27
REMARK   12  A    between atoms: C_32  and  C_33
REMARK                            x       y       z     vdW  Elec       q    Type
REMARK                         _______ _______ _______ _____ _____    ______ ____
ROOT
ATOM      1  C   UNL     1       1.774  12.845  19.790  0.00  0.00    +0.000 C 
ATOM      2  C   UNL     1       2.455  13.050  18.646  0.00  0.00    +0.000 C 
ATOM      3  C   UNL     1       3.136  14.352  18.758  0.00  0.00    +0.000 C 
ATOM      4  O   UNL     1       3.745  14.904  17.859  0.00  0.00    +0.000 OA
ATOM      5  N   UNL     1       2.986  14.780  20.057  0.00  0.00    +0.000 N 
ATOM      6  C   UNL     1       2.046  13.942  20.806  0.00  0.00    +0.000 C 
ENDROOT
BRANCH   6   7
ATOM      7  C   UNL     1       0.938  14.809  21.328  0.00  0.00    +0.000 A 
ATOM      8  C   UNL     1      -0.117  15.519  20.787  0.00  0.00    +0.000 A 
ATOM      9  C   UNL     1      -0.683  16.283  21.846  0.00  0.00    +0.000 A 
ATOM     10  C   UNL     1       0.053  15.995  22.967  0.00  0.00    +0.000 A 
ATOM     11  O   UNL     1       0.996  15.069  22.674  0.00  0.00    +0.000 OA
ENDBRANCH   6   7
BRANCH   1  12
ATOM     12  C   UNL     1       0.992  11.644  20.206  0.00  0.00    +0.000 C 
ATOM     13  O   UNL     1       1.241  11.089  21.271  0.00  0.00    +0.000 OA
BRANCH  12  18
ATOM     14  C   UNL     1      -1.778  10.813  17.825  0.00  0.00    +0.000 A 
ATOM     15  N   UNL     1      -0.726  10.031  17.421  0.00  0.00    +0.000 N 
ATOM     16  C   UNL     1       0.282  10.055  18.347  0.00  0.00    +0.000 A 
ATOM     17  C   UNL     1       1.395   9.074  18.223  0.00  0.00    +0.000 C 
ATOM     18  C   UNL     1       0.024  11.103  19.229  0.00  0.00    +0.000 A 
ATOM     19  C   UNL     1      -1.357  11.489  18.971  0.00  0.00    +0.000 A 
ATOM     20  C   UNL     1      -2.174  12.477  19.741  0.00  0.00    +0.000 C 
ATOM     21  H   UNL     1      -0.753   9.451  16.588  0.00  0.00    +0.000 HD
BRANCH  14  22
ATOM     22  C   UNL     1      -3.011  10.802  17.057  0.00  0.00    +0.000 C 
ATOM     23  O   UNL     1      -3.911  11.612  17.213  0.00  0.00    +0.000 OA
BRANCH  22  25
ATOM     24  C   UNL     1      -3.148  10.227  14.777  0.00  0.00    +0.000 C 
ATOM     25  O   UNL     1      -2.993   9.807  16.135  0.00  0.00    +0.000 OA
ENDBRANCH  22  25
ENDBRANCH  14  22
ENDBRANCH  12  18
ENDBRANCH   1  12
BRANCH   2  26
ATOM     26  O   UNL     1       2.652  12.270  17.546  0.00  0.00    +0.000 OA
ATOM     27  H   UNL     1       3.429  11.701  17.662  0.00  0.00    +0.000 HD
ENDBRANCH   2  26
BRANCH   5  28
ATOM     28  C   UNL     1       3.551  16.056  20.494  0.00  0.00    +0.000 C 
BRANCH  28  29
ATOM     29  C   UNL     1       4.527  15.954  21.675  0.00  0.00    +0.000 C 
BRANCH  29  30
ATOM     30  N   UNL     1       5.512  14.861  21.545  0.00  0.00    +0.000 NA
ATOM     31  C   UNL     1       5.354  13.819  22.585  0.00  0.00    +0.000 C 
ATOM     32  C   UNL     1       5.686  14.320  24.001  0.00  0.00    +0.000 C 
ATOM     33  O   UNL     1       7.016  14.855  24.068  0.00  0.00    +0.000 OA
ATOM     34  C   UNL     1       7.223  15.884  23.091  0.00  0.00    +0.000 C 
ATOM     35  C   UNL     1       6.891  15.393  21.671  0.00  0.00    +0.000 C 
ENDBRANCH  29  30
ENDBRANCH  28  29
ENDBRANCH   5  28
TORSDOF 9
ENDMDL
