MODEL 1
REMARK VINA RESULT:      -5.3      0.000      0.000
REMARK  Name = 
REMARK  4 active torsions:
REMARK  status: ('A' for Active; 'I' for Inactive)
REMARK    1  A    between atoms: N_1  and  C_2
REMARK    2  A    between atoms: C_5  and  C_6
REMARK    3  A    between atoms: C_6  and  O_8
REMARK    4  A    between atoms: C_9  and  O_10
REMARK                            x       y       z     vdW  Elec       q    Type
REMARK                         _______ _______ _______ _____ _____    ______ ____
ROOT
ATOM      1  C   UNL     1       3.290   4.153  18.431  0.00  0.00    +0.000 A 
ATOM      2  C   UNL     1       3.646   3.806  17.128  0.00  0.00    +0.000 A 
ATOM      3  C   UNL     1       4.937   4.030  16.644  0.00  0.00    +0.000 A 
ATOM      4  C   UNL     1       5.937   4.548  17.476  0.00  0.00    +0.000 A 
ATOM      5  C   UNL     1       5.564   4.854  18.803  0.00  0.00    +0.000 A 
ATOM      6  C   UNL     1       4.260   4.686  19.257  0.00  0.00    +0.000 A 
ENDROOT
BRANCH   1   7
ATOM      7  N   UNL     1       2.102   3.709  19.005  0.00  0.00    +0.000 N 
ATOM      8  H   UNL     1       2.166   3.503  19.993  0.00  0.00    +0.000 HD
ATOM      9  H   UNL     1       1.651   2.971  18.471  0.00  0.00    +0.000 HD
ENDBRANCH   1   7
BRANCH   4  10
ATOM     10  C   UNL     1       7.291   4.473  16.835  0.00  0.00    +0.000 C 
ATOM     11  O   UNL     1       7.477   4.881  15.705  0.00  0.00    +0.000 OA
BRANCH  10  12
ATOM     12  O   UNL     1       8.288   4.047  17.638  0.00  0.00    +0.000 OA
ATOM     13  H   UNL     1       8.146   4.368  18.563  0.00  0.00    +0.000 HD
ENDBRANCH  10  12
ENDBRANCH   4  10
BRANCH   5  14
ATOM     14  O   UNL     1       6.348   5.165  19.869  0.00  0.00    +0.000 OA
ATOM     15  H   UNL     1       5.780   5.461  20.611  0.00  0.00    +0.000 HD
ENDBRANCH   5  14
TORSDOF 4
ENDMDL
MODEL 2
REMARK VINA RESULT:      -5.3      3.144      4.804
REMARK  Name = 
REMARK  4 active torsions:
REMARK  status: ('A' for Active; 'I' for Inactive)
REMARK    1  A    between atoms: N_1  and  C_2
REMARK    2  A    between atoms: C_5  and  C_6
REMARK    3  A    between atoms: C_6  and  O_8
REMARK    4  A    between atoms: C_9  and  O_10
REMARK                            x       y       z     vdW  Elec       q    Type
REMARK                         _______ _______ _______ _____ _____    ______ ____
ROOT
ATOM      1  C   UNL     1       3.871   4.646  17.547  0.00  0.00    +0.000 A 
ATOM      2  C   UNL     1       2.591   4.942  18.013  0.00  0.00    +0.000 A 
ATOM      3  C   UNL     1       2.032   4.249  19.089  0.00  0.00    +0.000 A 
ATOM      4  C   UNL     1       2.770   3.279  19.780  0.00  0.00    +0.000 A 
ATOM      5  C   UNL     1       4.078   3.025  19.315  0.00  0.00    +0.000 A 
ATOM      6  C   UNL     1       4.602   3.676  18.204  0.00  0.00    +0.000 A 
ENDROOT
BRANCH   1   7
ATOM      7  N   UNL     1       4.535   5.486  16.656  0.00  0.00    +0.000 N 
ATOM      8  H   UNL     1       5.463   5.761  16.952  0.00  0.00    +0.000 HD
ATOM      9  H   UNL     1       3.966   6.269  16.344  0.00  0.00    +0.000 HD
ENDBRANCH   1   7
BRANCH   4  10
ATOM     10  C   UNL     1       2.079   2.845  21.039  0.00  0.00    +0.000 C 
ATOM     11  O   UNL     1       2.711   2.520  22.025  0.00  0.00    +0.000 OA
BRANCH  10  12
ATOM     12  O   UNL     1       0.735   2.965  21.031  0.00  0.00    +0.000 OA
ATOM     13  H   UNL     1       0.401   3.157  21.943  0.00  0.00    +0.000 HD
ENDBRANCH  10  12
ENDBRANCH   4  10
BRANCH   5  14
ATOM     14  O   UNL     1       5.076   2.309  19.897  0.00  0.00    +0.000 OA
ATOM     15  H   UNL     1       5.441   2.817  20.651  0.00  0.00    +0.000 HD
ENDBRANCH   5  14
TORSDOF 4
ENDMDL
MODEL 3
REMARK VINA RESULT:      -5.3      1.619      2.296
REMARK  Name = 
REMARK  4 active torsions:
REMARK  status: ('A' for Active; 'I' for Inactive)
REMARK    1  A    between atoms: N_1  and  C_2
REMARK    2  A    between atoms: C_5  and  C_6
REMARK    3  A    between atoms: C_6  and  O_8
REMARK    4  A    between atoms: C_9  and  O_10
REMARK                            x       y       z     vdW  Elec       q    Type
REMARK                         _______ _______ _______ _____ _____    ______ ____
ROOT
ATOM      1  C   UNL     1       4.879   5.057  18.464  0.00  0.00    +0.000 A 
ATOM      2  C   UNL     1       4.277   5.283  17.227  0.00  0.00    +0.000 A 
ATOM      3  C   UNL     1       5.015   5.241  16.042  0.00  0.00    +0.000 A 
ATOM      4  C   UNL     1       6.374   4.902  16.054  0.00  0.00    +0.000 A 
ATOM      5  C   UNL     1       6.953   4.637  17.314  0.00  0.00    +0.000 A 
ATOM      6  C   UNL     1       6.224   4.743  18.494  0.00  0.00    +0.000 A 
ENDROOT
BRANCH   1   7
ATOM      7  N   UNL     1       4.123   4.843  19.615  0.00  0.00    +0.000 N 
ATOM      8  H   UNL     1       3.951   5.676  20.163  0.00  0.00    +0.000 HD
ATOM      9  H   UNL     1       4.454   4.059  20.171  0.00  0.00    +0.000 HD
ENDBRANCH   1   7
BRANCH   4  10
ATOM     10  C   UNL     1       6.904   4.674  14.669  0.00  0.00    +0.000 C 
ATOM     11  O   UNL     1       7.765   5.391  14.198  0.00  0.00    +0.000 OA
BRANCH  10  12
ATOM     12  O   UNL     1       6.451   3.562  14.052  0.00  0.00    +0.000 OA
ATOM     13  H   UNL     1       5.788   3.099  14.622  0.00  0.00    +0.000 HD
ENDBRANCH  10  12
ENDBRANCH   4  10
BRANCH   5  14
ATOM     14  O   UNL     1       8.163   4.095  17.610  0.00  0.00    +0.000 OA
ATOM     15  H   UNL     1       8.061   3.130  17.742  0.00  0.00    +0.000 HD
ENDBRANCH   5  14
TORSDOF 4
ENDMDL
MODEL 4
REMARK VINA RESULT:      -5.3      1.906      2.315
REMARK  Name = 
REMARK  4 active torsions:
REMARK  status: ('A' for Active; 'I' for Inactive)
REMARK    1  A    between atoms: N_1  and  C_2
REMARK    2  A    between atoms: C_5  and  C_6
REMARK    3  A    between atoms: C_6  and  O_8
REMARK    4  A    between atoms: C_9  and  O_10
REMARK                            x       y       z     vdW  Elec       q    Type
REMARK                         _______ _______ _______ _____ _____    ______ ____
ROOT
ATOM      1  C   UNL     1       1.863   2.771  18.665  0.00  0.00    +0.000 A 
ATOM      2  C   UNL     1       2.026   3.874  17.827  0.00  0.00    +0.000 A 
ATOM      3  C   UNL     1       3.249   4.544  17.740  0.00  0.00    +0.000 A 
ATOM      4  C   UNL     1       4.371   4.085  18.439  0.00  0.00    +0.000 A 
ATOM      5  C   UNL     1       4.193   2.943  19.249  0.00  0.00    +0.000 A 
ATOM      6  C   UNL     1       2.956   2.321  19.379  0.00  0.00    +0.000 A 
ENDROOT
BRANCH   1   7
ATOM      7  N   UNL     1       0.745   1.946  18.574  0.00  0.00    +0.000 N 
ATOM      8  H   UNL     1       0.232   1.840  19.439  0.00  0.00    +0.000 HD
ATOM      9  H   UNL     1       0.936   1.061  18.112  0.00  0.00    +0.000 HD
ENDBRANCH   1   7
BRANCH   4  10
ATOM     10  C   UNL     1       5.623   4.793  18.011  0.00  0.00    +0.000 C 
ATOM     11  O   UNL     1       5.594   5.943  17.618  0.00  0.00    +0.000 OA
BRANCH  10  12
ATOM     12  O   UNL     1       6.770   4.112  18.214  0.00  0.00    +0.000 OA
ATOM     13  H   UNL     1       7.280   4.038  17.369  0.00  0.00    +0.000 HD
ENDBRANCH  10  12
ENDBRANCH   4  10
BRANCH   5  14
ATOM     14  O   UNL     1       5.124   2.168  19.864  0.00  0.00    +0.000 OA
ATOM     15  H   UNL     1       4.803   1.242  19.897  0.00  0.00    +0.000 HD
ENDBRANCH   5  14
TORSDOF 4
ENDMDL
MODEL 5
REMARK VINA RESULT:      -5.3      3.294      4.147
REMARK  Name = 
REMARK  4 active torsions:
REMARK  status: ('A' for Active; 'I' for Inactive)
REMARK    1  A    between atoms: N_1  and  C_2
REMARK    2  A    between atoms: C_5  and  C_6
REMARK    3  A    between atoms: C_6  and  O_8
REMARK    4  A    between atoms: C_9  and  O_10
REMARK                            x       y       z     vdW  Elec       q    Type
REMARK                         _______ _______ _______ _____ _____    ______ ____
ROOT
ATOM      1  C   UNL     1       7.396   7.343  17.593  0.00  0.00    +0.000 A 
ATOM      2  C   UNL     1       6.146   6.953  17.111  0.00  0.00    +0.000 A 
ATOM      3  C   UNL     1       5.460   5.871  17.666  0.00  0.00    +0.000 A 
ATOM      4  C   UNL     1       5.975   5.185  18.773  0.00  0.00    +0.000 A 
ATOM      5  C   UNL     1       7.221   5.623  19.270  0.00  0.00    +0.000 A 
ATOM      6  C   UNL     1       7.927   6.661  18.670  0.00  0.00    +0.000 A 
ENDROOT
BRANCH   1   7
ATOM      7  N   UNL     1       7.970   8.559  17.230  0.00  0.00    +0.000 N 
ATOM      8  H   UNL     1       7.938   9.268  17.950  0.00  0.00    +0.000 HD
ATOM      9  H   UNL     1       7.658   8.894  16.323  0.00  0.00    +0.000 HD
ENDBRANCH   1   7
BRANCH   4  10
ATOM     10  C   UNL     1       4.971   4.233  19.355  0.00  0.00    +0.000 C 
ATOM     11  O   UNL     1       3.859   4.606  19.672  0.00  0.00    +0.000 OA
BRANCH  10  12
ATOM     12  O   UNL     1       5.349   2.938  19.379  0.00  0.00    +0.000 OA
ATOM     13  H   UNL     1       4.886   2.458  20.110  0.00  0.00    +0.000 HD
ENDBRANCH  10  12
ENDBRANCH   4  10
BRANCH   5  14
ATOM     14  O   UNL     1       7.852   5.294  20.427  0.00  0.00    +0.000 OA
ATOM     15  H   UNL     1       7.406   5.742  21.176  0.00  0.00    +0.000 HD
ENDBRANCH   5  14
TORSDOF 4
ENDMDL
MODEL 6
REMARK VINA RESULT:      -5.2      1.571      1.694
REMARK  Name = 
REMARK  4 active torsions:
REMARK  status: ('A' for Active; 'I' for Inactive)
REMARK    1  A    between atoms: N_1  and  C_2
REMARK    2  A    between atoms: C_5  and  C_6
REMARK    3  A    between atoms: C_6  and  O_8
REMARK    4  A    between atoms: C_9  and  O_10
REMARK                            x       y       z     vdW  Elec       q    Type
REMARK                         _______ _______ _______ _____ _____    ______ ____
ROOT
ATOM      1  C   UNL     1       3.583   6.101  18.290  0.00  0.00    +0.000 A 
ATOM      2  C   UNL     1       4.351   6.696  17.289  0.00  0.00    +0.000 A 
ATOM      3  C   UNL     1       5.617   6.209  16.960  0.00  0.00    +0.000 A 
ATOM      4  C   UNL     1       6.129   5.061  17.578  0.00  0.00    +0.000 A 
ATOM      5  C   UNL     1       5.318   4.452  18.560  0.00  0.00    +0.000 A 
ATOM      6  C   UNL     1       4.085   4.982  18.925  0.00  0.00    +0.000 A 
ENDROOT
BRANCH   1   7
ATOM      7  N   UNL     1       2.235   6.408  18.455  0.00  0.00    +0.000 N 
ATOM      8  H   UNL     1       1.622   5.979  17.773  0.00  0.00    +0.000 HD
ATOM      9  H   UNL     1       2.062   7.402  18.578  0.00  0.00    +0.000 HD
ENDBRANCH   1   7
BRANCH   4  10
ATOM     10  C   UNL     1       7.379   4.576  16.905  0.00  0.00    +0.000 C 
ATOM     11  O   UNL     1       7.577   4.776  15.723  0.00  0.00    +0.000 OA
BRANCH  10  12
ATOM     12  O   UNL     1       8.299   4.025  17.724  0.00  0.00    +0.000 OA
ATOM     13  H   UNL     1       7.940   3.946  18.642  0.00  0.00    +0.000 HD
ENDBRANCH  10  12
ENDBRANCH   4  10
BRANCH   5  14
ATOM     14  O   UNL     1       5.456   3.243  19.163  0.00  0.00    +0.000 OA
ATOM     15  H   UNL     1       6.177   3.293  19.825  0.00  0.00    +0.000 HD
ENDBRANCH   5  14
TORSDOF 4
ENDMDL
MODEL 7
REMARK VINA RESULT:      -5.2      1.996      2.449
REMARK  Name = 
REMARK  4 active torsions:
REMARK  status: ('A' for Active; 'I' for Inactive)
REMARK    1  A    between atoms: N_1  and  C_2
REMARK    2  A    between atoms: C_5  and  C_6
REMARK    3  A    between atoms: C_6  and  O_8
REMARK    4  A    between atoms: C_9  and  O_10
REMARK                            x       y       z     vdW  Elec       q    Type
REMARK                         _______ _______ _______ _____ _____    ______ ____
ROOT
ATOM      1  C   UNL     1       1.722   3.547  19.648  0.00  0.00    +0.000 A 
ATOM      2  C   UNL     1       1.539   4.249  18.457  0.00  0.00    +0.000 A 
ATOM      3  C   UNL     1       2.613   4.535  17.611  0.00  0.00    +0.000 A 
ATOM      4  C   UNL     1       3.899   4.064  17.899  0.00  0.00    +0.000 A 
ATOM      5  C   UNL     1       4.053   3.321  19.089  0.00  0.00    +0.000 A 
ATOM      6  C   UNL     1       2.990   3.096  19.957  0.00  0.00    +0.000 A 
ENDROOT
BRANCH   1   7
ATOM      7  N   UNL     1       0.643   3.036  20.366  0.00  0.00    +0.000 N 
ATOM      8  H   UNL     1      -0.263   3.332  20.027  0.00  0.00    +0.000 HD
ATOM      9  H   UNL     1       0.747   3.140  21.372  0.00  0.00    +0.000 HD
ENDBRANCH   1   7
BRANCH   4  10
ATOM     10  C   UNL     1       4.839   4.269  16.747  0.00  0.00    +0.000 C 
ATOM     11  O   UNL     1       4.920   5.342  16.182  0.00  0.00    +0.000 OA
BRANCH  10  12
ATOM     12  O   UNL     1       5.658   3.231  16.478  0.00  0.00    +0.000 OA
ATOM     13  H   UNL     1       6.492   3.306  17.004  0.00  0.00    +0.000 HD
ENDBRANCH  10  12
ENDBRANCH   4  10
BRANCH   5  14
ATOM     14  O   UNL     1       5.111   2.580  19.512  0.00  0.00    +0.000 OA
ATOM     15  H   UNL     1       4.861   1.633  19.513  0.00  0.00    +0.000 HD
ENDBRANCH   5  14
TORSDOF 4
ENDMDL
MODEL 8
REMARK VINA RESULT:      -5.2      1.720      2.307
REMARK  Name = 
REMARK  4 active torsions:
REMARK  status: ('A' for Active; 'I' for Inactive)
REMARK    1  A    between atoms: N_1  and  C_2
REMARK    2  A    between atoms: C_5  and  C_6
REMARK    3  A    between atoms: C_6  and  O_8
REMARK    4  A    between atoms: C_9  and  O_10
REMARK                            x       y       z     vdW  Elec       q    Type
REMARK                         _______ _______ _______ _____ _____    ______ ____
ROOT
ATOM      1  C   UNL     1       3.763   5.934  18.811  0.00  0.00    +0.000 A 
ATOM      2  C   UNL     1       4.678   5.012  19.320  0.00  0.00    +0.000 A 
ATOM      3  C   UNL     1       5.743   4.544  18.546  0.00  0.00    +0.000 A 
ATOM      4  C   UNL     1       5.967   5.041  17.256  0.00  0.00    +0.000 A 
ATOM      5  C   UNL     1       5.052   6.003  16.777  0.00  0.00    +0.000 A 
ATOM      6  C   UNL     1       3.958   6.415  17.531  0.00  0.00    +0.000 A 
ENDROOT
BRANCH   1   7
ATOM      7  N   UNL     1       2.860   6.596  19.638  0.00  0.00    +0.000 N 
ATOM      8  H   UNL     1       3.273   7.315  20.218  0.00  0.00    +0.000 HD
ATOM      9  H   UNL     1       2.252   5.966  20.153  0.00  0.00    +0.000 HD
ENDBRANCH   1   7
BRANCH   4  10
ATOM     10  C   UNL     1       7.290   4.594  16.709  0.00  0.00    +0.000 C 
ATOM     11  O   UNL     1       7.600   4.810  15.553  0.00  0.00    +0.000 OA
BRANCH  10  12
ATOM     12  O   UNL     1       8.140   4.062  17.612  0.00  0.00    +0.000 OA
ATOM     13  H   UNL     1       8.600   4.779  18.115  0.00  0.00    +0.000 HD
ENDBRANCH  10  12
ENDBRANCH   4  10
BRANCH   5  14
ATOM     14  O   UNL     1       5.131   6.795  15.676  0.00  0.00    +0.000 OA
ATOM     15  H   UNL     1       4.405   6.563  15.059  0.00  0.00    +0.000 HD
ENDBRANCH   5  14
TORSDOF 4
ENDMDL
MODEL 9
REMARK VINA RESULT:      -5.1      2.064      2.574
REMARK  Name = 
REMARK  4 active torsions:
REMARK  status: ('A' for Active; 'I' for Inactive)
REMARK    1  A    between atoms: N_1  and  C_2
REMARK    2  A    between atoms: C_5  and  C_6
REMARK    3  A    between atoms: C_6  and  O_8
REMARK    4  A    between atoms: C_9  and  O_10
REMARK                            x       y       z     vdW  Elec       q    Type
REMARK                         _______ _______ _______ _____ _____    ______ ____
ROOT
ATOM      1  C   UNL     1       4.886   5.072  18.149  0.00  0.00    +0.000 A 
ATOM      2  C   UNL     1       4.574   4.112  17.187  0.00  0.00    +0.000 A 
ATOM      3  C   UNL     1       5.182   4.122  15.929  0.00  0.00    +0.000 A 
ATOM      4  C   UNL     1       6.178   5.055  15.619  0.00  0.00    +0.000 A 
ATOM      5  C   UNL     1       6.507   5.992  16.623  0.00  0.00    +0.000 A 
ATOM      6  C   UNL     1       5.851   6.014  17.850  0.00  0.00    +0.000 A 
ENDROOT
BRANCH   1   7
ATOM      7  N   UNL     1       4.489   4.929  19.477  0.00  0.00    +0.000 N 
ATOM      8  H   UNL     1       4.293   3.977  19.755  0.00  0.00    +0.000 HD
ATOM      9  H   UNL     1       3.760   5.583  19.748  0.00  0.00    +0.000 HD
ENDBRANCH   1   7
BRANCH   4  10
ATOM     10  C   UNL     1       6.862   4.732  14.324  0.00  0.00    +0.000 C 
ATOM     11  O   UNL     1       7.799   5.394  13.923  0.00  0.00    +0.000 OA
BRANCH  10  12
ATOM     12  O   UNL     1       6.449   3.598  13.720  0.00  0.00    +0.000 OA
ATOM     13  H   UNL     1       7.225   3.025  13.497  0.00  0.00    +0.000 HD
ENDBRANCH  10  12
ENDBRANCH   4  10
BRANCH   5  14
ATOM     14  O   UNL     1       7.549   6.861  16.684  0.00  0.00    +0.000 OA
ATOM     15  H   UNL     1       8.300   6.500  16.168  0.00  0.00    +0.000 HD
ENDBRANCH   5  14
TORSDOF 4
ENDMDL
