MODEL 1
REMARK VINA RESULT:      -7.6      0.000      0.000
REMARK  Name = 
REMARK  7 active torsions:
REMARK  status: ('A' for Active; 'I' for Inactive)
REMARK    1  A    between atoms: N_4  and  C_5
REMARK    2  A    between atoms: C_8  and  C_9
REMARK    3  A    between atoms: C_9  and  O_11
REMARK    4  A    between atoms: O_11  and  C_12
REMARK    5  A    between atoms: C_15  and  C_16
REMARK    6  A    between atoms: C_16  and  C_17
REMARK    7  A    between atoms: C_17  and  O_19
REMARK                            x       y       z     vdW  Elec       q    Type
REMARK                         _______ _______ _______ _____ _____    ______ ____
ROOT
ATOM      1  C   UNL     1       3.477   4.468  18.822  0.00  0.00    +0.000 A 
ATOM      2  C   UNL     1       4.796   4.104  19.109  0.00  0.00    +0.000 A 
ATOM      3  C   UNL     1       5.882   4.784  18.530  0.00  0.00    +0.000 A 
ATOM      4  C   UNL     1       5.672   5.839  17.634  0.00  0.00    +0.000 A 
ATOM      5  C   UNL     1       4.358   6.216  17.343  0.00  0.00    +0.000 A 
ATOM      6  C   UNL     1       3.281   5.543  17.938  0.00  0.00    +0.000 A 
ENDROOT
BRANCH   1  10
ATOM      7  N   UNL     1       1.227   5.355  20.820  0.00  0.00    +0.000 NA
ATOM      8  C   UNL     1       1.477   4.198  20.323  0.00  0.00    +0.000 C 
ATOM      9  N   UNL     1       0.737   3.160  20.777  0.00  0.00    +0.000 N 
ATOM     10  N   UNL     1       2.348   3.824  19.354  0.00  0.00    +0.000 N 
ATOM     11  H   UNL     1       1.782   6.057  20.333  0.00  0.00    +0.000 HD
ATOM     12  H   UNL     1       0.159   3.489  21.548  0.00  0.00    +0.000 HD
ATOM     13  H   UNL     1       1.292   2.369  21.081  0.00  0.00    +0.000 HD
ATOM     14  H   UNL     1       2.101   2.956  18.898  0.00  0.00    +0.000 HD
ENDBRANCH   1  10
BRANCH   4  15
ATOM     15  C   UNL     1       6.858   6.457  16.966  0.00  0.00    +0.000 C 
ATOM     16  O   UNL     1       7.170   7.632  17.099  0.00  0.00    +0.000 OA
BRANCH  15  17
ATOM     17  O   UNL     1       7.561   5.486  16.264  0.00  0.00    +0.000 OA
BRANCH  17  18
ATOM     18  C   UNL     1       7.027   4.946  15.076  0.00  0.00    +0.000 A 
ATOM     19  C   UNL     1       7.571   5.240  13.828  0.00  0.00    +0.000 A 
ATOM     20  C   UNL     1       7.116   4.560  12.698  0.00  0.00    +0.000 A 
ATOM     21  C   UNL     1       6.137   3.561  12.812  0.00  0.00    +0.000 A 
ATOM     22  C   UNL     1       5.587   3.286  14.072  0.00  0.00    +0.000 A 
ATOM     23  C   UNL     1       6.036   3.973  15.206  0.00  0.00    +0.000 A 
BRANCH  21  24
ATOM     24  C   UNL     1       5.704   2.787  11.585  0.00  0.00    +0.000 C 
BRANCH  24  25
ATOM     25  C   UNL     1       6.560   1.583  11.240  0.00  0.00    +0.000 C 
ATOM     26  O   UNL     1       7.701   1.681  10.805  0.00  0.00    +0.000 OA
BRANCH  25  27
ATOM     27  O   UNL     1       5.958   0.379  11.371  0.00  0.00    +0.000 OA
ATOM     28  H   UNL     1       6.563  -0.344  11.626  0.00  0.00    +0.000 HD
ENDBRANCH  25  27
ENDBRANCH  24  25
ENDBRANCH  21  24
ENDBRANCH  17  18
ENDBRANCH  15  17
ENDBRANCH   4  15
TORSDOF 7
ENDMDL
MODEL 2
REMARK VINA RESULT:      -7.5      5.220      8.743
REMARK  Name = 
REMARK  7 active torsions:
REMARK  status: ('A' for Active; 'I' for Inactive)
REMARK    1  A    between atoms: N_4  and  C_5
REMARK    2  A    between atoms: C_8  and  C_9
REMARK    3  A    between atoms: C_9  and  O_11
REMARK    4  A    between atoms: O_11  and  C_12
REMARK    5  A    between atoms: C_15  and  C_16
REMARK    6  A    between atoms: C_16  and  C_17
REMARK    7  A    between atoms: C_17  and  O_19
REMARK                            x       y       z     vdW  Elec       q    Type
REMARK                         _______ _______ _______ _____ _____    ______ ____
ROOT
ATOM      1  C   UNL     1       4.729   3.963  17.116  0.00  0.00    +0.000 A 
ATOM      2  C   UNL     1       5.182   4.387  18.369  0.00  0.00    +0.000 A 
ATOM      3  C   UNL     1       4.281   4.770  19.379  0.00  0.00    +0.000 A 
ATOM      4  C   UNL     1       2.899   4.752  19.151  0.00  0.00    +0.000 A 
ATOM      5  C   UNL     1       2.434   4.325  17.905  0.00  0.00    +0.000 A 
ATOM      6  C   UNL     1       3.339   3.930  16.909  0.00  0.00    +0.000 A 
ENDROOT
BRANCH   1  10
ATOM      7  N   UNL     1       6.097   5.530  14.768  0.00  0.00    +0.000 NA
ATOM      8  C   UNL     1       6.031   4.267  14.986  0.00  0.00    +0.000 C 
ATOM      9  N   UNL     1       6.536   3.451  14.033  0.00  0.00    +0.000 N 
ATOM     10  N   UNL     1       5.573   3.580  16.061  0.00  0.00    +0.000 N 
ATOM     11  H   UNL     1       5.771   6.031  15.594  0.00  0.00    +0.000 HD
ATOM     12  H   UNL     1       6.795   4.016  13.227  0.00  0.00    +0.000 HD
ATOM     13  H   UNL     1       5.898   2.719  13.744  0.00  0.00    +0.000 HD
ATOM     14  H   UNL     1       5.958   2.648  16.143  0.00  0.00    +0.000 HD
ENDBRANCH   1  10
BRANCH   4  15
ATOM     15  C   UNL     1       1.992   5.270  20.221  0.00  0.00    +0.000 C 
ATOM     16  O   UNL     1       1.070   4.621  20.694  0.00  0.00    +0.000 OA
BRANCH  15  17
ATOM     17  O   UNL     1       2.413   6.531  20.623  0.00  0.00    +0.000 OA
BRANCH  17  18
ATOM     18  C   UNL     1       1.708   7.679  20.207  0.00  0.00    +0.000 A 
ATOM     19  C   UNL     1       0.923   8.418  21.090  0.00  0.00    +0.000 A 
ATOM     20  C   UNL     1       0.375   9.633  20.677  0.00  0.00    +0.000 A 
ATOM     21  C   UNL     1       0.632  10.131  19.390  0.00  0.00    +0.000 A 
ATOM     22  C   UNL     1       1.410   9.369  18.506  0.00  0.00    +0.000 A 
ATOM     23  C   UNL     1       1.954   8.146  18.915  0.00  0.00    +0.000 A 
BRANCH  21  24
ATOM     24  C   UNL     1       0.084  11.482  18.982  0.00  0.00    +0.000 C 
BRANCH  24  25
ATOM     25  C   UNL     1      -1.216  11.448  18.201  0.00  0.00    +0.000 C 
ATOM     26  O   UNL     1      -2.013  10.522  18.278  0.00  0.00    +0.000 OA
BRANCH  25  27
ATOM     27  O   UNL     1      -1.412  12.476  17.344  0.00  0.00    +0.000 OA
ATOM     28  H   UNL     1      -2.278  12.918  17.442  0.00  0.00    +0.000 HD
ENDBRANCH  25  27
ENDBRANCH  24  25
ENDBRANCH  21  24
ENDBRANCH  17  18
ENDBRANCH  15  17
ENDBRANCH   4  15
TORSDOF 7
ENDMDL
MODEL 3
REMARK VINA RESULT:      -7.5      0.619      1.692
REMARK  Name = 
REMARK  7 active torsions:
REMARK  status: ('A' for Active; 'I' for Inactive)
REMARK    1  A    between atoms: N_4  and  C_5
REMARK    2  A    between atoms: C_8  and  C_9
REMARK    3  A    between atoms: C_9  and  O_11
REMARK    4  A    between atoms: O_11  and  C_12
REMARK    5  A    between atoms: C_15  and  C_16
REMARK    6  A    between atoms: C_16  and  C_17
REMARK    7  A    between atoms: C_17  and  O_19
REMARK                            x       y       z     vdW  Elec       q    Type
REMARK                         _______ _______ _______ _____ _____    ______ ____
ROOT
ATOM      1  C   UNL     1       3.325   4.808  19.143  0.00  0.00    +0.000 A 
ATOM      2  C   UNL     1       3.139   5.640  18.035  0.00  0.00    +0.000 A 
ATOM      3  C   UNL     1       4.232   6.204  17.354  0.00  0.00    +0.000 A 
ATOM      4  C   UNL     1       5.545   5.959  17.779  0.00  0.00    +0.000 A 
ATOM      5  C   UNL     1       5.744   5.125  18.882  0.00  0.00    +0.000 A 
ATOM      6  C   UNL     1       4.648   4.554  19.545  0.00  0.00    +0.000 A 
ENDROOT
BRANCH   1  10
ATOM      7  N   UNL     1       1.859   2.040  18.979  0.00  0.00    +0.000 NA
ATOM      8  C   UNL     1       1.581   3.077  19.682  0.00  0.00    +0.000 C 
ATOM      9  N   UNL     1       0.438   3.044  20.404  0.00  0.00    +0.000 N 
ATOM     10  N   UNL     1       2.278   4.224  19.875  0.00  0.00    +0.000 N 
ATOM     11  H   UNL     1       2.781   2.154  18.560  0.00  0.00    +0.000 HD
ATOM     12  H   UNL     1      -0.072   2.198  20.162  0.00  0.00    +0.000 HD
ATOM     13  H   UNL     1      -0.156   3.852  20.262  0.00  0.00    +0.000 HD
ATOM     14  H   UNL     1       2.038   4.707  20.730  0.00  0.00    +0.000 HD
ENDBRANCH   1  10
BRANCH   4  15
ATOM     15  C   UNL     1       6.664   6.668  17.086  0.00  0.00    +0.000 C 
ATOM     16  O   UNL     1       6.782   7.884  17.068  0.00  0.00    +0.000 OA
BRANCH  15  17
ATOM     17  O   UNL     1       7.551   5.739  16.558  0.00  0.00    +0.000 OA
BRANCH  17  18
ATOM     18  C   UNL     1       7.183   4.963  15.440  0.00  0.00    +0.000 A 
ATOM     19  C   UNL     1       6.297   3.893  15.549  0.00  0.00    +0.000 A 
ATOM     20  C   UNL     1       5.837   3.256  14.396  0.00  0.00    +0.000 A 
ATOM     21  C   UNL     1       6.236   3.702  13.126  0.00  0.00    +0.000 A 
ATOM     22  C   UNL     1       7.140   4.769  13.032  0.00  0.00    +0.000 A 
ATOM     23  C   UNL     1       7.610   5.405  14.187  0.00  0.00    +0.000 A 
BRANCH  21  24
ATOM     24  C   UNL     1       5.674   3.042  11.885  0.00  0.00    +0.000 C 
BRANCH  24  25
ATOM     25  C   UNL     1       6.437   1.827  11.393  0.00  0.00    +0.000 C 
ATOM     26  O   UNL     1       7.554   1.900  10.898  0.00  0.00    +0.000 OA
BRANCH  25  27
ATOM     27  O   UNL     1       5.774   0.650  11.464  0.00  0.00    +0.000 OA
ATOM     28  H   UNL     1       5.138   0.505  10.737  0.00  0.00    +0.000 HD
ENDBRANCH  25  27
ENDBRANCH  24  25
ENDBRANCH  21  24
ENDBRANCH  17  18
ENDBRANCH  15  17
ENDBRANCH   4  15
TORSDOF 7
ENDMDL
MODEL 4
REMARK VINA RESULT:      -7.5      4.184      6.761
REMARK  Name = 
REMARK  7 active torsions:
REMARK  status: ('A' for Active; 'I' for Inactive)
REMARK    1  A    between atoms: N_4  and  C_5
REMARK    2  A    between atoms: C_8  and  C_9
REMARK    3  A    between atoms: C_9  and  O_11
REMARK    4  A    between atoms: O_11  and  C_12
REMARK    5  A    between atoms: C_15  and  C_16
REMARK    6  A    between atoms: C_16  and  C_17
REMARK    7  A    between atoms: C_17  and  O_19
REMARK                            x       y       z     vdW  Elec       q    Type
REMARK                         _______ _______ _______ _____ _____    ______ ____
ROOT
ATOM      1  C   UNL     1       5.698   4.536  14.775  0.00  0.00    +0.000 A 
ATOM      2  C   UNL     1       5.328   5.797  15.251  0.00  0.00    +0.000 A 
ATOM      3  C   UNL     1       5.893   6.330  16.422  0.00  0.00    +0.000 A 
ATOM      4  C   UNL     1       6.838   5.603  17.157  0.00  0.00    +0.000 A 
ATOM      5  C   UNL     1       7.221   4.343  16.689  0.00  0.00    +0.000 A 
ATOM      6  C   UNL     1       6.663   3.826  15.511  0.00  0.00    +0.000 A 
ENDROOT
BRANCH   1  10
ATOM      7  N   UNL     1       6.981   3.224  12.231  0.00  0.00    +0.000 NA
ATOM      8  C   UNL     1       5.754   3.508  12.480  0.00  0.00    +0.000 C 
ATOM      9  N   UNL     1       4.861   3.312  11.483  0.00  0.00    +0.000 N 
ATOM     10  N   UNL     1       5.163   3.940  13.622  0.00  0.00    +0.000 N 
ATOM     11  H   UNL     1       7.529   3.326  13.083  0.00  0.00    +0.000 HD
ATOM     12  H   UNL     1       5.371   3.061  10.638  0.00  0.00    +0.000 HD
ATOM     13  H   UNL     1       4.274   4.117  11.300  0.00  0.00    +0.000 HD
ATOM     14  H   UNL     1       4.173   3.740  13.668  0.00  0.00    +0.000 HD
ENDBRANCH   1  10
BRANCH   4  15
ATOM     15  C   UNL     1       7.329   6.170  18.450  0.00  0.00    +0.000 C 
ATOM     16  O   UNL     1       8.146   7.077  18.521  0.00  0.00    +0.000 OA
BRANCH  15  17
ATOM     17  O   UNL     1       6.662   5.568  19.510  0.00  0.00    +0.000 OA
BRANCH  17  18
ATOM     18  C   UNL     1       5.308   5.198  19.377  0.00  0.00    +0.000 A 
ATOM     19  C   UNL     1       4.294   6.148  19.277  0.00  0.00    +0.000 A 
ATOM     20  C   UNL     1       2.992   5.741  18.986  0.00  0.00    +0.000 A 
ATOM     21  C   UNL     1       2.699   4.386  18.764  0.00  0.00    +0.000 A 
ATOM     22  C   UNL     1       3.726   3.439  18.884  0.00  0.00    +0.000 A 
ATOM     23  C   UNL     1       5.032   3.844  19.184  0.00  0.00    +0.000 A 
BRANCH  21  24
ATOM     24  C   UNL     1       1.294   3.971  18.384  0.00  0.00    +0.000 C 
BRANCH  24  25
ATOM     25  C   UNL     1       0.693   2.863  19.227  0.00  0.00    +0.000 C 
ATOM     26  O   UNL     1       0.250   1.828  18.746  0.00  0.00    +0.000 OA
BRANCH  25  27
ATOM     27  O   UNL     1       0.603   3.118  20.553  0.00  0.00    +0.000 OA
ATOM     28  H   UNL     1       0.573   2.319  21.112  0.00  0.00    +0.000 HD
ENDBRANCH  25  27
ENDBRANCH  24  25
ENDBRANCH  21  24
ENDBRANCH  17  18
ENDBRANCH  15  17
ENDBRANCH   4  15
TORSDOF 7
ENDMDL
MODEL 5
REMARK VINA RESULT:      -7.4      5.036      8.532
REMARK  Name = 
REMARK  7 active torsions:
REMARK  status: ('A' for Active; 'I' for Inactive)
REMARK    1  A    between atoms: N_4  and  C_5
REMARK    2  A    between atoms: C_8  and  C_9
REMARK    3  A    between atoms: C_9  and  O_11
REMARK    4  A    between atoms: O_11  and  C_12
REMARK    5  A    between atoms: C_15  and  C_16
REMARK    6  A    between atoms: C_16  and  C_17
REMARK    7  A    between atoms: C_17  and  O_19
REMARK                            x       y       z     vdW  Elec       q    Type
REMARK                         _______ _______ _______ _____ _____    ______ ____
ROOT
ATOM      1  C   UNL     1       5.848   4.168  14.916  0.00  0.00    +0.000 A 
ATOM      2  C   UNL     1       5.330   3.295  15.877  0.00  0.00    +0.000 A 
ATOM      3  C   UNL     1       4.764   3.775  17.070  0.00  0.00    +0.000 A 
ATOM      4  C   UNL     1       4.715   5.149  17.338  0.00  0.00    +0.000 A 
ATOM      5  C   UNL     1       5.224   6.034  16.383  0.00  0.00    +0.000 A 
ATOM      6  C   UNL     1       5.773   5.546  15.188  0.00  0.00    +0.000 A 
ENDROOT
BRANCH   1  10
ATOM      7  N   UNL     1       4.701   3.446  12.086  0.00  0.00    +0.000 NA
ATOM      8  C   UNL     1       5.892   3.320  12.549  0.00  0.00    +0.000 C 
ATOM      9  N   UNL     1       6.798   2.699  11.757  0.00  0.00    +0.000 N 
ATOM     10  N   UNL     1       6.438   3.755  13.711  0.00  0.00    +0.000 N 
ATOM     11  H   UNL     1       4.148   4.006  12.733  0.00  0.00    +0.000 HD
ATOM     12  H   UNL     1       6.315   2.334  10.940  0.00  0.00    +0.000 HD
ATOM     13  H   UNL     1       7.297   1.950  12.221  0.00  0.00    +0.000 HD
ATOM     14  H   UNL     1       7.444   3.854  13.676  0.00  0.00    +0.000 HD
ENDBRANCH   1  10
BRANCH   4  15
ATOM     15  C   UNL     1       4.199   5.601  18.666  0.00  0.00    +0.000 C 
ATOM     16  O   UNL     1       4.908   5.740  19.653  0.00  0.00    +0.000 OA
BRANCH  15  17
ATOM     17  O   UNL     1       2.846   5.899  18.567  0.00  0.00    +0.000 OA
BRANCH  17  18
ATOM     18  C   UNL     1       2.393   7.217  18.780  0.00  0.00    +0.000 A 
ATOM     19  C   UNL     1       2.277   8.130  17.734  0.00  0.00    +0.000 A 
ATOM     20  C   UNL     1       1.675   9.369  17.961  0.00  0.00    +0.000 A 
ATOM     21  C   UNL     1       1.159   9.691  19.226  0.00  0.00    +0.000 A 
ATOM     22  C   UNL     1       1.298   8.769  20.274  0.00  0.00    +0.000 A 
ATOM     23  C   UNL     1       1.908   7.529  20.051  0.00  0.00    +0.000 A 
BRANCH  21  24
ATOM     24  C   UNL     1       0.450  11.011  19.436  0.00  0.00    +0.000 C 
BRANCH  24  25
ATOM     25  C   UNL     1      -0.775  11.236  18.570  0.00  0.00    +0.000 C 
ATOM     26  O   UNL     1      -1.728  10.468  18.555  0.00  0.00    +0.000 OA
BRANCH  25  27
ATOM     27  O   UNL     1      -0.722  12.308  17.746  0.00  0.00    +0.000 OA
ATOM     28  H   UNL     1      -1.277  13.059  18.032  0.00  0.00    +0.000 HD
ENDBRANCH  25  27
ENDBRANCH  24  25
ENDBRANCH  21  24
ENDBRANCH  17  18
ENDBRANCH  15  17
ENDBRANCH   4  15
TORSDOF 7
ENDMDL
MODEL 6
REMARK VINA RESULT:      -7.4      4.654      7.459
REMARK  Name = 
REMARK  7 active torsions:
REMARK  status: ('A' for Active; 'I' for Inactive)
REMARK    1  A    between atoms: N_4  and  C_5
REMARK    2  A    between atoms: C_8  and  C_9
REMARK    3  A    between atoms: C_9  and  O_11
REMARK    4  A    between atoms: O_11  and  C_12
REMARK    5  A    between atoms: C_15  and  C_16
REMARK    6  A    between atoms: C_16  and  C_17
REMARK    7  A    between atoms: C_17  and  O_19
REMARK                            x       y       z     vdW  Elec       q    Type
REMARK                         _______ _______ _______ _____ _____    ______ ____
ROOT
ATOM      1  C   UNL     1       8.295   7.988  18.624  0.00  0.00    +0.000 A 
ATOM      2  C   UNL     1       8.294   6.638  18.988  0.00  0.00    +0.000 A 
ATOM      3  C   UNL     1       7.686   5.664  18.176  0.00  0.00    +0.000 A 
ATOM      4  C   UNL     1       7.047   6.023  16.983  0.00  0.00    +0.000 A 
ATOM      5  C   UNL     1       7.045   7.369  16.606  0.00  0.00    +0.000 A 
ATOM      6  C   UNL     1       7.668   8.331  17.414  0.00  0.00    +0.000 A 
ENDROOT
BRANCH   1  10
ATOM      7  N   UNL     1       8.912  11.014  18.076  0.00  0.00    +0.000 NA
ATOM      8  C   UNL     1       9.245  10.274  19.070  0.00  0.00    +0.000 C 
ATOM      9  N   UNL     1      10.067  10.819  19.996  0.00  0.00    +0.000 N 
ATOM     10  N   UNL     1       8.871   9.011  19.394  0.00  0.00    +0.000 N 
ATOM     11  H   UNL     1       8.225  10.523  17.506  0.00  0.00    +0.000 HD
ATOM     12  H   UNL     1      10.369  11.732  19.662  0.00  0.00    +0.000 HD
ATOM     13  H   UNL     1      10.876  10.248  20.208  0.00  0.00    +0.000 HD
ATOM     14  H   UNL     1       8.972   8.797  20.377  0.00  0.00    +0.000 HD
ENDBRANCH   1  10
BRANCH   4  15
ATOM     15  C   UNL     1       6.326   4.965  16.212  0.00  0.00    +0.000 C 
ATOM     16  O   UNL     1       6.880   3.991  15.723  0.00  0.00    +0.000 OA
BRANCH  15  17
ATOM     17  O   UNL     1       4.962   5.228  16.217  0.00  0.00    +0.000 OA
BRANCH  17  18
ATOM     18  C   UNL     1       4.191   4.950  17.365  0.00  0.00    +0.000 A 
ATOM     19  C   UNL     1       4.327   3.754  18.068  0.00  0.00    +0.000 A 
ATOM     20  C   UNL     1       3.664   3.589  19.284  0.00  0.00    +0.000 A 
ATOM     21  C   UNL     1       2.884   4.626  19.820  0.00  0.00    +0.000 A 
ATOM     22  C   UNL     1       2.742   5.817  19.093  0.00  0.00    +0.000 A 
ATOM     23  C   UNL     1       3.400   5.983  17.869  0.00  0.00    +0.000 A 
BRANCH  21  24
ATOM     24  C   UNL     1       2.226   4.452  21.172  0.00  0.00    +0.000 C 
BRANCH  24  25
ATOM     25  C   UNL     1       1.353   3.221  21.317  0.00  0.00    +0.000 C 
ATOM     26  O   UNL     1       1.535   2.375  22.183  0.00  0.00    +0.000 OA
BRANCH  25  27
ATOM     27  O   UNL     1       0.394   3.068  20.375  0.00  0.00    +0.000 OA
ATOM     28  H   UNL     1      -0.084   3.890  20.155  0.00  0.00    +0.000 HD
ENDBRANCH  25  27
ENDBRANCH  24  25
ENDBRANCH  21  24
ENDBRANCH  17  18
ENDBRANCH  15  17
ENDBRANCH   4  15
TORSDOF 7
ENDMDL
MODEL 7
REMARK VINA RESULT:      -7.3      4.183      5.501
REMARK  Name = 
REMARK  7 active torsions:
REMARK  status: ('A' for Active; 'I' for Inactive)
REMARK    1  A    between atoms: N_4  and  C_5
REMARK    2  A    between atoms: C_8  and  C_9
REMARK    3  A    between atoms: C_9  and  O_11
REMARK    4  A    between atoms: O_11  and  C_12
REMARK    5  A    between atoms: C_15  and  C_16
REMARK    6  A    between atoms: C_16  and  C_17
REMARK    7  A    between atoms: C_17  and  O_19
REMARK                            x       y       z     vdW  Elec       q    Type
REMARK                         _______ _______ _______ _____ _____    ______ ____
ROOT
ATOM      1  C   UNL     1       0.892  10.047  18.736  0.00  0.00    +0.000 A 
ATOM      2  C   UNL     1       1.406   9.266  17.697  0.00  0.00    +0.000 A 
ATOM      3  C   UNL     1       1.979   8.006  17.944  0.00  0.00    +0.000 A 
ATOM      4  C   UNL     1       2.064   7.502  19.248  0.00  0.00    +0.000 A 
ATOM      5  C   UNL     1       1.549   8.270  20.296  0.00  0.00    +0.000 A 
ATOM      6  C   UNL     1       0.965   9.519  20.037  0.00  0.00    +0.000 A 
ENDROOT
BRANCH   1  10
ATOM      7  N   UNL     1      -2.017  11.035  18.104  0.00  0.00    +0.000 NA
ATOM      8  C   UNL     1      -0.917  11.694  18.152  0.00  0.00    +0.000 C 
ATOM      9  N   UNL     1      -0.962  12.996  17.789  0.00  0.00    +0.000 N 
ATOM     10  N   UNL     1       0.320  11.317  18.560  0.00  0.00    +0.000 N 
ATOM     11  H   UNL     1      -1.867  10.102  18.487  0.00  0.00    +0.000 HD
ATOM     12  H   UNL     1      -1.891  13.198  17.425  0.00  0.00    +0.000 HD
ATOM     13  H   UNL     1      -0.265  13.251  17.100  0.00  0.00    +0.000 HD
ATOM     14  H   UNL     1       0.908  12.090  18.844  0.00  0.00    +0.000 HD
ENDBRANCH   1  10
BRANCH   4  15
ATOM     15  C   UNL     1       2.777   6.206  19.468  0.00  0.00    +0.000 C 
ATOM     16  O   UNL     1       2.209   5.170  19.781  0.00  0.00    +0.000 OA
BRANCH  15  17
ATOM     17  O   UNL     1       4.128   6.360  19.188  0.00  0.00    +0.000 OA
BRANCH  17  18
ATOM     18  C   UNL     1       4.676   5.805  18.013  0.00  0.00    +0.000 A 
ATOM     19  C   UNL     1       4.833   4.430  17.856  0.00  0.00    +0.000 A 
ATOM     20  C   UNL     1       5.228   3.916  16.620  0.00  0.00    +0.000 A 
ATOM     21  C   UNL     1       5.440   4.770  15.526  0.00  0.00    +0.000 A 
ATOM     22  C   UNL     1       5.294   6.153  15.703  0.00  0.00    +0.000 A 
ATOM     23  C   UNL     1       4.906   6.672  16.944  0.00  0.00    +0.000 A 
BRANCH  21  24
ATOM     24  C   UNL     1       5.802   4.188  14.176  0.00  0.00    +0.000 C 
BRANCH  24  25
ATOM     25  C   UNL     1       7.091   4.710  13.569  0.00  0.00    +0.000 C 
ATOM     26  O   UNL     1       7.912   5.357  14.207  0.00  0.00    +0.000 OA
BRANCH  25  27
ATOM     27  O   UNL     1       7.248   4.483  12.245  0.00  0.00    +0.000 OA
ATOM     28  H   UNL     1       6.500   4.786  11.696  0.00  0.00    +0.000 HD
ENDBRANCH  25  27
ENDBRANCH  24  25
ENDBRANCH  21  24
ENDBRANCH  17  18
ENDBRANCH  15  17
ENDBRANCH   4  15
TORSDOF 7
ENDMDL
MODEL 8
REMARK VINA RESULT:      -7.3      5.373      8.700
REMARK  Name = 
REMARK  7 active torsions:
REMARK  status: ('A' for Active; 'I' for Inactive)
REMARK    1  A    between atoms: N_4  and  C_5
REMARK    2  A    between atoms: C_8  and  C_9
REMARK    3  A    between atoms: C_9  and  O_11
REMARK    4  A    between atoms: O_11  and  C_12
REMARK    5  A    between atoms: C_15  and  C_16
REMARK    6  A    between atoms: C_16  and  C_17
REMARK    7  A    between atoms: C_17  and  O_19
REMARK                            x       y       z     vdW  Elec       q    Type
REMARK                         _______ _______ _______ _____ _____    ______ ____
ROOT
ATOM      1  C   UNL     1       4.657   4.124  17.033  0.00  0.00    +0.000 A 
ATOM      2  C   UNL     1       5.114   4.976  18.043  0.00  0.00    +0.000 A 
ATOM      3  C   UNL     1       4.254   5.433  19.057  0.00  0.00    +0.000 A 
ATOM      4  C   UNL     1       2.905   5.056  19.076  0.00  0.00    +0.000 A 
ATOM      5  C   UNL     1       2.437   4.200  18.075  0.00  0.00    +0.000 A 
ATOM      6  C   UNL     1       3.306   3.738  17.076  0.00  0.00    +0.000 A 
ENDROOT
BRANCH   1  10
ATOM      7  N   UNL     1       6.396   5.523  14.828  0.00  0.00    +0.000 NA
ATOM      8  C   UNL     1       6.084   4.286  14.968  0.00  0.00    +0.000 C 
ATOM      9  N   UNL     1       6.466   3.439  13.984  0.00  0.00    +0.000 N 
ATOM     10  N   UNL     1       5.458   3.643  15.984  0.00  0.00    +0.000 N 
ATOM     11  H   UNL     1       6.135   6.033  15.671  0.00  0.00    +0.000 HD
ATOM     12  H   UNL     1       6.861   3.987  13.223  0.00  0.00    +0.000 HD
ATOM     13  H   UNL     1       5.714   2.859  13.632  0.00  0.00    +0.000 HD
ATOM     14  H   UNL     1       5.657   2.652  16.023  0.00  0.00    +0.000 HD
ENDBRANCH   1  10
BRANCH   4  15
ATOM     15  C   UNL     1       2.011   5.653  20.114  0.00  0.00    +0.000 C 
ATOM     16  O   UNL     1       1.066   5.059  20.612  0.00  0.00    +0.000 OA
BRANCH  15  17
ATOM     17  O   UNL     1       2.471   6.918  20.458  0.00  0.00    +0.000 OA
BRANCH  17  18
ATOM     18  C   UNL     1       1.830   8.067  19.951  0.00  0.00    +0.000 A 
ATOM     19  C   UNL     1       1.927   8.427  18.608  0.00  0.00    +0.000 A 
ATOM     20  C   UNL     1       1.150   9.477  18.116  0.00  0.00    +0.000 A 
ATOM     21  C   UNL     1       0.251  10.154  18.955  0.00  0.00    +0.000 A 
ATOM     22  C   UNL     1       0.176   9.791  20.308  0.00  0.00    +0.000 A 
ATOM     23  C   UNL     1       0.960   8.744  20.805  0.00  0.00    +0.000 A 
BRANCH  21  24
ATOM     24  C   UNL     1      -0.633  11.245  18.389  0.00  0.00    +0.000 C 
BRANCH  24  25
ATOM     25  C   UNL     1      -2.073  10.845  18.128  0.00  0.00    +0.000 C 
ATOM     26  O   UNL     1      -2.405   9.700  17.852  0.00  0.00    +0.000 OA
BRANCH  25  27
ATOM     27  O   UNL     1      -2.973  11.855  18.143  0.00  0.00    +0.000 OA
ATOM     28  H   UNL     1      -3.695  11.756  17.493  0.00  0.00    +0.000 HD
ENDBRANCH  25  27
ENDBRANCH  24  25
ENDBRANCH  21  24
ENDBRANCH  17  18
ENDBRANCH  15  17
ENDBRANCH   4  15
TORSDOF 7
ENDMDL
MODEL 9
REMARK VINA RESULT:      -7.3      5.038      8.453
REMARK  Name = 
REMARK  7 active torsions:
REMARK  status: ('A' for Active; 'I' for Inactive)
REMARK    1  A    between atoms: N_4  and  C_5
REMARK    2  A    between atoms: C_8  and  C_9
REMARK    3  A    between atoms: C_9  and  O_11
REMARK    4  A    between atoms: O_11  and  C_12
REMARK    5  A    between atoms: C_15  and  C_16
REMARK    6  A    between atoms: C_16  and  C_17
REMARK    7  A    between atoms: C_17  and  O_19
REMARK                            x       y       z     vdW  Elec       q    Type
REMARK                         _______ _______ _______ _____ _____    ______ ____
ROOT
ATOM      1  C   UNL     1       5.113   4.330  17.303  0.00  0.00    +0.000 A 
ATOM      2  C   UNL     1       5.298   4.649  18.652  0.00  0.00    +0.000 A 
ATOM      3  C   UNL     1       4.206   4.760  19.531  0.00  0.00    +0.000 A 
ATOM      4  C   UNL     1       2.896   4.569  19.075  0.00  0.00    +0.000 A 
ATOM      5  C   UNL     1       2.699   4.245  17.729  0.00  0.00    +0.000 A 
ATOM      6  C   UNL     1       3.795   4.120  16.864  0.00  0.00    +0.000 A 
ENDROOT
BRANCH   1  10
ATOM      7  N   UNL     1       7.381   6.279  16.353  0.00  0.00    +0.000 NA
ATOM      8  C   UNL     1       7.032   5.134  15.890  0.00  0.00    +0.000 C 
ATOM      9  N   UNL     1       7.652   4.711  14.763  0.00  0.00    +0.000 N 
ATOM     10  N   UNL     1       6.157   4.217  16.370  0.00  0.00    +0.000 N 
ATOM     11  H   UNL     1       6.913   6.438  17.244  0.00  0.00    +0.000 HD
ATOM     12  H   UNL     1       8.237   5.467  14.414  0.00  0.00    +0.000 HD
ATOM     13  H   UNL     1       7.013   4.411  14.037  0.00  0.00    +0.000 HD
ATOM     14  H   UNL     1       6.330   3.277  16.040  0.00  0.00    +0.000 HD
ENDBRANCH   1  10
BRANCH   4  15
ATOM     15  C   UNL     1       1.767   4.802  20.026  0.00  0.00    +0.000 C 
ATOM     16  O   UNL     1       0.789   4.072  20.103  0.00  0.00    +0.000 OA
BRANCH  15  17
ATOM     17  O   UNL     1       2.048   5.901  20.828  0.00  0.00    +0.000 OA
BRANCH  17  18
ATOM     18  C   UNL     1       1.856   7.207  20.333  0.00  0.00    +0.000 A 
ATOM     19  C   UNL     1       2.211   7.559  19.033  0.00  0.00    +0.000 A 
ATOM     20  C   UNL     1       1.857   8.813  18.534  0.00  0.00    +0.000 A 
ATOM     21  C   UNL     1       1.121   9.712  19.321  0.00  0.00    +0.000 A 
ATOM     22  C   UNL     1       0.784   9.352  20.634  0.00  0.00    +0.000 A 
ATOM     23  C   UNL     1       1.145   8.097  21.139  0.00  0.00    +0.000 A 
BRANCH  21  24
ATOM     24  C   UNL     1       0.688  11.041  18.740  0.00  0.00    +0.000 C 
BRANCH  24  25
ATOM     25  C   UNL     1       1.775  12.095  18.648  0.00  0.00    +0.000 C 
ATOM     26  O   UNL     1       1.996  12.902  19.541  0.00  0.00    +0.000 OA
BRANCH  25  27
ATOM     27  O   UNL     1       2.447  12.143  17.474  0.00  0.00    +0.000 OA
ATOM     28  H   UNL     1       2.847  13.012  17.278  0.00  0.00    +0.000 HD
ENDBRANCH  25  27
ENDBRANCH  24  25
ENDBRANCH  21  24
ENDBRANCH  17  18
ENDBRANCH  15  17
ENDBRANCH   4  15
TORSDOF 7
ENDMDL
