MODEL 1
REMARK VINA RESULT:      -8.6      0.000      0.000
REMARK  Name = 
REMARK  5 active torsions:
REMARK  status: ('A' for Active; 'I' for Inactive)
REMARK    1  A    between atoms: C_2  and  C_21
REMARK    2  A    between atoms: N_3  and  C_4
REMARK    3  A    between atoms: C_4  and  C_5
REMARK    4  A    between atoms: C_5  and  C_6
REMARK    5  A    between atoms: C_12  and  C_14
REMARK                            x       y       z     vdW  Elec       q    Type
REMARK                         _______ _______ _______ _____ _____    ______ ____
ROOT
ATOM      1  C   UNL     1       7.148   6.302  16.721  0.00  0.00    +0.000 C 
ATOM      2  O   UNL     1       7.746   6.158  15.653  0.00  0.00    +0.000 OA
ATOM      3  N   UNL     1       5.968   5.628  16.995  0.00  0.00    +0.000 N 
ATOM      4  C   UNL     1       5.403   4.702  15.998  0.00  0.00    +0.000 C 
ATOM      5  C   UNL     1       5.002   3.356  16.636  0.00  0.00    +0.000 C 
ATOM      6  N   UNL     1       4.208   3.558  17.855  0.00  0.00    +0.000 N 
ATOM      7  C   UNL     1       3.104   2.735  18.106  0.00  0.00    +0.000 C 
ATOM      8  O   UNL     1       2.861   1.774  17.374  0.00  0.00    +0.000 OA
ATOM      9  C   UNL     1       4.832   4.455  18.830  0.00  0.00    +0.000 C 
ATOM     10  C   UNL     1       5.128   5.809  18.187  0.00  0.00    +0.000 C 
ENDROOT
BRANCH   7  11
ATOM     11  C   UNL     1       2.262   3.030  19.254  0.00  0.00    +0.000 A 
ATOM     12  C   UNL     1       1.232   3.941  19.402  0.00  0.00    +0.000 A 
ATOM     13  C   UNL     1       0.745   3.803  20.725  0.00  0.00    +0.000 A 
ATOM     14  C   UNL     1       1.535   2.852  21.326  0.00  0.00    +0.000 A 
ATOM     15  O   UNL     1       2.476   2.402  20.457  0.00  0.00    +0.000 OA
ENDBRANCH   7  11
BRANCH   1  16
ATOM     16  C   UNL     1       7.745   7.147  17.833  0.00  0.00    +0.000 C 
BRANCH  16  17
ATOM     17  C   UNL     1       7.590   8.638  17.557  0.00  0.00    +0.000 C 
BRANCH  17  20
ATOM     18  O   UNL     1       7.853  11.450  17.602  0.00  0.00    +0.000 OA
ATOM     19  C   UNL     1       8.773  10.764  18.035  0.00  0.00    +0.000 C 
ATOM     20  N   UNL     1       8.752   9.386  18.015  0.00  0.00    +0.000 N 
ATOM     21  H   UNL     1       9.502   8.871  18.463  0.00  0.00    +0.000 HD
BRANCH  19  22
ATOM     22  C   UNL     1       9.990  11.429  18.582  0.00  0.00    +0.000 A 
ATOM     23  C   UNL     1      10.876  11.972  17.634  0.00  0.00    +0.000 A 
ATOM     24  C   UNL     1      12.034  12.643  18.033  0.00  0.00    +0.000 A 
ATOM     25  C   UNL     1      12.318  12.785  19.387  0.00  0.00    +0.000 A 
ATOM     26  C   UNL     1      11.446  12.257  20.340  0.00  0.00    +0.000 A 
ATOM     27  C   UNL     1      10.282  11.581  19.945  0.00  0.00    +0.000 A 
ATOM     28 CL   UNL     1       9.250  11.020  21.214  0.00  0.00    +0.000 Cl
ENDBRANCH  19  22
ENDBRANCH  17  20
ENDBRANCH  16  17
ENDBRANCH   1  16
TORSDOF 5
ENDMDL
MODEL 2
REMARK VINA RESULT:      -7.9      4.989      7.537
REMARK  Name = 
REMARK  5 active torsions:
REMARK  status: ('A' for Active; 'I' for Inactive)
REMARK    1  A    between atoms: C_2  and  C_21
REMARK    2  A    between atoms: N_3  and  C_4
REMARK    3  A    between atoms: C_4  and  C_5
REMARK    4  A    between atoms: C_5  and  C_6
REMARK    5  A    between atoms: C_12  and  C_14
REMARK                            x       y       z     vdW  Elec       q    Type
REMARK                         _______ _______ _______ _____ _____    ______ ____
ROOT
ATOM      1  C   UNL     1       5.466   4.795  18.948  0.00  0.00    +0.000 C 
ATOM      2  O   UNL     1       6.019   5.613  19.685  0.00  0.00    +0.000 OA
ATOM      3  N   UNL     1       5.567   4.869  17.567  0.00  0.00    +0.000 N 
ATOM      4  C   UNL     1       6.362   5.943  16.946  0.00  0.00    +0.000 C 
ATOM      5  C   UNL     1       7.308   5.391  15.859  0.00  0.00    +0.000 C 
ATOM      6  N   UNL     1       6.599   4.495  14.936  0.00  0.00    +0.000 N 
ATOM      7  C   UNL     1       6.868   4.559  13.565  0.00  0.00    +0.000 C 
ATOM      8  O   UNL     1       7.773   5.278  13.138  0.00  0.00    +0.000 OA
ATOM      9  C   UNL     1       5.856   3.423  15.602  0.00  0.00    +0.000 C 
ATOM     10  C   UNL     1       4.862   4.011  16.603  0.00  0.00    +0.000 C 
ENDROOT
BRANCH   7  11
ATOM     11  C   UNL     1       6.068   3.750  12.659  0.00  0.00    +0.000 A 
ATOM     12  C   UNL     1       4.764   3.910  12.225  0.00  0.00    +0.000 A 
ATOM     13  C   UNL     1       4.491   2.840  11.338  0.00  0.00    +0.000 A 
ATOM     14  C   UNL     1       5.622   2.061  11.319  0.00  0.00    +0.000 A 
ATOM     15  O   UNL     1       6.570   2.582  12.139  0.00  0.00    +0.000 OA
ENDBRANCH   7  11
BRANCH   1  16
ATOM     16  C   UNL     1       4.735   3.599  19.532  0.00  0.00    +0.000 C 
BRANCH  16  17
ATOM     17  C   UNL     1       3.405   3.999  20.160  0.00  0.00    +0.000 C 
BRANCH  17  20
ATOM     18  O   UNL     1       1.882   5.197  18.104  0.00  0.00    +0.000 OA
ATOM     19  C   UNL     1       2.360   5.912  18.979  0.00  0.00    +0.000 C 
ATOM     20  N   UNL     1       3.150   5.423  19.997  0.00  0.00    +0.000 N 
ATOM     21  H   UNL     1       3.447   6.047  20.738  0.00  0.00    +0.000 HD
BRANCH  19  22
ATOM     22  C   UNL     1       2.113   7.382  18.940  0.00  0.00    +0.000 A 
ATOM     23  C   UNL     1       2.495   8.041  17.758  0.00  0.00    +0.000 A 
ATOM     24  C   UNL     1       2.285   9.413  17.599  0.00  0.00    +0.000 A 
ATOM     25  C   UNL     1       1.684  10.143  18.620  0.00  0.00    +0.000 A 
ATOM     26  C   UNL     1       1.295   9.501  19.797  0.00  0.00    +0.000 A 
ATOM     27  C   UNL     1       1.504   8.124  19.962  0.00  0.00    +0.000 A 
ATOM     28 CL   UNL     1       0.930   7.430  21.438  0.00  0.00    +0.000 Cl
ENDBRANCH  19  22
ENDBRANCH  17  20
ENDBRANCH  16  17
ENDBRANCH   1  16
TORSDOF 5
ENDMDL
MODEL 3
REMARK VINA RESULT:      -7.9      1.116      1.490
REMARK  Name = 
REMARK  5 active torsions:
REMARK  status: ('A' for Active; 'I' for Inactive)
REMARK    1  A    between atoms: C_2  and  C_21
REMARK    2  A    between atoms: N_3  and  C_4
REMARK    3  A    between atoms: C_4  and  C_5
REMARK    4  A    between atoms: C_5  and  C_6
REMARK    5  A    between atoms: C_12  and  C_14
REMARK                            x       y       z     vdW  Elec       q    Type
REMARK                         _______ _______ _______ _____ _____    ______ ____
ROOT
ATOM      1  C   UNL     1       7.189   6.315  16.747  0.00  0.00    +0.000 C 
ATOM      2  O   UNL     1       7.755   6.163  15.664  0.00  0.00    +0.000 OA
ATOM      3  N   UNL     1       6.037   5.615  17.076  0.00  0.00    +0.000 N 
ATOM      4  C   UNL     1       5.466   4.652  16.118  0.00  0.00    +0.000 C 
ATOM      5  C   UNL     1       5.124   3.310  16.799  0.00  0.00    +0.000 C 
ATOM      6  N   UNL     1       4.364   3.518  18.039  0.00  0.00    +0.000 N 
ATOM      7  C   UNL     1       3.293   2.672  18.344  0.00  0.00    +0.000 C 
ATOM      8  O   UNL     1       3.053   1.687  17.642  0.00  0.00    +0.000 OA
ATOM      9  C   UNL     1       4.994   4.454  18.972  0.00  0.00    +0.000 C 
ATOM     10  C   UNL     1       5.232   5.801  18.291  0.00  0.00    +0.000 C 
ENDROOT
BRANCH   7  11
ATOM     11  C   UNL     1       2.480   2.970  19.512  0.00  0.00    +0.000 A 
ATOM     12  C   UNL     1       1.404   3.825  19.664  0.00  0.00    +0.000 A 
ATOM     13  C   UNL     1       0.979   3.720  21.011  0.00  0.00    +0.000 A 
ATOM     14  C   UNL     1       1.848   2.847  21.619  0.00  0.00    +0.000 A 
ATOM     15  O   UNL     1       2.779   2.412  20.732  0.00  0.00    +0.000 OA
ENDBRANCH   7  11
BRANCH   1  16
ATOM     16  C   UNL     1       7.798   7.201  17.821  0.00  0.00    +0.000 C 
BRANCH  16  17
ATOM     17  C   UNL     1       7.584   8.680  17.521  0.00  0.00    +0.000 C 
BRANCH  17  20
ATOM     18  O   UNL     1       7.954  11.466  17.237  0.00  0.00    +0.000 OA
ATOM     19  C   UNL     1       8.558  10.878  18.128  0.00  0.00    +0.000 C 
ATOM     20  N   UNL     1       8.473   9.515  18.316  0.00  0.00    +0.000 N 
ATOM     21  H   UNL     1       8.927   9.095  19.120  0.00  0.00    +0.000 HD
BRANCH  19  22
ATOM     22  C   UNL     1       9.454  11.647  19.038  0.00  0.00    +0.000 A 
ATOM     23  C   UNL     1       9.251  11.451  20.416  0.00  0.00    +0.000 A 
ATOM     24  C   UNL     1      10.051  12.098  21.361  0.00  0.00    +0.000 A 
ATOM     25  C   UNL     1      11.071  12.945  20.938  0.00  0.00    +0.000 A 
ATOM     26  C   UNL     1      11.288  13.145  19.575  0.00  0.00    +0.000 A 
ATOM     27  C   UNL     1      10.488  12.499  18.622  0.00  0.00    +0.000 A 
ATOM     28 CL   UNL     1      10.887  12.779  16.962  0.00  0.00    +0.000 Cl
ENDBRANCH  19  22
ENDBRANCH  17  20
ENDBRANCH  16  17
ENDBRANCH   1  16
TORSDOF 5
ENDMDL
MODEL 4
REMARK VINA RESULT:      -7.9      1.521      1.886
REMARK  Name = 
REMARK  5 active torsions:
REMARK  status: ('A' for Active; 'I' for Inactive)
REMARK    1  A    between atoms: C_2  and  C_21
REMARK    2  A    between atoms: N_3  and  C_4
REMARK    3  A    between atoms: C_4  and  C_5
REMARK    4  A    between atoms: C_5  and  C_6
REMARK    5  A    between atoms: C_12  and  C_14
REMARK                            x       y       z     vdW  Elec       q    Type
REMARK                         _______ _______ _______ _____ _____    ______ ____
ROOT
ATOM      1  C   UNL     1       7.203   6.573  16.992  0.00  0.00    +0.000 C 
ATOM      2  O   UNL     1       7.805   6.477  15.921  0.00  0.00    +0.000 OA
ATOM      3  N   UNL     1       6.076   5.814  17.268  0.00  0.00    +0.000 N 
ATOM      4  C   UNL     1       5.575   4.853  16.269  0.00  0.00    +0.000 C 
ATOM      5  C   UNL     1       5.277   3.479  16.904  0.00  0.00    +0.000 C 
ATOM      6  N   UNL     1       4.475   3.618  18.127  0.00  0.00    +0.000 N 
ATOM      7  C   UNL     1       3.435   2.716  18.379  0.00  0.00    +0.000 C 
ATOM      8  O   UNL     1       3.259   1.742  17.645  0.00  0.00    +0.000 OA
ATOM      9  C   UNL     1       5.036   4.554  19.103  0.00  0.00    +0.000 C 
ATOM     10  C   UNL     1       5.231   5.929  18.465  0.00  0.00    +0.000 C 
ENDROOT
BRANCH   7  11
ATOM     11  C   UNL     1       2.579   2.944  19.532  0.00  0.00    +0.000 A 
ATOM     12  C   UNL     1       1.375   3.617  19.638  0.00  0.00    +0.000 A 
ATOM     13  C   UNL     1       0.967   3.523  20.991  0.00  0.00    +0.000 A 
ATOM     14  C   UNL     1       1.966   2.843  21.645  0.00  0.00    +0.000 A 
ATOM     15  O   UNL     1       2.960   2.517  20.781  0.00  0.00    +0.000 OA
ENDBRANCH   7  11
BRANCH   1  16
ATOM     16  C   UNL     1       7.742   7.455  18.105  0.00  0.00    +0.000 C 
BRANCH  16  17
ATOM     17  C   UNL     1       8.351   8.742  17.562  0.00  0.00    +0.000 C 
BRANCH  17  20
ATOM     18  O   UNL     1      10.138  10.930  17.617  0.00  0.00    +0.000 OA
ATOM     19  C   UNL     1       9.306  10.824  18.512  0.00  0.00    +0.000 C 
ATOM     20  N   UNL     1       8.422   9.769  18.591  0.00  0.00    +0.000 N 
ATOM     21  H   UNL     1       7.702   9.778  19.305  0.00  0.00    +0.000 HD
BRANCH  19  22
ATOM     22  C   UNL     1       9.253  11.854  19.589  0.00  0.00    +0.000 A 
ATOM     23  C   UNL     1       9.564  11.408  20.886  0.00  0.00    +0.000 A 
ATOM     24  C   UNL     1       9.574  12.291  21.968  0.00  0.00    +0.000 A 
ATOM     25  C   UNL     1       9.279  13.635  21.765  0.00  0.00    +0.000 A 
ATOM     26  C   UNL     1       8.973  14.094  20.483  0.00  0.00    +0.000 A 
ATOM     27  C   UNL     1       8.961  13.211  19.393  0.00  0.00    +0.000 A 
ATOM     28 CL   UNL     1       8.624  13.904  17.845  0.00  0.00    +0.000 Cl
ENDBRANCH  19  22
ENDBRANCH  17  20
ENDBRANCH  16  17
ENDBRANCH   1  16
TORSDOF 5
ENDMDL
MODEL 5
REMARK VINA RESULT:      -7.9      5.088      7.663
REMARK  Name = 
REMARK  5 active torsions:
REMARK  status: ('A' for Active; 'I' for Inactive)
REMARK    1  A    between atoms: C_2  and  C_21
REMARK    2  A    between atoms: N_3  and  C_4
REMARK    3  A    between atoms: C_4  and  C_5
REMARK    4  A    between atoms: C_5  and  C_6
REMARK    5  A    between atoms: C_12  and  C_14
REMARK                            x       y       z     vdW  Elec       q    Type
REMARK                         _______ _______ _______ _____ _____    ______ ____
ROOT
ATOM      1  C   UNL     1       5.234   4.721  18.932  0.00  0.00    +0.000 C 
ATOM      2  O   UNL     1       5.748   5.538  19.697  0.00  0.00    +0.000 OA
ATOM      3  N   UNL     1       5.398   4.800  17.558  0.00  0.00    +0.000 N 
ATOM      4  C   UNL     1       6.217   5.881  16.978  0.00  0.00    +0.000 C 
ATOM      5  C   UNL     1       7.215   5.339  15.935  0.00  0.00    +0.000 C 
ATOM      6  N   UNL     1       6.553   4.442  14.977  0.00  0.00    +0.000 N 
ATOM      7  C   UNL     1       6.886   4.513  13.620  0.00  0.00    +0.000 C 
ATOM      8  O   UNL     1       7.806   5.238  13.238  0.00  0.00    +0.000 OA
ATOM      9  C   UNL     1       5.787   3.364  15.603  0.00  0.00    +0.000 C 
ATOM     10  C   UNL     1       4.744   3.943  16.560  0.00  0.00    +0.000 C 
ENDROOT
BRANCH   7  11
ATOM     11  C   UNL     1       6.133   3.704  12.675  0.00  0.00    +0.000 A 
ATOM     12  C   UNL     1       6.534   2.647  11.878  0.00  0.00    +0.000 A 
ATOM     13  C   UNL     1       5.393   2.215  11.159  0.00  0.00    +0.000 A 
ATOM     14  C   UNL     1       4.372   3.062  11.518  0.00  0.00    +0.000 A 
ATOM     15  O   UNL     1       4.816   3.986  12.408  0.00  0.00    +0.000 OA
ENDBRANCH   7  11
BRANCH   1  16
ATOM     16  C   UNL     1       4.483   3.518  19.478  0.00  0.00    +0.000 C 
BRANCH  16  17
ATOM     17  C   UNL     1       3.012   3.834  19.726  0.00  0.00    +0.000 C 
BRANCH  17  20
ATOM     18  O   UNL     1       1.961   5.932  21.298  0.00  0.00    +0.000 OA
ATOM     19  C   UNL     1       2.198   6.144  20.113  0.00  0.00    +0.000 C 
ATOM     20  N   UNL     1       2.672   5.170  19.260  0.00  0.00    +0.000 N 
ATOM     21  H   UNL     1       2.930   5.424  18.313  0.00  0.00    +0.000 HD
BRANCH  19  22
ATOM     22  C   UNL     1       1.939   7.497  19.544  0.00  0.00    +0.000 A 
ATOM     23  C   UNL     1       2.429   7.724  18.245  0.00  0.00    +0.000 A 
ATOM     24  C   UNL     1       2.220   8.946  17.601  0.00  0.00    +0.000 A 
ATOM     25  C   UNL     1       1.511   9.954  18.246  0.00  0.00    +0.000 A 
ATOM     26  C   UNL     1       1.014   9.742  19.532  0.00  0.00    +0.000 A 
ATOM     27  C   UNL     1       1.222   8.517  20.184  0.00  0.00    +0.000 A 
ATOM     28 CL   UNL     1       0.512   8.349  21.752  0.00  0.00    +0.000 Cl
ENDBRANCH  19  22
ENDBRANCH  17  20
ENDBRANCH  16  17
ENDBRANCH   1  16
TORSDOF 5
ENDMDL
MODEL 6
REMARK VINA RESULT:      -7.9      4.985      7.889
REMARK  Name = 
REMARK  5 active torsions:
REMARK  status: ('A' for Active; 'I' for Inactive)
REMARK    1  A    between atoms: C_2  and  C_21
REMARK    2  A    between atoms: N_3  and  C_4
REMARK    3  A    between atoms: C_4  and  C_5
REMARK    4  A    between atoms: C_5  and  C_6
REMARK    5  A    between atoms: C_12  and  C_14
REMARK                            x       y       z     vdW  Elec       q    Type
REMARK                         _______ _______ _______ _____ _____    ______ ____
ROOT
ATOM      1  C   UNL     1       5.345   4.739  18.950  0.00  0.00    +0.000 C 
ATOM      2  O   UNL     1       5.885   5.551  19.703  0.00  0.00    +0.000 OA
ATOM      3  N   UNL     1       5.471   4.822  17.572  0.00  0.00    +0.000 N 
ATOM      4  C   UNL     1       6.277   5.901  16.973  0.00  0.00    +0.000 C 
ATOM      5  C   UNL     1       7.242   5.358  15.899  0.00  0.00    +0.000 C 
ATOM      6  N   UNL     1       6.550   4.467  14.958  0.00  0.00    +0.000 N 
ATOM      7  C   UNL     1       6.844   4.541  13.592  0.00  0.00    +0.000 C 
ATOM      8  O   UNL     1       7.756   5.263  13.186  0.00  0.00    +0.000 OA
ATOM      9  C   UNL     1       5.797   3.390  15.603  0.00  0.00    +0.000 C 
ATOM     10  C   UNL     1       4.784   3.971  16.590  0.00  0.00    +0.000 C 
ENDROOT
BRANCH   7  11
ATOM     11  C   UNL     1       6.061   3.738  12.667  0.00  0.00    +0.000 A 
ATOM     12  C   UNL     1       4.765   3.900  12.210  0.00  0.00    +0.000 A 
ATOM     13  C   UNL     1       4.508   2.837  11.311  0.00  0.00    +0.000 A 
ATOM     14  C   UNL     1       5.640   2.058  11.306  0.00  0.00    +0.000 A 
ATOM     15  O   UNL     1       6.572   2.574  12.147  0.00  0.00    +0.000 OA
ENDBRANCH   7  11
BRANCH   1  16
ATOM     16  C   UNL     1       4.605   3.538  19.513  0.00  0.00    +0.000 C 
BRANCH  16  17
ATOM     17  C   UNL     1       3.573   3.947  20.558  0.00  0.00    +0.000 C 
BRANCH  17  20
ATOM     18  O   UNL     1       0.920   4.916  20.545  0.00  0.00    +0.000 OA
ATOM     19  C   UNL     1       1.842   5.718  20.430  0.00  0.00    +0.000 C 
ATOM     20  N   UNL     1       3.165   5.333  20.384  0.00  0.00    +0.000 N 
ATOM     21  H   UNL     1       3.888   6.044  20.374  0.00  0.00    +0.000 HD
BRANCH  19  22
ATOM     22  C   UNL     1       1.539   7.171  20.302  0.00  0.00    +0.000 A 
ATOM     23  C   UNL     1       0.897   7.768  21.402  0.00  0.00    +0.000 A 
ATOM     24  C   UNL     1       0.589   9.131  21.403  0.00  0.00    +0.000 A 
ATOM     25  C   UNL     1       0.928   9.916  20.306  0.00  0.00    +0.000 A 
ATOM     26  C   UNL     1       1.570   9.340  19.210  0.00  0.00    +0.000 A 
ATOM     27  C   UNL     1       1.880   7.972  19.202  0.00  0.00    +0.000 A 
ATOM     28 CL   UNL     1       2.727   7.381  17.814  0.00  0.00    +0.000 Cl
ENDBRANCH  19  22
ENDBRANCH  17  20
ENDBRANCH  16  17
ENDBRANCH   1  16
TORSDOF 5
ENDMDL
MODEL 7
REMARK VINA RESULT:      -7.8      1.351      1.565
REMARK  Name = 
REMARK  5 active torsions:
REMARK  status: ('A' for Active; 'I' for Inactive)
REMARK    1  A    between atoms: C_2  and  C_21
REMARK    2  A    between atoms: N_3  and  C_4
REMARK    3  A    between atoms: C_4  and  C_5
REMARK    4  A    between atoms: C_5  and  C_6
REMARK    5  A    between atoms: C_12  and  C_14
REMARK                            x       y       z     vdW  Elec       q    Type
REMARK                         _______ _______ _______ _____ _____    ______ ____
ROOT
ATOM      1  C   UNL     1       6.897   6.876  16.845  0.00  0.00    +0.000 C 
ATOM      2  O   UNL     1       7.759   6.676  15.987  0.00  0.00    +0.000 OA
ATOM      3  N   UNL     1       5.892   5.956  17.100  0.00  0.00    +0.000 N 
ATOM      4  C   UNL     1       5.843   4.694  16.340  0.00  0.00    +0.000 C 
ATOM      5  C   UNL     1       5.643   3.480  17.270  0.00  0.00    +0.000 C 
ATOM      6  N   UNL     1       4.544   3.708  18.219  0.00  0.00    +0.000 N 
ATOM      7  C   UNL     1       3.653   2.669  18.509  0.00  0.00    +0.000 C 
ATOM      8  O   UNL     1       3.848   1.535  18.065  0.00  0.00    +0.000 OA
ATOM      9  C   UNL     1       4.661   4.955  18.975  0.00  0.00    +0.000 C 
ATOM     10  C   UNL     1       4.763   6.145  18.021  0.00  0.00    +0.000 C 
ENDROOT
BRANCH   7  11
ATOM     11  C   UNL     1       2.505   2.951  19.354  0.00  0.00    +0.000 A 
ATOM     12  C   UNL     1       1.344   3.654  19.088  0.00  0.00    +0.000 A 
ATOM     13  C   UNL     1       0.555   3.610  20.263  0.00  0.00    +0.000 A 
ATOM     14  C   UNL     1       1.298   2.927  21.197  0.00  0.00    +0.000 A 
ATOM     15  O   UNL     1       2.491   2.553  20.669  0.00  0.00    +0.000 OA
ENDBRANCH   7  11
BRANCH   1  16
ATOM     16  C   UNL     1       6.968   8.100  17.741  0.00  0.00    +0.000 C 
BRANCH  16  17
ATOM     17  C   UNL     1       8.331   8.235  18.409  0.00  0.00    +0.000 C 
BRANCH  17  20
ATOM     18  O   UNL     1       9.147  10.264  20.197  0.00  0.00    +0.000 OA
ATOM     19  C   UNL     1       9.373  10.406  19.000  0.00  0.00    +0.000 C 
ATOM     20  N   UNL     1       8.975   9.490  18.050  0.00  0.00    +0.000 N 
ATOM     21  H   UNL     1       9.263   9.618  17.086  0.00  0.00    +0.000 HD
BRANCH  19  22
ATOM     22  C   UNL     1      10.079  11.631  18.527  0.00  0.00    +0.000 A 
ATOM     23  C   UNL     1      11.441  11.728  18.864  0.00  0.00    +0.000 A 
ATOM     24  C   UNL     1      12.209  12.818  18.450  0.00  0.00    +0.000 A 
ATOM     25  C   UNL     1      11.626  13.824  17.685  0.00  0.00    +0.000 A 
ATOM     26  C   UNL     1      10.277  13.739  17.338  0.00  0.00    +0.000 A 
ATOM     27  C   UNL     1       9.500  12.647  17.752  0.00  0.00    +0.000 A 
ATOM     28 CL   UNL     1       7.857  12.621  17.214  0.00  0.00    +0.000 Cl
ENDBRANCH  19  22
ENDBRANCH  17  20
ENDBRANCH  16  17
ENDBRANCH   1  16
TORSDOF 5
ENDMDL
MODEL 8
REMARK VINA RESULT:      -7.6      4.012      6.822
REMARK  Name = 
REMARK  5 active torsions:
REMARK  status: ('A' for Active; 'I' for Inactive)
REMARK    1  A    between atoms: C_2  and  C_21
REMARK    2  A    between atoms: N_3  and  C_4
REMARK    3  A    between atoms: C_4  and  C_5
REMARK    4  A    between atoms: C_5  and  C_6
REMARK    5  A    between atoms: C_12  and  C_14
REMARK                            x       y       z     vdW  Elec       q    Type
REMARK                         _______ _______ _______ _____ _____    ______ ____
ROOT
ATOM      1  C   UNL     1       2.028   2.634  18.709  0.00  0.00    +0.000 C 
ATOM      2  O   UNL     1       1.913   1.700  19.504  0.00  0.00    +0.000 OA
ATOM      3  N   UNL     1       1.645   3.925  19.037  0.00  0.00    +0.000 N 
ATOM      4  C   UNL     1       1.093   4.209  20.374  0.00  0.00    +0.000 C 
ATOM      5  C   UNL     1       1.757   5.448  21.010  0.00  0.00    +0.000 C 
ATOM      6  N   UNL     1       1.792   6.578  20.070  0.00  0.00    +0.000 N 
ATOM      7  C   UNL     1       1.515   7.870  20.530  0.00  0.00    +0.000 C 
ATOM      8  O   UNL     1       1.354   8.085  21.733  0.00  0.00    +0.000 OA
ATOM      9  C   UNL     1       2.385   6.253  18.772  0.00  0.00    +0.000 C 
ATOM     10  C   UNL     1       1.642   5.081  18.130  0.00  0.00    +0.000 C 
ENDROOT
BRANCH   7  11
ATOM     11  C   UNL     1       1.436   8.952  19.563  0.00  0.00    +0.000 A 
ATOM     12  C   UNL     1       0.462   9.915  19.369  0.00  0.00    +0.000 A 
ATOM     13  C   UNL     1       0.896  10.731  18.297  0.00  0.00    +0.000 A 
ATOM     14  C   UNL     1       2.083  10.193  17.862  0.00  0.00    +0.000 A 
ATOM     15  O   UNL     1       2.403   9.098  18.598  0.00  0.00    +0.000 OA
ENDBRANCH   7  11
BRANCH   1  16
ATOM     16  C   UNL     1       2.701   2.425  17.363  0.00  0.00    +0.000 C 
BRANCH  16  17
ATOM     17  C   UNL     1       4.197   2.174  17.512  0.00  0.00    +0.000 C 
BRANCH  17  20
ATOM     18  O   UNL     1       5.172   3.720  19.666  0.00  0.00    +0.000 OA
ATOM     19  C   UNL     1       5.423   4.079  18.520  0.00  0.00    +0.000 C 
ATOM     20  N   UNL     1       4.955   3.412  17.408  0.00  0.00    +0.000 N 
ATOM     21  H   UNL     1       5.264   3.705  16.488  0.00  0.00    +0.000 HD
BRANCH  19  22
ATOM     22  C   UNL     1       6.241   5.305  18.298  0.00  0.00    +0.000 A 
ATOM     23  C   UNL     1       7.327   5.490  19.172  0.00  0.00    +0.000 A 
ATOM     24  C   UNL     1       8.178   6.590  19.040  0.00  0.00    +0.000 A 
ATOM     25  C   UNL     1       7.958   7.515  18.025  0.00  0.00    +0.000 A 
ATOM     26  C   UNL     1       6.888   7.343  17.146  0.00  0.00    +0.000 A 
ATOM     27  C   UNL     1       6.029   6.241  17.275  0.00  0.00    +0.000 A 
ATOM     28 CL   UNL     1       4.773   6.102  16.095  0.00  0.00    +0.000 Cl
ENDBRANCH  19  22
ENDBRANCH  17  20
ENDBRANCH  16  17
ENDBRANCH   1  16
TORSDOF 5
ENDMDL
MODEL 9
REMARK VINA RESULT:      -7.6      1.451      1.634
REMARK  Name = 
REMARK  5 active torsions:
REMARK  status: ('A' for Active; 'I' for Inactive)
REMARK    1  A    between atoms: C_2  and  C_21
REMARK    2  A    between atoms: N_3  and  C_4
REMARK    3  A    between atoms: C_4  and  C_5
REMARK    4  A    between atoms: C_5  and  C_6
REMARK    5  A    between atoms: C_12  and  C_14
REMARK                            x       y       z     vdW  Elec       q    Type
REMARK                         _______ _______ _______ _____ _____    ______ ____
ROOT
ATOM      1  C   UNL     1       6.871   6.830  16.835  0.00  0.00    +0.000 C 
ATOM      2  O   UNL     1       7.735   6.617  15.983  0.00  0.00    +0.000 OA
ATOM      3  N   UNL     1       5.868   5.911  17.105  0.00  0.00    +0.000 N 
ATOM      4  C   UNL     1       5.824   4.635  16.370  0.00  0.00    +0.000 C 
ATOM      5  C   UNL     1       5.627   3.438  17.322  0.00  0.00    +0.000 C 
ATOM      6  N   UNL     1       4.526   3.680  18.265  0.00  0.00    +0.000 N 
ATOM      7  C   UNL     1       3.638   2.643  18.573  0.00  0.00    +0.000 C 
ATOM      8  O   UNL     1       3.837   1.502  18.151  0.00  0.00    +0.000 OA
ATOM      9  C   UNL     1       4.638   4.942  18.998  0.00  0.00    +0.000 C 
ATOM     10  C   UNL     1       4.737   6.113  18.021  0.00  0.00    +0.000 C 
ENDROOT
BRANCH   7  11
ATOM     11  C   UNL     1       2.487   2.938  19.411  0.00  0.00    +0.000 A 
ATOM     12  C   UNL     1       1.356   3.691  19.153  0.00  0.00    +0.000 A 
ATOM     13  C   UNL     1       0.548   3.635  20.314  0.00  0.00    +0.000 A 
ATOM     14  C   UNL     1       1.251   2.895  21.234  0.00  0.00    +0.000 A 
ATOM     15  O   UNL     1       2.439   2.496  20.711  0.00  0.00    +0.000 OA
ENDBRANCH   7  11
BRANCH   1  16
ATOM     16  C   UNL     1       6.936   8.071  17.708  0.00  0.00    +0.000 C 
BRANCH  16  17
ATOM     17  C   UNL     1       8.357   8.361  18.174  0.00  0.00    +0.000 C 
BRANCH  17  20
ATOM     18  O   UNL     1       9.456  10.131  20.083  0.00  0.00    +0.000 OA
ATOM     19  C   UNL     1       9.282  10.532  18.937  0.00  0.00    +0.000 C 
ATOM     20  N   UNL     1       8.714   9.755  17.950  0.00  0.00    +0.000 N 
ATOM     21  H   UNL     1       8.673  10.109  17.001  0.00  0.00    +0.000 HD
BRANCH  19  22
ATOM     22  C   UNL     1       9.665  11.928  18.583  0.00  0.00    +0.000 A 
ATOM     23  C   UNL     1       8.615  12.775  18.185  0.00  0.00    +0.000 A 
ATOM     24  C   UNL     1       8.853  14.112  17.857  0.00  0.00    +0.000 A 
ATOM     25  C   UNL     1      10.145  14.621  17.930  0.00  0.00    +0.000 A 
ATOM     26  C   UNL     1      11.197  13.795  18.329  0.00  0.00    +0.000 A 
ATOM     27  C   UNL     1      10.964  12.452  18.658  0.00  0.00    +0.000 A 
ATOM     28 CL   UNL     1      12.333  11.541  19.193  0.00  0.00    +0.000 Cl
ENDBRANCH  19  22
ENDBRANCH  17  20
ENDBRANCH  16  17
ENDBRANCH   1  16
TORSDOF 5
ENDMDL
