MODEL 1
REMARK VINA RESULT:      -8.6      0.000      0.000
REMARK  Name = 
REMARK  6 active torsions:
REMARK  status: ('A' for Active; 'I' for Inactive)
REMARK    1  A    between atoms: C_1  and  N_2
REMARK    2  A    between atoms: C_3  and  C_5
REMARK    3  A    between atoms: C_6  and  C_7
REMARK    4  A    between atoms: C_18  and  C_19
REMARK    5  A    between atoms: C_22  and  C_23
REMARK    6  A    between atoms: C_23  and  O_25
REMARK                            x       y       z     vdW  Elec       q    Type
REMARK                         _______ _______ _______ _____ _____    ______ ____
ROOT
ATOM      1  C   UNL     1       2.666   6.806  18.967  0.00  0.00    +0.000 A 
ATOM      2  C   UNL     1       3.403   6.888  17.790  0.00  0.00    +0.000 A 
ATOM      3  O   UNL     1       3.268   8.137  17.245  0.00  0.00    +0.000 OA
ATOM      4  C   UNL     1       2.430   8.845  18.040  0.00  0.00    +0.000 A 
ATOM      5  C   UNL     1       2.037  10.162  17.831  0.00  0.00    +0.000 A 
ATOM      6  C   UNL     1       1.156  10.713  18.775  0.00  0.00    +0.000 A 
ATOM      7  C   UNL     1       0.680   9.986  19.882  0.00  0.00    +0.000 A 
ATOM      8  C   UNL     1       1.124   8.655  20.038  0.00  0.00    +0.000 A 
ATOM      9  C   UNL     1       2.008   8.071  19.108  0.00  0.00    +0.000 A 
ENDROOT
BRANCH   2  10
ATOM     10  C   UNL     1       4.201   5.958  16.991  0.00  0.00    +0.000 A 
ATOM     11  C   UNL     1       4.034   4.569  17.124  0.00  0.00    +0.000 A 
ATOM     12  C   UNL     1       4.754   3.677  16.326  0.00  0.00    +0.000 A 
ATOM     13  C   UNL     1       5.640   4.171  15.380  0.00  0.00    +0.000 A 
ATOM     14  F   UNL     1       6.314   3.317  14.599  0.00  0.00    +0.000 F 
ATOM     15  C   UNL     1       5.830   5.538  15.226  0.00  0.00    +0.000 A 
ATOM     16  C   UNL     1       5.113   6.429  16.031  0.00  0.00    +0.000 A 
ENDBRANCH   2  10
BRANCH   7  17
ATOM     17  C   UNL     1      -0.248  10.589  20.871  0.00  0.00    +0.000 A 
ATOM     18  C   UNL     1      -1.118  11.635  20.520  0.00  0.00    +0.000 A 
ATOM     19  C   UNL     1      -1.979  12.211  21.461  0.00  0.00    +0.000 A 
ATOM     20  C   UNL     1      -2.001  11.744  22.778  0.00  0.00    +0.000 A 
ATOM     21  C   UNL     1      -1.179  10.676  23.140  0.00  0.00    +0.000 A 
ATOM     22  C   UNL     1      -0.304  10.120  22.199  0.00  0.00    +0.000 A 
BRANCH  20  23
ATOM     23  C   UNL     1      -2.938  12.385  23.736  0.00  0.00    +0.000 C 
ATOM     24  O   UNL     1      -3.890  11.797  24.220  0.00  0.00    +0.000 OA
BRANCH  23  25
ATOM     25  O   UNL     1      -2.670  13.682  23.990  0.00  0.00    +0.000 OA
ATOM     26  H   UNL     1      -1.897  13.847  24.559  0.00  0.00    +0.000 HD
ENDBRANCH  23  25
ENDBRANCH  20  23
ENDBRANCH   7  17
BRANCH   1  29
ATOM     27  C   UNL     1       1.201   3.902  20.792  0.00  0.00    +0.000 C 
ATOM     28  N   UNL     1       1.371   5.094  20.003  0.00  0.00    +0.000 N 
ATOM     29  C   UNL     1       2.621   5.662  19.861  0.00  0.00    +0.000 C 
ATOM     30  O   UNL     1       3.613   5.221  20.426  0.00  0.00    +0.000 OA
ATOM     31  H   UNL     1       0.638   5.364  19.362  0.00  0.00    +0.000 HD
ENDBRANCH   1  29
TORSDOF 5
ENDMDL
MODEL 2
REMARK VINA RESULT:      -8.5      0.142      1.274
REMARK  Name = 
REMARK  6 active torsions:
REMARK  status: ('A' for Active; 'I' for Inactive)
REMARK    1  A    between atoms: C_1  and  N_2
REMARK    2  A    between atoms: C_3  and  C_5
REMARK    3  A    between atoms: C_6  and  C_7
REMARK    4  A    between atoms: C_18  and  C_19
REMARK    5  A    between atoms: C_22  and  C_23
REMARK    6  A    between atoms: C_23  and  O_25
REMARK                            x       y       z     vdW  Elec       q    Type
REMARK                         _______ _______ _______ _____ _____    ______ ____
ROOT
ATOM      1  C   UNL     1       2.573   6.842  18.967  0.00  0.00    +0.000 A 
ATOM      2  C   UNL     1       3.336   6.921  17.806  0.00  0.00    +0.000 A 
ATOM      3  O   UNL     1       3.247   8.181  17.278  0.00  0.00    +0.000 OA
ATOM      4  C   UNL     1       2.413   8.901  18.067  0.00  0.00    +0.000 A 
ATOM      5  C   UNL     1       2.062  10.231  17.870  0.00  0.00    +0.000 A 
ATOM      6  C   UNL     1       1.178  10.793  18.804  0.00  0.00    +0.000 A 
ATOM      7  C   UNL     1       0.659  10.063  19.891  0.00  0.00    +0.000 A 
ATOM      8  C   UNL     1       1.062   8.718  20.035  0.00  0.00    +0.000 A 
ATOM      9  C   UNL     1       1.949   8.123  19.114  0.00  0.00    +0.000 A 
ENDROOT
BRANCH   2  10
ATOM     10  C   UNL     1       4.124   5.980  17.009  0.00  0.00    +0.000 A 
ATOM     11  C   UNL     1       5.050   6.442  16.059  0.00  0.00    +0.000 A 
ATOM     12  C   UNL     1       5.844   5.550  15.334  0.00  0.00    +0.000 A 
ATOM     13  C   UNL     1       5.724   4.187  15.564  0.00  0.00    +0.000 A 
ATOM     14  F   UNL     1       6.501   3.334  14.885  0.00  0.00    +0.000 F 
ATOM     15  C   UNL     1       4.815   3.700  16.494  0.00  0.00    +0.000 A 
ATOM     16  C   UNL     1       4.016   4.594  17.213  0.00  0.00    +0.000 A 
ENDBRANCH   2  10
BRANCH   7  17
ATOM     17  C   UNL     1      -0.272  10.677  20.870  0.00  0.00    +0.000 A 
ATOM     18  C   UNL     1      -0.330  10.240  22.204  0.00  0.00    +0.000 A 
ATOM     19  C   UNL     1      -1.222  10.812  23.119  0.00  0.00    +0.000 A 
ATOM     20  C   UNL     1      -2.072  11.849  22.723  0.00  0.00    +0.000 A 
ATOM     21  C   UNL     1      -2.001  12.331  21.415  0.00  0.00    +0.000 A 
ATOM     22  C   UNL     1      -1.123  11.738  20.501  0.00  0.00    +0.000 A 
BRANCH  20  23
ATOM     23  C   UNL     1      -2.994  12.425  23.734  0.00  0.00    +0.000 C 
ATOM     24  O   UNL     1      -3.923  11.796  24.213  0.00  0.00    +0.000 OA
BRANCH  23  25
ATOM     25  O   UNL     1      -2.743  13.713  24.045  0.00  0.00    +0.000 OA
ATOM     26  H   UNL     1      -2.192  13.854  24.835  0.00  0.00    +0.000 HD
ENDBRANCH  23  25
ENDBRANCH  20  23
ENDBRANCH   7  17
BRANCH   1  29
ATOM     27  C   UNL     1       1.050   3.844  20.579  0.00  0.00    +0.000 C 
ATOM     28  N   UNL     1       1.253   5.053  19.824  0.00  0.00    +0.000 N 
ATOM     29  C   UNL     1       2.479   5.687  19.842  0.00  0.00    +0.000 C 
ATOM     30  O   UNL     1       3.415   5.292  20.525  0.00  0.00    +0.000 OA
ATOM     31  H   UNL     1       0.592   5.292  19.098  0.00  0.00    +0.000 HD
ENDBRANCH   1  29
TORSDOF 5
ENDMDL
MODEL 3
REMARK VINA RESULT:      -8.5      0.148      1.084
REMARK  Name = 
REMARK  6 active torsions:
REMARK  status: ('A' for Active; 'I' for Inactive)
REMARK    1  A    between atoms: C_1  and  N_2
REMARK    2  A    between atoms: C_3  and  C_5
REMARK    3  A    between atoms: C_6  and  C_7
REMARK    4  A    between atoms: C_18  and  C_19
REMARK    5  A    between atoms: C_22  and  C_23
REMARK    6  A    between atoms: C_23  and  O_25
REMARK                            x       y       z     vdW  Elec       q    Type
REMARK                         _______ _______ _______ _____ _____    ______ ____
ROOT
ATOM      1  C   UNL     1       2.567   6.864  18.969  0.00  0.00    +0.000 A 
ATOM      2  C   UNL     1       3.321   6.939  17.803  0.00  0.00    +0.000 A 
ATOM      3  O   UNL     1       3.222   8.196  17.266  0.00  0.00    +0.000 OA
ATOM      4  C   UNL     1       2.390   8.916  18.057  0.00  0.00    +0.000 A 
ATOM      5  C   UNL     1       2.031  10.243  17.854  0.00  0.00    +0.000 A 
ATOM      6  C   UNL     1       1.150  10.807  18.790  0.00  0.00    +0.000 A 
ATOM      7  C   UNL     1       0.643  10.082  19.886  0.00  0.00    +0.000 A 
ATOM      8  C   UNL     1       1.054   8.740  20.036  0.00  0.00    +0.000 A 
ATOM      9  C   UNL     1       1.937   8.143  19.112  0.00  0.00    +0.000 A 
ENDROOT
BRANCH   2  10
ATOM     10  C   UNL     1       4.109   5.997  17.006  0.00  0.00    +0.000 A 
ATOM     11  C   UNL     1       5.040   6.457  16.061  0.00  0.00    +0.000 A 
ATOM     12  C   UNL     1       5.833   5.564  15.337  0.00  0.00    +0.000 A 
ATOM     13  C   UNL     1       5.706   4.201  15.563  0.00  0.00    +0.000 A 
ATOM     14  F   UNL     1       6.482   3.346  14.885  0.00  0.00    +0.000 F 
ATOM     15  C   UNL     1       4.791   3.715  16.489  0.00  0.00    +0.000 A 
ATOM     16  C   UNL     1       3.994   4.611  17.207  0.00  0.00    +0.000 A 
ENDBRANCH   2  10
BRANCH   7  17
ATOM     17  C   UNL     1      -0.284  10.698  20.867  0.00  0.00    +0.000 A 
ATOM     18  C   UNL     1      -1.183  11.712  20.494  0.00  0.00    +0.000 A 
ATOM     19  C   UNL     1      -2.043  12.300  21.428  0.00  0.00    +0.000 A 
ATOM     20  C   UNL     1      -2.035  11.879  22.760  0.00  0.00    +0.000 A 
ATOM     21  C   UNL     1      -1.184  10.842  23.145  0.00  0.00    +0.000 A 
ATOM     22  C   UNL     1      -0.310  10.274  22.211  0.00  0.00    +0.000 A 
BRANCH  20  23
ATOM     23  C   UNL     1      -2.972  12.532  23.709  0.00  0.00    +0.000 C 
ATOM     24  O   UNL     1      -2.815  13.673  24.110  0.00  0.00    +0.000 OA
BRANCH  23  25
ATOM     25  O   UNL     1      -3.986  11.743  24.121  0.00  0.00    +0.000 OA
ATOM     26  H   UNL     1      -4.348  11.951  25.001  0.00  0.00    +0.000 HD
ENDBRANCH  23  25
ENDBRANCH  20  23
ENDBRANCH   7  17
BRANCH   1  29
ATOM     27  C   UNL     1       1.055   3.894  20.642  0.00  0.00    +0.000 C 
ATOM     28  N   UNL     1       1.251   5.096  19.875  0.00  0.00    +0.000 N 
ATOM     29  C   UNL     1       2.484   5.715  19.853  0.00  0.00    +0.000 C 
ATOM     30  O   UNL     1       3.436   5.311  20.509  0.00  0.00    +0.000 OA
ATOM     31  H   UNL     1       0.571   5.340  19.168  0.00  0.00    +0.000 HD
ENDBRANCH   1  29
TORSDOF 5
ENDMDL
MODEL 4
REMARK VINA RESULT:      -8.4      0.121      1.078
REMARK  Name = 
REMARK  6 active torsions:
REMARK  status: ('A' for Active; 'I' for Inactive)
REMARK    1  A    between atoms: C_1  and  N_2
REMARK    2  A    between atoms: C_3  and  C_5
REMARK    3  A    between atoms: C_6  and  C_7
REMARK    4  A    between atoms: C_18  and  C_19
REMARK    5  A    between atoms: C_22  and  C_23
REMARK    6  A    between atoms: C_23  and  O_25
REMARK                            x       y       z     vdW  Elec       q    Type
REMARK                         _______ _______ _______ _____ _____    ______ ____
ROOT
ATOM      1  C   UNL     1       2.609   6.859  18.969  0.00  0.00    +0.000 A 
ATOM      2  C   UNL     1       3.364   6.929  17.803  0.00  0.00    +0.000 A 
ATOM      3  O   UNL     1       3.263   8.182  17.260  0.00  0.00    +0.000 OA
ATOM      4  C   UNL     1       2.428   8.905  18.046  0.00  0.00    +0.000 A 
ATOM      5  C   UNL     1       2.066  10.230  17.835  0.00  0.00    +0.000 A 
ATOM      6  C   UNL     1       1.183  10.797  18.767  0.00  0.00    +0.000 A 
ATOM      7  C   UNL     1       0.675  10.076  19.866  0.00  0.00    +0.000 A 
ATOM      8  C   UNL     1       1.090   8.736  20.024  0.00  0.00    +0.000 A 
ATOM      9  C   UNL     1       1.976   8.137  19.105  0.00  0.00    +0.000 A 
ENDROOT
BRANCH   2  10
ATOM     10  C   UNL     1       4.155   5.985  17.013  0.00  0.00    +0.000 A 
ATOM     11  C   UNL     1       3.996   4.599  17.178  0.00  0.00    +0.000 A 
ATOM     12  C   UNL     1       4.708   3.693  16.389  0.00  0.00    +0.000 A 
ATOM     13  C   UNL     1       5.578   4.169  15.420  0.00  0.00    +0.000 A 
ATOM     14  F   UNL     1       6.244   3.301  14.648  0.00  0.00    +0.000 F 
ATOM     15  C   UNL     1       5.760   5.534  15.235  0.00  0.00    +0.000 A 
ATOM     16  C   UNL     1       5.052   6.439  16.031  0.00  0.00    +0.000 A 
ENDBRANCH   2  10
BRANCH   7  17
ATOM     17  C   UNL     1      -0.254  10.695  20.843  0.00  0.00    +0.000 A 
ATOM     18  C   UNL     1      -0.303  10.272  22.182  0.00  0.00    +0.000 A 
ATOM     19  C   UNL     1      -1.194  10.849  23.094  0.00  0.00    +0.000 A 
ATOM     20  C   UNL     1      -2.052  11.876  22.692  0.00  0.00    +0.000 A 
ATOM     21  C   UNL     1      -1.991  12.344  21.379  0.00  0.00    +0.000 A 
ATOM     22  C   UNL     1      -1.113  11.747  20.466  0.00  0.00    +0.000 A 
BRANCH  20  23
ATOM     23  C   UNL     1      -2.973  12.457  23.701  0.00  0.00    +0.000 C 
ATOM     24  O   UNL     1      -2.911  13.623  24.056  0.00  0.00    +0.000 OA
BRANCH  23  25
ATOM     25  O   UNL     1      -3.855  11.579  24.221  0.00  0.00    +0.000 OA
ATOM     26  H   UNL     1      -3.767  10.661  23.907  0.00  0.00    +0.000 HD
ENDBRANCH  23  25
ENDBRANCH  20  23
ENDBRANCH   7  17
BRANCH   1  29
ATOM     27  C   UNL     1       1.092   3.911  20.678  0.00  0.00    +0.000 C 
ATOM     28  N   UNL     1       1.288   5.108  19.903  0.00  0.00    +0.000 N 
ATOM     29  C   UNL     1       2.528   5.714  19.859  0.00  0.00    +0.000 C 
ATOM     30  O   UNL     1       3.485   5.302  20.502  0.00  0.00    +0.000 OA
ATOM     31  H   UNL     1       0.600   5.356  19.205  0.00  0.00    +0.000 HD
ENDBRANCH   1  29
TORSDOF 5
ENDMDL
MODEL 5
REMARK VINA RESULT:      -8.3      4.062      9.779
REMARK  Name = 
REMARK  6 active torsions:
REMARK  status: ('A' for Active; 'I' for Inactive)
REMARK    1  A    between atoms: C_1  and  N_2
REMARK    2  A    between atoms: C_3  and  C_5
REMARK    3  A    between atoms: C_6  and  C_7
REMARK    4  A    between atoms: C_18  and  C_19
REMARK    5  A    between atoms: C_22  and  C_23
REMARK    6  A    between atoms: C_23  and  O_25
REMARK                            x       y       z     vdW  Elec       q    Type
REMARK                         _______ _______ _______ _____ _____    ______ ____
ROOT
ATOM      1  C   UNL     1       0.742  10.298  19.661  0.00  0.00    +0.000 A 
ATOM      2  C   UNL     1      -0.025  10.231  20.820  0.00  0.00    +0.000 A 
ATOM      3  O   UNL     1       0.135   9.006  21.411  0.00  0.00    +0.000 OA
ATOM      4  C   UNL     1       0.971   8.278  20.631  0.00  0.00    +0.000 A 
ATOM      5  C   UNL     1       1.387   6.977  20.887  0.00  0.00    +0.000 A 
ATOM      6  C   UNL     1       2.254   6.398  19.948  0.00  0.00    +0.000 A 
ATOM      7  C   UNL     1       2.691   7.081  18.797  0.00  0.00    +0.000 A 
ATOM      8  C   UNL     1       2.235   8.403  18.601  0.00  0.00    +0.000 A 
ATOM      9  C   UNL     1       1.363   9.014  19.526  0.00  0.00    +0.000 A 
ENDROOT
BRANCH   2  10
ATOM     10  C   UNL     1      -0.987  11.109  21.487  0.00  0.00    +0.000 A 
ATOM     11  C   UNL     1      -1.808  11.974  20.745  0.00  0.00    +0.000 A 
ATOM     12  C   UNL     1      -2.765  12.774  21.373  0.00  0.00    +0.000 A 
ATOM     13  C   UNL     1      -2.914  12.707  22.750  0.00  0.00    +0.000 A 
ATOM     14  F   UNL     1      -3.846  13.457  23.350  0.00  0.00    +0.000 F 
ATOM     15  C   UNL     1      -2.114  11.864  23.512  0.00  0.00    +0.000 A 
ATOM     16  C   UNL     1      -1.152  11.069  22.882  0.00  0.00    +0.000 A 
ENDBRANCH   2  10
BRANCH   7  17
ATOM     17  C   UNL     1       3.612   6.452  17.818  0.00  0.00    +0.000 A 
ATOM     18  C   UNL     1       4.505   7.219  17.050  0.00  0.00    +0.000 A 
ATOM     19  C   UNL     1       5.359   6.621  16.117  0.00  0.00    +0.000 A 
ATOM     20  C   UNL     1       5.352   5.235  15.937  0.00  0.00    +0.000 A 
ATOM     21  C   UNL     1       4.506   4.448  16.720  0.00  0.00    +0.000 A 
ATOM     22  C   UNL     1       3.638   5.055  17.635  0.00  0.00    +0.000 A 
BRANCH  20  23
ATOM     23  C   UNL     1       6.282   4.651  14.938  0.00  0.00    +0.000 C 
ATOM     24  O   UNL     1       6.003   3.667  14.274  0.00  0.00    +0.000 OA
BRANCH  23  25
ATOM     25  O   UNL     1       7.476   5.274  14.860  0.00  0.00    +0.000 OA
ATOM     26  H   UNL     1       7.710   5.830  15.625  0.00  0.00    +0.000 HD
ENDBRANCH  23  25
ENDBRANCH  20  23
ENDBRANCH   7  17
BRANCH   1  29
ATOM     27  C   UNL     1       2.389  13.257  18.098  0.00  0.00    +0.000 C 
ATOM     28  N   UNL     1       2.082  12.136  18.947  0.00  0.00    +0.000 N 
ATOM     29  C   UNL     1       0.885  11.463  18.806  0.00  0.00    +0.000 C 
ATOM     30  O   UNL     1       0.024  11.810  18.007  0.00  0.00    +0.000 OA
ATOM     31  H   UNL     1       2.831  11.693  19.462  0.00  0.00    +0.000 HD
ENDBRANCH   1  29
TORSDOF 5
ENDMDL
MODEL 6
REMARK VINA RESULT:      -8.2      4.051      9.822
REMARK  Name = 
REMARK  6 active torsions:
REMARK  status: ('A' for Active; 'I' for Inactive)
REMARK    1  A    between atoms: C_1  and  N_2
REMARK    2  A    between atoms: C_3  and  C_5
REMARK    3  A    between atoms: C_6  and  C_7
REMARK    4  A    between atoms: C_18  and  C_19
REMARK    5  A    between atoms: C_22  and  C_23
REMARK    6  A    between atoms: C_23  and  O_25
REMARK                            x       y       z     vdW  Elec       q    Type
REMARK                         _______ _______ _______ _____ _____    ______ ____
ROOT
ATOM      1  C   UNL     1       0.802  10.245  19.622  0.00  0.00    +0.000 A 
ATOM      2  C   UNL     1       0.017  10.164  20.768  0.00  0.00    +0.000 A 
ATOM      3  O   UNL     1       0.172   8.934  21.350  0.00  0.00    +0.000 OA
ATOM      4  C   UNL     1       1.021   8.216  20.575  0.00  0.00    +0.000 A 
ATOM      5  C   UNL     1       1.437   6.913  20.825  0.00  0.00    +0.000 A 
ATOM      6  C   UNL     1       2.321   6.346  19.894  0.00  0.00    +0.000 A 
ATOM      7  C   UNL     1       2.773   7.042  18.756  0.00  0.00    +0.000 A 
ATOM      8  C   UNL     1       2.317   8.364  18.567  0.00  0.00    +0.000 A 
ATOM      9  C   UNL     1       1.428   8.964  19.484  0.00  0.00    +0.000 A 
ENDROOT
BRANCH   2  10
ATOM     10  C   UNL     1      -0.957  11.032  21.429  0.00  0.00    +0.000 A 
ATOM     11  C   UNL     1      -1.758  11.915  20.684  0.00  0.00    +0.000 A 
ATOM     12  C   UNL     1      -2.727  12.706  21.304  0.00  0.00    +0.000 A 
ATOM     13  C   UNL     1      -2.909  12.613  22.676  0.00  0.00    +0.000 A 
ATOM     14  F   UNL     1      -3.853  13.356  23.268  0.00  0.00    +0.000 F 
ATOM     15  C   UNL     1      -2.131  11.753  23.441  0.00  0.00    +0.000 A 
ATOM     16  C   UNL     1      -1.157  10.966  22.819  0.00  0.00    +0.000 A 
ENDBRANCH   2  10
BRANCH   7  17
ATOM     17  C   UNL     1       3.711   6.425  17.786  0.00  0.00    +0.000 A 
ATOM     18  C   UNL     1       3.723   5.039  17.554  0.00  0.00    +0.000 A 
ATOM     19  C   UNL     1       4.621   4.461  16.649  0.00  0.00    +0.000 A 
ATOM     20  C   UNL     1       5.525   5.260  15.942  0.00  0.00    +0.000 A 
ATOM     21  C   UNL     1       5.502   6.644  16.123  0.00  0.00    +0.000 A 
ATOM     22  C   UNL     1       4.616   7.212  17.045  0.00  0.00    +0.000 A 
BRANCH  20  23
ATOM     23  C   UNL     1       6.452   4.597  14.991  0.00  0.00    +0.000 C 
ATOM     24  O   UNL     1       7.447   5.148  14.549  0.00  0.00    +0.000 OA
BRANCH  23  25
ATOM     25  O   UNL     1       6.078   3.354  14.625  0.00  0.00    +0.000 OA
ATOM     26  H   UNL     1       5.220   3.054  14.975  0.00  0.00    +0.000 HD
ENDBRANCH  23  25
ENDBRANCH  20  23
ENDBRANCH   7  17
BRANCH   1  29
ATOM     27  C   UNL     1       2.441  13.258  18.158  0.00  0.00    +0.000 C 
ATOM     28  N   UNL     1       2.123  12.123  18.985  0.00  0.00    +0.000 N 
ATOM     29  C   UNL     1       0.954  11.418  18.781  0.00  0.00    +0.000 C 
ATOM     30  O   UNL     1       0.125  11.746  17.941  0.00  0.00    +0.000 OA
ATOM     31  H   UNL     1       2.858  11.699  19.535  0.00  0.00    +0.000 HD
ENDBRANCH   1  29
TORSDOF 5
ENDMDL
MODEL 7
REMARK VINA RESULT:      -8.2      4.061      9.786
REMARK  Name = 
REMARK  6 active torsions:
REMARK  status: ('A' for Active; 'I' for Inactive)
REMARK    1  A    between atoms: C_1  and  N_2
REMARK    2  A    between atoms: C_3  and  C_5
REMARK    3  A    between atoms: C_6  and  C_7
REMARK    4  A    between atoms: C_18  and  C_19
REMARK    5  A    between atoms: C_22  and  C_23
REMARK    6  A    between atoms: C_23  and  O_25
REMARK                            x       y       z     vdW  Elec       q    Type
REMARK                         _______ _______ _______ _____ _____    ______ ____
ROOT
ATOM      1  C   UNL     1       0.735  10.263  19.637  0.00  0.00    +0.000 A 
ATOM      2  C   UNL     1      -0.024  10.187  20.800  0.00  0.00    +0.000 A 
ATOM      3  O   UNL     1       0.154   8.964  21.391  0.00  0.00    +0.000 OA
ATOM      4  C   UNL     1       0.994   8.246  20.605  0.00  0.00    +0.000 A 
ATOM      5  C   UNL     1       1.426   6.949  20.859  0.00  0.00    +0.000 A 
ATOM      6  C   UNL     1       2.294   6.380  19.914  0.00  0.00    +0.000 A 
ATOM      7  C   UNL     1       2.716   7.068  18.760  0.00  0.00    +0.000 A 
ATOM      8  C   UNL     1       2.244   8.385  18.568  0.00  0.00    +0.000 A 
ATOM      9  C   UNL     1       1.370   8.986  19.498  0.00  0.00    +0.000 A 
ENDROOT
BRANCH   2  10
ATOM     10  C   UNL     1      -0.991  11.054  21.474  0.00  0.00    +0.000 A 
ATOM     11  C   UNL     1      -1.134  11.024  22.871  0.00  0.00    +0.000 A 
ATOM     12  C   UNL     1      -2.016  11.887  23.524  0.00  0.00    +0.000 A 
ATOM     13  C   UNL     1      -2.756  12.796  22.782  0.00  0.00    +0.000 A 
ATOM     14  F   UNL     1      -3.585  13.639  23.410  0.00  0.00    +0.000 F 
ATOM     15  C   UNL     1      -2.640  12.847  21.399  0.00  0.00    +0.000 A 
ATOM     16  C   UNL     1      -1.762  11.977  20.747  0.00  0.00    +0.000 A 
ENDBRANCH   2  10
BRANCH   7  17
ATOM     17  C   UNL     1       3.638   6.450  17.776  0.00  0.00    +0.000 A 
ATOM     18  C   UNL     1       3.726   5.055  17.626  0.00  0.00    +0.000 A 
ATOM     19  C   UNL     1       4.609   4.477  16.708  0.00  0.00    +0.000 A 
ATOM     20  C   UNL     1       5.421   5.283  15.904  0.00  0.00    +0.000 A 
ATOM     21  C   UNL     1       5.319   6.671  16.003  0.00  0.00    +0.000 A 
ATOM     22  C   UNL     1       4.450   7.242  16.940  0.00  0.00    +0.000 A 
BRANCH  20  23
ATOM     23  C   UNL     1       6.336   4.619  14.942  0.00  0.00    +0.000 C 
ATOM     24  O   UNL     1       6.042   3.592  14.353  0.00  0.00    +0.000 OA
BRANCH  23  25
ATOM     25  O   UNL     1       7.534   5.224  14.806  0.00  0.00    +0.000 OA
ATOM     26  H   UNL     1       8.134   4.826  14.150  0.00  0.00    +0.000 HD
ENDBRANCH  23  25
ENDBRANCH  20  23
ENDBRANCH   7  17
BRANCH   1  29
ATOM     27  C   UNL     1       2.335  13.246  18.070  0.00  0.00    +0.000 C 
ATOM     28  N   UNL     1       2.045  12.120  18.920  0.00  0.00    +0.000 N 
ATOM     29  C   UNL     1       0.859  11.429  18.780  0.00  0.00    +0.000 C 
ATOM     30  O   UNL     1      -0.007  11.762  17.981  0.00  0.00    +0.000 OA
ATOM     31  H   UNL     1       2.802  11.690  19.435  0.00  0.00    +0.000 HD
ENDBRANCH   1  29
TORSDOF 5
ENDMDL
MODEL 8
REMARK VINA RESULT:      -8.0      4.176      9.812
REMARK  Name = 
REMARK  6 active torsions:
REMARK  status: ('A' for Active; 'I' for Inactive)
REMARK    1  A    between atoms: C_1  and  N_2
REMARK    2  A    between atoms: C_3  and  C_5
REMARK    3  A    between atoms: C_6  and  C_7
REMARK    4  A    between atoms: C_18  and  C_19
REMARK    5  A    between atoms: C_22  and  C_23
REMARK    6  A    between atoms: C_23  and  O_25
REMARK                            x       y       z     vdW  Elec       q    Type
REMARK                         _______ _______ _______ _____ _____    ______ ____
ROOT
ATOM      1  C   UNL     1       0.439  10.811  19.862  0.00  0.00    +0.000 A 
ATOM      2  C   UNL     1      -0.341  10.869  21.012  0.00  0.00    +0.000 A 
ATOM      3  O   UNL     1      -0.255   9.682  21.691  0.00  0.00    +0.000 OA
ATOM      4  C   UNL     1       0.545   8.855  20.975  0.00  0.00    +0.000 A 
ATOM      5  C   UNL     1       0.884   7.555  21.327  0.00  0.00    +0.000 A 
ATOM      6  C   UNL     1       1.726   6.863  20.443  0.00  0.00    +0.000 A 
ATOM      7  C   UNL     1       2.211   7.437  19.252  0.00  0.00    +0.000 A 
ATOM      8  C   UNL     1       1.832   8.765  18.958  0.00  0.00    +0.000 A 
ATOM      9  C   UNL     1       0.987   9.487  19.826  0.00  0.00    +0.000 A 
ENDROOT
BRANCH   2  10
ATOM     10  C   UNL     1      -1.257  11.844  21.604  0.00  0.00    +0.000 A 
ATOM     11  C   UNL     1      -1.002  12.395  22.871  0.00  0.00    +0.000 A 
ATOM     12  C   UNL     1      -1.844  13.366  23.417  0.00  0.00    +0.000 A 
ATOM     13  C   UNL     1      -2.943  13.802  22.692  0.00  0.00    +0.000 A 
ATOM     14  F   UNL     1      -3.737  14.750  23.206  0.00  0.00    +0.000 F 
ATOM     15  C   UNL     1      -3.224  13.275  21.438  0.00  0.00    +0.000 A 
ATOM     16  C   UNL     1      -2.384  12.297  20.897  0.00  0.00    +0.000 A 
ENDBRANCH   2  10
BRANCH   7  17
ATOM     17  C   UNL     1       3.104   6.689  18.333  0.00  0.00    +0.000 A 
ATOM     18  C   UNL     1       3.974   7.352  17.451  0.00  0.00    +0.000 A 
ATOM     19  C   UNL     1       4.802   6.642  16.574  0.00  0.00    +0.000 A 
ATOM     20  C   UNL     1       4.789   5.244  16.567  0.00  0.00    +0.000 A 
ATOM     21  C   UNL     1       3.966   4.562  17.464  0.00  0.00    +0.000 A 
ATOM     22  C   UNL     1       3.125   5.280  18.322  0.00  0.00    +0.000 A 
BRANCH  20  23
ATOM     23  C   UNL     1       5.691   4.539  15.621  0.00  0.00    +0.000 C 
ATOM     24  O   UNL     1       6.149   5.072  14.625  0.00  0.00    +0.000 OA
BRANCH  23  25
ATOM     25  O   UNL     1       5.926   3.248  15.936  0.00  0.00    +0.000 OA
ATOM     26  H   UNL     1       5.743   3.002  16.860  0.00  0.00    +0.000 HD
ENDBRANCH  23  25
ENDBRANCH  20  23
ENDBRANCH   7  17
BRANCH   1  29
ATOM     27  C   UNL     1       2.313  13.430  17.981  0.00  0.00    +0.000 C 
ATOM     28  N   UNL     1       1.940  12.405  18.920  0.00  0.00    +0.000 N 
ATOM     29  C   UNL     1       0.655  11.902  18.928  0.00  0.00    +0.000 C 
ATOM     30  O   UNL     1      -0.224  12.329  18.190  0.00  0.00    +0.000 OA
ATOM     31  H   UNL     1       2.669  11.886  19.392  0.00  0.00    +0.000 HD
ENDBRANCH   1  29
TORSDOF 5
ENDMDL
MODEL 9
REMARK VINA RESULT:      -7.8      4.384      9.835
REMARK  Name = 
REMARK  6 active torsions:
REMARK  status: ('A' for Active; 'I' for Inactive)
REMARK    1  A    between atoms: C_1  and  N_2
REMARK    2  A    between atoms: C_3  and  C_5
REMARK    3  A    between atoms: C_6  and  C_7
REMARK    4  A    between atoms: C_18  and  C_19
REMARK    5  A    between atoms: C_22  and  C_23
REMARK    6  A    between atoms: C_23  and  O_25
REMARK                            x       y       z     vdW  Elec       q    Type
REMARK                         _______ _______ _______ _____ _____    ______ ____
ROOT
ATOM      1  C   UNL     1      -1.069  11.289  19.668  0.00  0.00    +0.000 A 
ATOM      2  C   UNL     1      -1.552  11.929  20.806  0.00  0.00    +0.000 A 
ATOM      3  O   UNL     1      -0.997  11.366  21.924  0.00  0.00    +0.000 OA
ATOM      4  C   UNL     1      -0.191  10.355  21.520  0.00  0.00    +0.000 A 
ATOM      5  C   UNL     1       0.557   9.534  22.356  0.00  0.00    +0.000 A 
ATOM      6  C   UNL     1       1.328   8.539  21.735  0.00  0.00    +0.000 A 
ATOM      7  C   UNL     1       1.355   8.362  20.338  0.00  0.00    +0.000 A 
ATOM      8  C   UNL     1       0.577   9.235  19.548  0.00  0.00    +0.000 A 
ATOM      9  C   UNL     1      -0.209  10.245  20.140  0.00  0.00    +0.000 A 
ENDROOT
BRANCH   2  10
ATOM     10  C   UNL     1      -2.536  12.978  21.075  0.00  0.00    +0.000 A 
ATOM     11  C   UNL     1      -3.878  12.822  20.689  0.00  0.00    +0.000 A 
ATOM     12  C   UNL     1      -4.832  13.796  20.992  0.00  0.00    +0.000 A 
ATOM     13  C   UNL     1      -4.450  14.930  21.693  0.00  0.00    +0.000 A 
ATOM     14  F   UNL     1      -5.370  15.853  22.003  0.00  0.00    +0.000 F 
ATOM     15  C   UNL     1      -3.131  15.115  22.085  0.00  0.00    +0.000 A 
ATOM     16  C   UNL     1      -2.176  14.142  21.775  0.00  0.00    +0.000 A 
ENDBRANCH   2  10
BRANCH   7  17
ATOM     17  C   UNL     1       2.181   7.306  19.702  0.00  0.00    +0.000 A 
ATOM     18  C   UNL     1       2.307   6.028  20.271  0.00  0.00    +0.000 A 
ATOM     19  C   UNL     1       3.100   5.041  19.674  0.00  0.00    +0.000 A 
ATOM     20  C   UNL     1       3.780   5.306  18.482  0.00  0.00    +0.000 A 
ATOM     21  C   UNL     1       3.635   6.554  17.874  0.00  0.00    +0.000 A 
ATOM     22  C   UNL     1       2.858   7.543  18.488  0.00  0.00    +0.000 A 
BRANCH  20  23
ATOM     23  C   UNL     1       4.603   4.223  17.887  0.00  0.00    +0.000 C 
ATOM     24  O   UNL     1       4.399   3.778  16.771  0.00  0.00    +0.000 OA
BRANCH  23  25
ATOM     25  O   UNL     1       5.567   3.746  18.702  0.00  0.00    +0.000 OA
ATOM     26  H   UNL     1       5.797   4.316  19.457  0.00  0.00    +0.000 HD
ENDBRANCH  23  25
ENDBRANCH  20  23
ENDBRANCH   7  17
BRANCH   1  29
ATOM     27  C   UNL     1      -2.527  10.972  16.250  0.00  0.00    +0.000 C 
ATOM     28  N   UNL     1      -2.085  10.703  17.593  0.00  0.00    +0.000 N 
ATOM     29  C   UNL     1      -1.374  11.655  18.296  0.00  0.00    +0.000 C 
ATOM     30  O   UNL     1      -1.049  12.729  17.807  0.00  0.00    +0.000 OA
ATOM     31  H   UNL     1      -2.502   9.934  18.100  0.00  0.00    +0.000 HD
ENDBRANCH   1  29
TORSDOF 5
ENDMDL
