MODEL 1
REMARK VINA RESULT:      -8.0      0.000      0.000
REMARK  Name = 
REMARK  2 active torsions:
REMARK  status: ('A' for Active; 'I' for Inactive)
REMARK    1  A    between atoms: C_13  and  C_14
REMARK    2  A    between atoms: C_18  and  O_19
REMARK                            x       y       z     vdW  Elec       q    Type
REMARK                         _______ _______ _______ _____ _____    ______ ____
ROOT
ATOM      1  O   UNL     1       5.243   3.789  16.175  0.00  0.00    +0.000 OA
ATOM      2  C   UNL     1       4.410   3.953  17.056  0.00  0.00    +0.000 C 
ATOM      3  C   UNL     1       3.867   2.770  17.833  0.00  0.00    +0.000 C 
ATOM      4  O   UNL     1       4.368   1.662  17.703  0.00  0.00    +0.000 OA
ATOM      5  C   UNL     1       2.721   2.995  18.735  0.00  0.00    +0.000 A 
ATOM      6  C   UNL     1       2.161   1.888  19.394  0.00  0.00    +0.000 A 
ATOM      7  C   UNL     1       1.074   2.061  20.244  0.00  0.00    +0.000 A 
ATOM      8  C   UNL     1       0.548   3.333  20.432  0.00  0.00    +0.000 A 
ATOM      9  C   UNL     1       1.109   4.435  19.776  0.00  0.00    +0.000 A 
ATOM     10  C   UNL     1       2.214   4.292  18.918  0.00  0.00    +0.000 A 
ATOM     11  C   UNL     1       2.848   5.445  18.236  0.00  0.00    +0.000 C 
ATOM     12  C   UNL     1       3.883   5.291  17.394  0.00  0.00    +0.000 C 
ATOM     13  C   UNL     1       4.603   6.459  16.783  0.00  0.00    +0.000 C 
ATOM     14  N   UNL     1       3.765   7.646  16.844  0.00  0.00    +0.000 N 
ATOM     15  C   UNL     1       2.835   7.837  17.814  0.00  0.00    +0.000 C 
ATOM     16  S   UNL     1       2.219   9.341  18.145  0.00  0.00    +0.000 S 
ATOM     17  N   UNL     1       2.411   6.728  18.487  0.00  0.00    +0.000 N 
ATOM     18  H   UNL     1       4.115   8.484  16.397  0.00  0.00    +0.000 HD
ATOM     19  H   UNL     1       1.699   6.909  19.183  0.00  0.00    +0.000 HD
ENDROOT
BRANCH  13  20
ATOM     20  C   UNL     1       5.934   6.738  17.467  0.00  0.00    +0.000 A 
ATOM     21  C   UNL     1       6.710   7.845  17.091  0.00  0.00    +0.000 A 
ATOM     22  C   UNL     1       7.948   8.084  17.696  0.00  0.00    +0.000 A 
ATOM     23  C   UNL     1       8.432   7.218  18.679  0.00  0.00    +0.000 A 
ATOM     24  C   UNL     1       7.664   6.127  19.058  0.00  0.00    +0.000 A 
ATOM     25  C   UNL     1       6.427   5.889  18.474  0.00  0.00    +0.000 A 
BRANCH  24  26
ATOM     26  O   UNL     1       8.093   5.240  20.001  0.00  0.00    +0.000 OA
ATOM     27  H   UNL     1       7.874   5.592  20.879  0.00  0.00    +0.000 HD
ENDBRANCH  24  26
ENDBRANCH  13  20
TORSDOF 2
ENDMDL
MODEL 2
REMARK VINA RESULT:      -7.4      0.978      1.382
REMARK  Name = 
REMARK  2 active torsions:
REMARK  status: ('A' for Active; 'I' for Inactive)
REMARK    1  A    between atoms: C_13  and  C_14
REMARK    2  A    between atoms: C_18  and  O_19
REMARK                            x       y       z     vdW  Elec       q    Type
REMARK                         _______ _______ _______ _____ _____    ______ ____
ROOT
ATOM      1  O   UNL     1       5.216   3.821  16.084  0.00  0.00    +0.000 OA
ATOM      2  C   UNL     1       4.393   3.981  16.975  0.00  0.00    +0.000 C 
ATOM      3  C   UNL     1       3.840   2.791  17.734  0.00  0.00    +0.000 C 
ATOM      4  O   UNL     1       4.324   1.678  17.578  0.00  0.00    +0.000 OA
ATOM      5  C   UNL     1       2.706   3.015  18.650  0.00  0.00    +0.000 A 
ATOM      6  C   UNL     1       2.135   1.903  19.293  0.00  0.00    +0.000 A 
ATOM      7  C   UNL     1       1.058   2.075  20.156  0.00  0.00    +0.000 A 
ATOM      8  C   UNL     1       0.551   3.350  20.373  0.00  0.00    +0.000 A 
ATOM      9  C   UNL     1       1.123   4.457  19.733  0.00  0.00    +0.000 A 
ATOM     10  C   UNL     1       2.219   4.315  18.863  0.00  0.00    +0.000 A 
ATOM     11  C   UNL     1       2.863   5.471  18.197  0.00  0.00    +0.000 C 
ATOM     12  C   UNL     1       3.889   5.319  17.343  0.00  0.00    +0.000 C 
ATOM     13  C   UNL     1       4.619   6.488  16.748  0.00  0.00    +0.000 C 
ATOM     14  N   UNL     1       3.799   7.685  16.839  0.00  0.00    +0.000 N 
ATOM     15  C   UNL     1       2.881   7.871  17.821  0.00  0.00    +0.000 C 
ATOM     16  S   UNL     1       2.288   9.377  18.186  0.00  0.00    +0.000 S 
ATOM     17  N   UNL     1       2.446   6.756  18.476  0.00  0.00    +0.000 N 
ATOM     18  H   UNL     1       4.157   8.527  16.405  0.00  0.00    +0.000 HD
ATOM     19  H   UNL     1       1.743   6.933  19.182  0.00  0.00    +0.000 HD
ENDROOT
BRANCH  13  20
ATOM     20  C   UNL     1       5.960   6.736  17.425  0.00  0.00    +0.000 A 
ATOM     21  C   UNL     1       6.510   5.777  18.289  0.00  0.00    +0.000 A 
ATOM     22  C   UNL     1       7.726   6.017  18.936  0.00  0.00    +0.000 A 
ATOM     23  C   UNL     1       8.407   7.219  18.736  0.00  0.00    +0.000 A 
ATOM     24  C   UNL     1       7.870   8.167  17.876  0.00  0.00    +0.000 A 
ATOM     25  C   UNL     1       6.671   7.932  17.218  0.00  0.00    +0.000 A 
BRANCH  24  26
ATOM     26  O   UNL     1       8.483   9.365  17.655  0.00  0.00    +0.000 OA
ATOM     27  H   UNL     1       7.807  10.017  17.410  0.00  0.00    +0.000 HD
ENDBRANCH  24  26
ENDBRANCH  13  20
TORSDOF 2
ENDMDL
MODEL 3
REMARK VINA RESULT:      -7.2      6.724      9.554
REMARK  Name = 
REMARK  2 active torsions:
REMARK  status: ('A' for Active; 'I' for Inactive)
REMARK    1  A    between atoms: C_13  and  C_14
REMARK    2  A    between atoms: C_18  and  O_19
REMARK                            x       y       z     vdW  Elec       q    Type
REMARK                         _______ _______ _______ _____ _____    ______ ____
ROOT
ATOM      1  O   UNL     1       0.363  11.705  22.078  0.00  0.00    +0.000 OA
ATOM      2  C   UNL     1       0.335  12.492  21.141  0.00  0.00    +0.000 C 
ATOM      3  C   UNL     1       1.028  13.835  21.243  0.00  0.00    +0.000 C 
ATOM      4  O   UNL     1       1.756  14.085  22.195  0.00  0.00    +0.000 OA
ATOM      5  C   UNL     1       0.793  14.825  20.174  0.00  0.00    +0.000 A 
ATOM      6  C   UNL     1       1.365  16.101  20.306  0.00  0.00    +0.000 A 
ATOM      7  C   UNL     1       1.156  17.062  19.323  0.00  0.00    +0.000 A 
ATOM      8  C   UNL     1       0.377  16.750  18.216  0.00  0.00    +0.000 A 
ATOM      9  C   UNL     1      -0.191  15.477  18.086  0.00  0.00    +0.000 A 
ATOM     10  C   UNL     1       0.011  14.482  19.059  0.00  0.00    +0.000 A 
ATOM     11  C   UNL     1      -0.552  13.117  18.933  0.00  0.00    +0.000 C 
ATOM     12  C   UNL     1      -0.378  12.186  19.884  0.00  0.00    +0.000 C 
ATOM     13  C   UNL     1      -0.848  10.769  19.718  0.00  0.00    +0.000 C 
ATOM     14  N   UNL     1      -1.865  10.701  18.681  0.00  0.00    +0.000 N 
ATOM     15  C   UNL     1      -1.908  11.571  17.639  0.00  0.00    +0.000 C 
ATOM     16  S   UNL     1      -2.756  11.231  16.255  0.00  0.00    +0.000 S 
ATOM     17  N   UNL     1      -1.241  12.752  17.795  0.00  0.00    +0.000 N 
ATOM     18  H   UNL     1      -2.311   9.806  18.526  0.00  0.00    +0.000 HD
ATOM     19  H   UNL     1      -1.319  13.382  17.008  0.00  0.00    +0.000 HD
ENDROOT
BRANCH  13  20
ATOM     20  C   UNL     1       0.292   9.819  19.379  0.00  0.00    +0.000 A 
ATOM     21  C   UNL     1       0.896   9.854  18.113  0.00  0.00    +0.000 A 
ATOM     22  C   UNL     1       1.922   8.960  17.790  0.00  0.00    +0.000 A 
ATOM     23  C   UNL     1       2.353   8.014  18.721  0.00  0.00    +0.000 A 
ATOM     24  C   UNL     1       1.763   7.981  19.977  0.00  0.00    +0.000 A 
ATOM     25  C   UNL     1       0.754   8.874  20.312  0.00  0.00    +0.000 A 
BRANCH  24  26
ATOM     26  O   UNL     1       2.133   7.069  20.920  0.00  0.00    +0.000 OA
ATOM     27  H   UNL     1       1.629   7.242  21.731  0.00  0.00    +0.000 HD
ENDBRANCH  24  26
ENDBRANCH  13  20
TORSDOF 2
ENDMDL
MODEL 4
REMARK VINA RESULT:      -7.0      8.224     10.550
REMARK  Name = 
REMARK  2 active torsions:
REMARK  status: ('A' for Active; 'I' for Inactive)
REMARK    1  A    between atoms: C_13  and  C_14
REMARK    2  A    between atoms: C_18  and  O_19
REMARK                            x       y       z     vdW  Elec       q    Type
REMARK                         _______ _______ _______ _____ _____    ______ ____
ROOT
ATOM      1  O   UNL     1      -1.018  10.069  23.410  0.00  0.00    +0.000 OA
ATOM      2  C   UNL     1      -0.562  10.478  22.351  0.00  0.00    +0.000 C 
ATOM      3  C   UNL     1      -0.061   9.507  21.301  0.00  0.00    +0.000 C 
ATOM      4  O   UNL     1      -0.253   8.305  21.428  0.00  0.00    +0.000 OA
ATOM      5  C   UNL     1       0.664  10.050  20.137  0.00  0.00    +0.000 A 
ATOM      6  C   UNL     1       1.203   9.149  19.204  0.00  0.00    +0.000 A 
ATOM      7  C   UNL     1       1.902   9.625  18.100  0.00  0.00    +0.000 A 
ATOM      8  C   UNL     1       2.064  10.995  17.931  0.00  0.00    +0.000 A 
ATOM      9  C   UNL     1       1.524  11.891  18.861  0.00  0.00    +0.000 A 
ATOM     10  C   UNL     1       0.805  11.439  19.982  0.00  0.00    +0.000 A 
ATOM     11  C   UNL     1       0.196  12.365  20.965  0.00  0.00    +0.000 C 
ATOM     12  C   UNL     1      -0.461  11.921  22.048  0.00  0.00    +0.000 C 
ATOM     13  C   UNL     1      -1.175  12.846  22.992  0.00  0.00    +0.000 C 
ATOM     14  N   UNL     1      -0.667  14.199  22.841  0.00  0.00    +0.000 N 
ATOM     15  C   UNL     1      -0.155  14.663  21.671  0.00  0.00    +0.000 C 
ATOM     16  S   UNL     1      -0.003  16.288  21.371  0.00  0.00    +0.000 S 
ATOM     17  N   UNL     1       0.254  13.729  20.765  0.00  0.00    +0.000 N 
ATOM     18  H   UNL     1      -1.022  14.903  23.476  0.00  0.00    +0.000 HD
ATOM     19  H   UNL     1       0.653  14.114  19.919  0.00  0.00    +0.000 HD
ENDROOT
BRANCH  13  20
ATOM     20  C   UNL     1      -2.682  12.840  22.776  0.00  0.00    +0.000 A 
ATOM     21  C   UNL     1      -3.216  12.835  21.479  0.00  0.00    +0.000 A 
ATOM     22  C   UNL     1      -4.600  12.861  21.280  0.00  0.00    +0.000 A 
ATOM     23  C   UNL     1      -5.470  12.900  22.371  0.00  0.00    +0.000 A 
ATOM     24  C   UNL     1      -4.945  12.898  23.656  0.00  0.00    +0.000 A 
ATOM     25  C   UNL     1      -3.573  12.857  23.864  0.00  0.00    +0.000 A 
BRANCH  24  26
ATOM     26  O   UNL     1      -5.746  12.951  24.759  0.00  0.00    +0.000 OA
ATOM     27  H   UNL     1      -6.439  13.612  24.605  0.00  0.00    +0.000 HD
ENDBRANCH  24  26
ENDBRANCH  13  20
TORSDOF 2
ENDMDL
MODEL 5
REMARK VINA RESULT:      -6.9      6.992      8.951
REMARK  Name = 
REMARK  2 active torsions:
REMARK  status: ('A' for Active; 'I' for Inactive)
REMARK    1  A    between atoms: C_13  and  C_14
REMARK    2  A    between atoms: C_18  and  O_19
REMARK                            x       y       z     vdW  Elec       q    Type
REMARK                         _______ _______ _______ _____ _____    ______ ____
ROOT
ATOM      1  O   UNL     1      -1.611  12.335  21.323  0.00  0.00    +0.000 OA
ATOM      2  C   UNL     1      -1.723  11.909  20.182  0.00  0.00    +0.000 C 
ATOM      3  C   UNL     1      -2.978  12.184  19.377  0.00  0.00    +0.000 C 
ATOM      4  O   UNL     1      -3.822  12.964  19.795  0.00  0.00    +0.000 OA
ATOM      5  C   UNL     1      -3.150  11.480  18.092  0.00  0.00    +0.000 A 
ATOM      6  C   UNL     1      -4.348  11.666  17.383  0.00  0.00    +0.000 A 
ATOM      7  C   UNL     1      -4.550  11.010  16.173  0.00  0.00    +0.000 A 
ATOM      8  C   UNL     1      -3.560  10.171  15.676  0.00  0.00    +0.000 A 
ATOM      9  C   UNL     1      -2.365   9.989  16.384  0.00  0.00    +0.000 A 
ATOM     10  C   UNL     1      -2.130  10.646  17.605  0.00  0.00    +0.000 A 
ATOM     11  C   UNL     1      -0.864  10.496  18.360  0.00  0.00    +0.000 C 
ATOM     12  C   UNL     1      -0.663  11.104  19.540  0.00  0.00    +0.000 C 
ATOM     13  C   UNL     1       0.653  11.049  20.260  0.00  0.00    +0.000 C 
ATOM     14  N   UNL     1       1.440   9.928  19.772  0.00  0.00    +0.000 N 
ATOM     15  C   UNL     1       1.322   9.445  18.508  0.00  0.00    +0.000 C 
ATOM     16  S   UNL     1       2.500   8.500  17.823  0.00  0.00    +0.000 S 
ATOM     17  N   UNL     1       0.173   9.752  17.837  0.00  0.00    +0.000 N 
ATOM     18  H   UNL     1       2.322   9.744  20.232  0.00  0.00    +0.000 HD
ATOM     19  H   UNL     1       0.112   9.352  16.910  0.00  0.00    +0.000 HD
ENDROOT
BRANCH  13  20
ATOM     20  C   UNL     1       1.449  12.338  20.105  0.00  0.00    +0.000 A 
ATOM     21  C   UNL     1       1.601  13.216  21.189  0.00  0.00    +0.000 A 
ATOM     22  C   UNL     1       2.304  14.415  21.039  0.00  0.00    +0.000 A 
ATOM     23  C   UNL     1       2.861  14.758  19.805  0.00  0.00    +0.000 A 
ATOM     24  C   UNL     1       2.719  13.888  18.733  0.00  0.00    +0.000 A 
ATOM     25  C   UNL     1       2.035  12.688  18.875  0.00  0.00    +0.000 A 
BRANCH  24  26
ATOM     26  O   UNL     1       3.228  14.177  17.501  0.00  0.00    +0.000 OA
ATOM     27  H   UNL     1       3.479  13.346  17.067  0.00  0.00    +0.000 HD
ENDBRANCH  24  26
ENDBRANCH  13  20
TORSDOF 2
ENDMDL
MODEL 6
REMARK VINA RESULT:      -6.9      6.981      8.909
REMARK  Name = 
REMARK  2 active torsions:
REMARK  status: ('A' for Active; 'I' for Inactive)
REMARK    1  A    between atoms: C_13  and  C_14
REMARK    2  A    between atoms: C_18  and  O_19
REMARK                            x       y       z     vdW  Elec       q    Type
REMARK                         _______ _______ _______ _____ _____    ______ ____
ROOT
ATOM      1  O   UNL     1      -1.667  12.201  21.278  0.00  0.00    +0.000 OA
ATOM      2  C   UNL     1      -1.754  11.803  20.124  0.00  0.00    +0.000 C 
ATOM      3  C   UNL     1      -2.988  12.106  19.297  0.00  0.00    +0.000 C 
ATOM      4  O   UNL     1      -3.837  12.881  19.714  0.00  0.00    +0.000 OA
ATOM      5  C   UNL     1      -3.134  11.434  17.992  0.00  0.00    +0.000 A 
ATOM      6  C   UNL     1      -4.314  11.645  17.260  0.00  0.00    +0.000 A 
ATOM      7  C   UNL     1      -4.491  11.021  16.029  0.00  0.00    +0.000 A 
ATOM      8  C   UNL     1      -3.495  10.187  15.535  0.00  0.00    +0.000 A 
ATOM      9  C   UNL     1      -2.319   9.980  16.266  0.00  0.00    +0.000 A 
ATOM     10  C   UNL     1      -2.109  10.606  17.508  0.00  0.00    +0.000 A 
ATOM     11  C   UNL     1      -0.861  10.430  18.288  0.00  0.00    +0.000 C 
ATOM     12  C   UNL     1      -0.685  11.007  19.488  0.00  0.00    +0.000 C 
ATOM     13  C   UNL     1       0.614  10.926  20.236  0.00  0.00    +0.000 C 
ATOM     14  N   UNL     1       1.405   9.812  19.739  0.00  0.00    +0.000 N 
ATOM     15  C   UNL     1       1.314   9.361  18.462  0.00  0.00    +0.000 C 
ATOM     16  S   UNL     1       2.502   8.424  17.781  0.00  0.00    +0.000 S 
ATOM     17  N   UNL     1       0.183   9.692  17.772  0.00  0.00    +0.000 N 
ATOM     18  H   UNL     1       2.275   9.611  20.216  0.00  0.00    +0.000 HD
ATOM     19  H   UNL     1       0.142   9.315  16.834  0.00  0.00    +0.000 HD
ENDROOT
BRANCH  13  20
ATOM     20  C   UNL     1       1.421  12.212  20.132  0.00  0.00    +0.000 A 
ATOM     21  C   UNL     1       1.913  12.646  18.892  0.00  0.00    +0.000 A 
ATOM     22  C   UNL     1       2.682  13.811  18.801  0.00  0.00    +0.000 A 
ATOM     23  C   UNL     1       2.976  14.554  19.945  0.00  0.00    +0.000 A 
ATOM     24  C   UNL     1       2.485  14.132  21.172  0.00  0.00    +0.000 A 
ATOM     25  C   UNL     1       1.709  12.985  21.272  0.00  0.00    +0.000 A 
BRANCH  24  26
ATOM     26  O   UNL     1       2.754  14.809  22.325  0.00  0.00    +0.000 OA
ATOM     27  H   UNL     1       1.913  15.075  22.731  0.00  0.00    +0.000 HD
ENDBRANCH  24  26
ENDBRANCH  13  20
TORSDOF 2
ENDMDL
MODEL 7
REMARK VINA RESULT:      -6.8      6.523      8.577
REMARK  Name = 
REMARK  2 active torsions:
REMARK  status: ('A' for Active; 'I' for Inactive)
REMARK    1  A    between atoms: C_13  and  C_14
REMARK    2  A    between atoms: C_18  and  O_19
REMARK                            x       y       z     vdW  Elec       q    Type
REMARK                         _______ _______ _______ _____ _____    ______ ____
ROOT
ATOM      1  O   UNL     1      -1.356   9.903  17.033  0.00  0.00    +0.000 OA
ATOM      2  C   UNL     1      -1.625  10.681  17.937  0.00  0.00    +0.000 C 
ATOM      3  C   UNL     1      -3.067  10.940  18.327  0.00  0.00    +0.000 C 
ATOM      4  O   UNL     1      -3.967  10.258  17.855  0.00  0.00    +0.000 OA
ATOM      5  C   UNL     1      -3.348  12.033  19.276  0.00  0.00    +0.000 A 
ATOM      6  C   UNL     1      -4.688  12.331  19.576  0.00  0.00    +0.000 A 
ATOM      7  C   UNL     1      -4.991  13.363  20.459  0.00  0.00    +0.000 A 
ATOM      8  C   UNL     1      -3.960  14.094  21.037  0.00  0.00    +0.000 A 
ATOM      9  C   UNL     1      -2.626  13.793  20.738  0.00  0.00    +0.000 A 
ATOM     10  C   UNL     1      -2.289  12.750  19.856  0.00  0.00    +0.000 A 
ATOM     11  C   UNL     1      -0.886  12.390  19.546  0.00  0.00    +0.000 C 
ATOM     12  C   UNL     1      -0.577  11.413  18.679  0.00  0.00    +0.000 C 
ATOM     13  C   UNL     1       0.836  10.966  18.439  0.00  0.00    +0.000 C 
ATOM     14  N   UNL     1       1.764  11.996  18.875  0.00  0.00    +0.000 N 
ATOM     15  C   UNL     1       1.474  12.868  19.876  0.00  0.00    +0.000 C 
ATOM     16  S   UNL     1       2.661  13.718  20.662  0.00  0.00    +0.000 S 
ATOM     17  N   UNL     1       0.155  13.031  20.186  0.00  0.00    +0.000 N 
ATOM     18  H   UNL     1       2.748  11.840  18.700  0.00  0.00    +0.000 HD
ATOM     19  H   UNL     1      -0.021  13.707  20.917  0.00  0.00    +0.000 HD
ENDROOT
BRANCH  13  20
ATOM     20  C   UNL     1       1.155   9.658  19.150  0.00  0.00    +0.000 A 
ATOM     21  C   UNL     1       0.722   9.437  20.466  0.00  0.00    +0.000 A 
ATOM     22  C   UNL     1       1.042   8.249  21.130  0.00  0.00    +0.000 A 
ATOM     23  C   UNL     1       1.805   7.268  20.494  0.00  0.00    +0.000 A 
ATOM     24  C   UNL     1       2.229   7.480  19.189  0.00  0.00    +0.000 A 
ATOM     25  C   UNL     1       1.904   8.649  18.516  0.00  0.00    +0.000 A 
BRANCH  24  26
ATOM     26  O   UNL     1       2.989   6.563  18.524  0.00  0.00    +0.000 OA
ATOM     27  H   UNL     1       3.923   6.809  18.620  0.00  0.00    +0.000 HD
ENDBRANCH  24  26
ENDBRANCH  13  20
TORSDOF 2
ENDMDL
MODEL 8
REMARK VINA RESULT:      -6.8      8.525     10.263
REMARK  Name = 
REMARK  2 active torsions:
REMARK  status: ('A' for Active; 'I' for Inactive)
REMARK    1  A    between atoms: C_13  and  C_14
REMARK    2  A    between atoms: C_18  and  O_19
REMARK                            x       y       z     vdW  Elec       q    Type
REMARK                         _______ _______ _______ _____ _____    ______ ____
ROOT
ATOM      1  O   UNL     1      -1.683  11.661  17.871  0.00  0.00    +0.000 OA
ATOM      2  C   UNL     1      -2.603  11.856  18.653  0.00  0.00    +0.000 C 
ATOM      3  C   UNL     1      -4.018  11.448  18.294  0.00  0.00    +0.000 C 
ATOM      4  O   UNL     1      -4.234  10.777  17.294  0.00  0.00    +0.000 OA
ATOM      5  C   UNL     1      -5.116  11.888  19.176  0.00  0.00    +0.000 A 
ATOM      6  C   UNL     1      -6.436  11.584  18.804  0.00  0.00    +0.000 A 
ATOM      7  C   UNL     1      -7.496  11.992  19.606  0.00  0.00    +0.000 A 
ATOM      8  C   UNL     1      -7.239  12.703  20.772  0.00  0.00    +0.000 A 
ATOM      9  C   UNL     1      -5.922  13.002  21.142  0.00  0.00    +0.000 A 
ATOM     10  C   UNL     1      -4.830  12.595  20.356  0.00  0.00    +0.000 A 
ATOM     11  C   UNL     1      -3.425  12.871  20.739  0.00  0.00    +0.000 C 
ATOM     12  C   UNL     1      -2.392  12.504  19.964  0.00  0.00    +0.000 C 
ATOM     13  C   UNL     1      -0.963  12.680  20.392  0.00  0.00    +0.000 C 
ATOM     14  N   UNL     1      -0.880  13.671  21.452  0.00  0.00    +0.000 N 
ATOM     15  C   UNL     1      -1.897  13.898  22.323  0.00  0.00    +0.000 C 
ATOM     16  S   UNL     1      -1.648  14.672  23.769  0.00  0.00    +0.000 S 
ATOM     17  N   UNL     1      -3.139  13.482  21.941  0.00  0.00    +0.000 N 
ATOM     18  H   UNL     1       0.043  13.928  21.776  0.00  0.00    +0.000 HD
ATOM     19  H   UNL     1      -3.872  13.693  22.606  0.00  0.00    +0.000 HD
ENDROOT
BRANCH  13  20
ATOM     20  C   UNL     1      -0.337  11.374  20.863  0.00  0.00    +0.000 A 
ATOM     21  C   UNL     1       0.367  10.557  19.967  0.00  0.00    +0.000 A 
ATOM     22  C   UNL     1       0.914   9.342  20.391  0.00  0.00    +0.000 A 
ATOM     23  C   UNL     1       0.760   8.923  21.714  0.00  0.00    +0.000 A 
ATOM     24  C   UNL     1       0.071   9.732  22.606  0.00  0.00    +0.000 A 
ATOM     25  C   UNL     1      -0.464  10.946  22.198  0.00  0.00    +0.000 A 
BRANCH  24  26
ATOM     26  O   UNL     1      -0.124   9.366  23.905  0.00  0.00    +0.000 OA
ATOM     27  H   UNL     1      -0.368   8.428  23.928  0.00  0.00    +0.000 HD
ENDBRANCH  24  26
ENDBRANCH  13  20
TORSDOF 2
ENDMDL
MODEL 9
REMARK VINA RESULT:      -6.7      7.996      9.849
REMARK  Name = 
REMARK  2 active torsions:
REMARK  status: ('A' for Active; 'I' for Inactive)
REMARK    1  A    between atoms: C_13  and  C_14
REMARK    2  A    between atoms: C_18  and  O_19
REMARK                            x       y       z     vdW  Elec       q    Type
REMARK                         _______ _______ _______ _____ _____    ______ ____
ROOT
ATOM      1  O   UNL     1      -1.099  10.462  17.991  0.00  0.00    +0.000 OA
ATOM      2  C   UNL     1      -2.105  10.988  18.449  0.00  0.00    +0.000 C 
ATOM      3  C   UNL     1      -3.479  10.587  17.948  0.00  0.00    +0.000 C 
ATOM      4  O   UNL     1      -3.609   9.627  17.202  0.00  0.00    +0.000 OA
ATOM      5  C   UNL     1      -4.639  11.390  18.379  0.00  0.00    +0.000 A 
ATOM      6  C   UNL     1      -5.902  11.075  17.852  0.00  0.00    +0.000 A 
ATOM      7  C   UNL     1      -7.018  11.817  18.227  0.00  0.00    +0.000 A 
ATOM      8  C   UNL     1      -6.870  12.869  19.122  0.00  0.00    +0.000 A 
ATOM      9  C   UNL     1      -5.610  13.180  19.647  0.00  0.00    +0.000 A 
ATOM     10  C   UNL     1      -4.466  12.442  19.293  0.00  0.00    +0.000 A 
ATOM     11  C   UNL     1      -3.126  12.728  19.857  0.00  0.00    +0.000 C 
ATOM     12  C   UNL     1      -2.037  12.036  19.487  0.00  0.00    +0.000 C 
ATOM     13  C   UNL     1      -0.696  12.243  20.131  0.00  0.00    +0.000 C 
ATOM     14  N   UNL     1      -0.659  13.534  20.798  0.00  0.00    +0.000 N 
ATOM     15  C   UNL     1      -1.769  14.128  21.307  0.00  0.00    +0.000 C 
ATOM     16  S   UNL     1      -1.670  15.339  22.436  0.00  0.00    +0.000 S 
ATOM     17  N   UNL     1      -2.972  13.699  20.824  0.00  0.00    +0.000 N 
ATOM     18  H   UNL     1       0.221  13.819  21.211  0.00  0.00    +0.000 HD
ATOM     19  H   UNL     1      -3.772  14.184  21.208  0.00  0.00    +0.000 HD
ENDROOT
BRANCH  13  20
ATOM     20  C   UNL     1      -0.358  11.143  21.127  0.00  0.00    +0.000 A 
ATOM     21  C   UNL     1      -0.990  11.097  22.379  0.00  0.00    +0.000 A 
ATOM     22  C   UNL     1      -0.657  10.106  23.308  0.00  0.00    +0.000 A 
ATOM     23  C   UNL     1       0.315   9.151  23.003  0.00  0.00    +0.000 A 
ATOM     24  C   UNL     1       0.936   9.188  21.762  0.00  0.00    +0.000 A 
ATOM     25  C   UNL     1       0.603  10.160  20.828  0.00  0.00    +0.000 A 
BRANCH  24  26
ATOM     26  O   UNL     1       1.903   8.291  21.416  0.00  0.00    +0.000 OA
ATOM     27  H   UNL     1       2.449   8.108  22.197  0.00  0.00    +0.000 HD
ENDBRANCH  24  26
ENDBRANCH  13  20
TORSDOF 2
ENDMDL
