MODEL 1
REMARK VINA RESULT:      -7.4      0.000      0.000
REMARK  Name = 
REMARK  3 active torsions:
REMARK  status: ('A' for Active; 'I' for Inactive)
REMARK    1  A    between atoms: C_1  and  C_2
REMARK    2  A    between atoms: C_5  and  C_6
REMARK    3  A    between atoms: C_9  and  C_10
REMARK                            x       y       z     vdW  Elec       q    Type
REMARK                         _______ _______ _______ _____ _____    ______ ____
ROOT
ATOM      1  C   UNL     1       4.212   5.409  17.500  0.00  0.00    +0.000 A 
ATOM      2  C   UNL     1       4.163   6.711  17.046  0.00  0.00    +0.000 A 
ATOM      3  C   UNL     1       5.058   6.791  15.952  0.00  0.00    +0.000 A 
ATOM      4  C   UNL     1       5.643   5.544  15.822  0.00  0.00    +0.000 A 
ATOM      5  O   UNL     1       5.122   4.706  16.765  0.00  0.00    +0.000 OA
ENDROOT
BRANCH   1  10
ATOM      6  C   UNL     1       1.480   2.556  21.716  0.00  0.00    +0.000 C 
ATOM      7  C   UNL     1       2.161   3.249  20.574  0.00  0.00    +0.000 A 
ATOM      8  C   UNL     1       3.418   2.831  20.126  0.00  0.00    +0.000 A 
ATOM      9  C   UNL     1       4.068   3.519  19.098  0.00  0.00    +0.000 A 
ATOM     10  C   UNL     1       3.481   4.644  18.503  0.00  0.00    +0.000 A 
ATOM     11  C   UNL     1       2.207   5.039  18.932  0.00  0.00    +0.000 A 
ATOM     12  C   UNL     1       1.551   4.347  19.955  0.00  0.00    +0.000 A 
ENDBRANCH   1  10
BRANCH   4  13
ATOM     13  C   UNL     1       6.598   5.049  14.850  0.00  0.00    +0.000 C 
ATOM     14  O   UNL     1       7.813   5.216  14.995  0.00  0.00    +0.000 OA
ATOM     15  N   UNL     1       6.211   4.324  13.694  0.00  0.00    +0.000 N 
ATOM     16  C   UNL     1       7.042   3.830  12.699  0.00  0.00    +0.000 A 
ATOM     17  C   UNL     1       6.252   3.158  11.801  0.00  0.00    +0.000 A 
ATOM     18  C   UNL     1       4.955   3.270  12.322  0.00  0.00    +0.000 A 
ATOM     19  N   UNL     1       4.916   3.956  13.464  0.00  0.00    +0.000 NA
ENDBRANCH   4  13
TORSDOF 2
ENDMDL
MODEL 2
REMARK VINA RESULT:      -7.4      3.462      6.780
REMARK  Name = 
REMARK  3 active torsions:
REMARK  status: ('A' for Active; 'I' for Inactive)
REMARK    1  A    between atoms: C_1  and  C_2
REMARK    2  A    between atoms: C_5  and  C_6
REMARK    3  A    between atoms: C_9  and  C_10
REMARK                            x       y       z     vdW  Elec       q    Type
REMARK                         _______ _______ _______ _____ _____    ______ ____
ROOT
ATOM      1  C   UNL     1       5.661   5.108  17.344  0.00  0.00    +0.000 A 
ATOM      2  C   UNL     1       5.636   4.092  16.412  0.00  0.00    +0.000 A 
ATOM      3  C   UNL     1       4.379   3.452  16.546  0.00  0.00    +0.000 A 
ATOM      4  C   UNL     1       3.719   4.083  17.585  0.00  0.00    +0.000 A 
ATOM      5  O   UNL     1       4.503   5.092  18.066  0.00  0.00    +0.000 OA
ENDROOT
BRANCH   1  10
ATOM      6  C   UNL     1       9.105   9.510  18.809  0.00  0.00    +0.000 C 
ATOM      7  C   UNL     1       8.257   8.351  18.375  0.00  0.00    +0.000 A 
ATOM      8  C   UNL     1       7.281   8.506  17.387  0.00  0.00    +0.000 A 
ATOM      9  C   UNL     1       6.458   7.434  17.029  0.00  0.00    +0.000 A 
ATOM     10  C   UNL     1       6.589   6.188  17.658  0.00  0.00    +0.000 A 
ATOM     11  C   UNL     1       7.590   6.029  18.624  0.00  0.00    +0.000 A 
ATOM     12  C   UNL     1       8.419   7.099  18.978  0.00  0.00    +0.000 A 
ENDBRANCH   1  10
BRANCH   4  13
ATOM     13  C   UNL     1       2.391   3.867  18.126  0.00  0.00    +0.000 C 
ATOM     14  O   UNL     1       1.380   4.019  17.434  0.00  0.00    +0.000 OA
ATOM     15  N   UNL     1       2.165   3.446  19.461  0.00  0.00    +0.000 N 
ATOM     16  C   UNL     1       0.940   3.235  20.075  0.00  0.00    +0.000 A 
ATOM     17  C   UNL     1       1.191   2.792  21.349  0.00  0.00    +0.000 A 
ATOM     18  C   UNL     1       2.589   2.742  21.434  0.00  0.00    +0.000 A 
ATOM     19  N   UNL     1       3.188   3.120  20.305  0.00  0.00    +0.000 NA
ENDBRANCH   4  13
TORSDOF 2
ENDMDL
MODEL 3
REMARK VINA RESULT:      -7.4      2.202      3.263
REMARK  Name = 
REMARK  3 active torsions:
REMARK  status: ('A' for Active; 'I' for Inactive)
REMARK    1  A    between atoms: C_1  and  C_2
REMARK    2  A    between atoms: C_5  and  C_6
REMARK    3  A    between atoms: C_9  and  C_10
REMARK                            x       y       z     vdW  Elec       q    Type
REMARK                         _______ _______ _______ _____ _____    ______ ____
ROOT
ATOM      1  C   UNL     1       3.649   5.809  17.698  0.00  0.00    +0.000 A 
ATOM      2  C   UNL     1       3.757   4.443  17.860  0.00  0.00    +0.000 A 
ATOM      3  C   UNL     1       4.860   4.028  17.074  0.00  0.00    +0.000 A 
ATOM      4  C   UNL     1       5.341   5.157  16.434  0.00  0.00    +0.000 A 
ATOM      5  O   UNL     1       4.602   6.238  16.820  0.00  0.00    +0.000 OA
ENDROOT
BRANCH   1  10
ATOM      6  C   UNL     1       0.644  10.075  20.178  0.00  0.00    +0.000 C 
ATOM      7  C   UNL     1       1.361   8.934  19.519  0.00  0.00    +0.000 A 
ATOM      8  C   UNL     1       1.697   7.784  20.239  0.00  0.00    +0.000 A 
ATOM      9  C   UNL     1       2.415   6.750  19.629  0.00  0.00    +0.000 A 
ATOM     10  C   UNL     1       2.819   6.850  18.291  0.00  0.00    +0.000 A 
ATOM     11  C   UNL     1       2.451   7.989  17.565  0.00  0.00    +0.000 A 
ATOM     12  C   UNL     1       1.726   9.021  18.171  0.00  0.00    +0.000 A 
ENDBRANCH   1  10
BRANCH   4  13
ATOM     13  C   UNL     1       6.473   5.323  15.545  0.00  0.00    +0.000 C 
ATOM     14  O   UNL     1       7.472   5.965  15.884  0.00  0.00    +0.000 OA
ATOM     15  N   UNL     1       6.524   4.746  14.250  0.00  0.00    +0.000 N 
ATOM     16  C   UNL     1       7.546   4.866  13.320  0.00  0.00    +0.000 A 
ATOM     17  C   UNL     1       7.198   4.111  12.229  0.00  0.00    +0.000 A 
ATOM     18  C   UNL     1       5.960   3.549  12.572  0.00  0.00    +0.000 A 
ATOM     19  N   UNL     1       5.548   3.911  13.786  0.00  0.00    +0.000 NA
ENDBRANCH   4  13
TORSDOF 2
ENDMDL
MODEL 4
REMARK VINA RESULT:      -7.4      2.039      3.158
REMARK  Name = 
REMARK  3 active torsions:
REMARK  status: ('A' for Active; 'I' for Inactive)
REMARK    1  A    between atoms: C_1  and  C_2
REMARK    2  A    between atoms: C_5  and  C_6
REMARK    3  A    between atoms: C_9  and  C_10
REMARK                            x       y       z     vdW  Elec       q    Type
REMARK                         _______ _______ _______ _____ _____    ______ ____
ROOT
ATOM      1  C   UNL     1       3.800   5.664  17.594  0.00  0.00    +0.000 A 
ATOM      2  C   UNL     1       3.817   4.285  17.629  0.00  0.00    +0.000 A 
ATOM      3  C   UNL     1       4.860   3.872  16.764  0.00  0.00    +0.000 A 
ATOM      4  C   UNL     1       5.396   5.019  16.209  0.00  0.00    +0.000 A 
ATOM      5  O   UNL     1       4.750   6.107  16.720  0.00  0.00    +0.000 OA
ENDROOT
BRANCH   1  10
ATOM      6  C   UNL     1       0.606   9.654  20.288  0.00  0.00    +0.000 C 
ATOM      7  C   UNL     1       1.495   8.652  19.614  0.00  0.00    +0.000 A 
ATOM      8  C   UNL     1       1.997   8.886  18.330  0.00  0.00    +0.000 A 
ATOM      9  C   UNL     1       2.779   7.920  17.689  0.00  0.00    +0.000 A 
ATOM     10  C   UNL     1       3.066   6.698  18.312  0.00  0.00    +0.000 A 
ATOM     11  C   UNL     1       2.587   6.482  19.611  0.00  0.00    +0.000 A 
ATOM     12  C   UNL     1       1.812   7.450  20.258  0.00  0.00    +0.000 A 
ENDBRANCH   1  10
BRANCH   4  13
ATOM     13  C   UNL     1       6.506   5.191  15.293  0.00  0.00    +0.000 C 
ATOM     14  O   UNL     1       7.508   5.840  15.607  0.00  0.00    +0.000 OA
ATOM     15  N   UNL     1       6.530   4.611  13.999  0.00  0.00    +0.000 N 
ATOM     16  C   UNL     1       7.529   4.735  13.045  0.00  0.00    +0.000 A 
ATOM     17  C   UNL     1       7.161   3.975  11.964  0.00  0.00    +0.000 A 
ATOM     18  C   UNL     1       5.935   3.405  12.337  0.00  0.00    +0.000 A 
ATOM     19  N   UNL     1       5.550   3.768  13.560  0.00  0.00    +0.000 NA
ENDBRANCH   4  13
TORSDOF 2
ENDMDL
MODEL 5
REMARK VINA RESULT:      -7.3      0.373      1.078
REMARK  Name = 
REMARK  3 active torsions:
REMARK  status: ('A' for Active; 'I' for Inactive)
REMARK    1  A    between atoms: C_1  and  C_2
REMARK    2  A    between atoms: C_5  and  C_6
REMARK    3  A    between atoms: C_9  and  C_10
REMARK                            x       y       z     vdW  Elec       q    Type
REMARK                         _______ _______ _______ _____ _____    ______ ____
ROOT
ATOM      1  C   UNL     1       4.358   5.366  17.617  0.00  0.00    +0.000 A 
ATOM      2  C   UNL     1       4.259   6.634  17.083  0.00  0.00    +0.000 A 
ATOM      3  C   UNL     1       5.094   6.656  15.939  0.00  0.00    +0.000 A 
ATOM      4  C   UNL     1       5.696   5.413  15.860  0.00  0.00    +0.000 A 
ATOM      5  O   UNL     1       5.242   4.631  16.882  0.00  0.00    +0.000 OA
ENDROOT
BRANCH   1  10
ATOM      6  C   UNL     1       1.453   2.536  21.733  0.00  0.00    +0.000 C 
ATOM      7  C   UNL     1       2.260   3.284  20.713  0.00  0.00    +0.000 A 
ATOM      8  C   UNL     1       2.143   4.671  20.582  0.00  0.00    +0.000 A 
ATOM      9  C   UNL     1       2.858   5.351  19.591  0.00  0.00    +0.000 A 
ATOM     10  C   UNL     1       3.695   4.658  18.706  0.00  0.00    +0.000 A 
ATOM     11  C   UNL     1       3.833   3.273  18.863  0.00  0.00    +0.000 A 
ATOM     12  C   UNL     1       3.126   2.592  19.859  0.00  0.00    +0.000 A 
ENDBRANCH   1  10
BRANCH   4  13
ATOM     13  C   UNL     1       6.609   4.870  14.873  0.00  0.00    +0.000 C 
ATOM     14  O   UNL     1       7.832   4.929  15.025  0.00  0.00    +0.000 OA
ATOM     15  N   UNL     1       6.166   4.218  13.694  0.00  0.00    +0.000 N 
ATOM     16  C   UNL     1       6.955   3.688  12.684  0.00  0.00    +0.000 A 
ATOM     17  C   UNL     1       6.114   3.115  11.764  0.00  0.00    +0.000 A 
ATOM     18  C   UNL     1       4.829   3.320  12.288  0.00  0.00    +0.000 A 
ATOM     19  N   UNL     1       4.845   3.970  13.451  0.00  0.00    +0.000 NA
ENDBRANCH   4  13
TORSDOF 2
ENDMDL
MODEL 6
REMARK VINA RESULT:      -7.3      3.212      4.708
REMARK  Name = 
REMARK  3 active torsions:
REMARK  status: ('A' for Active; 'I' for Inactive)
REMARK    1  A    between atoms: C_1  and  C_2
REMARK    2  A    between atoms: C_5  and  C_6
REMARK    3  A    between atoms: C_9  and  C_10
REMARK                            x       y       z     vdW  Elec       q    Type
REMARK                         _______ _______ _______ _____ _____    ______ ____
ROOT
ATOM      1  C   UNL     1       2.720   6.394  19.452  0.00  0.00    +0.000 A 
ATOM      2  C   UNL     1       2.471   5.167  20.031  0.00  0.00    +0.000 A 
ATOM      3  C   UNL     1       3.579   4.342  19.721  0.00  0.00    +0.000 A 
ATOM      4  C   UNL     1       4.428   5.094  18.928  0.00  0.00    +0.000 A 
ATOM      5  O   UNL     1       3.901   6.343  18.771  0.00  0.00    +0.000 OA
ENDROOT
BRANCH   1  10
ATOM      6  C   UNL     1      -0.195  11.383  19.418  0.00  0.00    +0.000 C 
ATOM      7  C   UNL     1       0.623  10.125  19.441  0.00  0.00    +0.000 A 
ATOM      8  C   UNL     1       1.263   9.664  18.287  0.00  0.00    +0.000 A 
ATOM      9  C   UNL     1       1.977   8.462  18.305  0.00  0.00    +0.000 A 
ATOM     10  C   UNL     1       2.056   7.692  19.473  0.00  0.00    +0.000 A 
ATOM     11  C   UNL     1       1.440   8.175  20.635  0.00  0.00    +0.000 A 
ATOM     12  C   UNL     1       0.733   9.381  20.621  0.00  0.00    +0.000 A 
ENDBRANCH   1  10
BRANCH   4  13
ATOM     13  C   UNL     1       5.721   4.767  18.360  0.00  0.00    +0.000 C 
ATOM     14  O   UNL     1       6.685   4.477  19.074  0.00  0.00    +0.000 OA
ATOM     15  N   UNL     1       5.958   4.732  16.962  0.00  0.00    +0.000 N 
ATOM     16  C   UNL     1       7.158   4.455  16.324  0.00  0.00    +0.000 A 
ATOM     17  C   UNL     1       6.920   4.485  14.973  0.00  0.00    +0.000 A 
ATOM     18  C   UNL     1       5.552   4.771  14.864  0.00  0.00    +0.000 A 
ATOM     19  N   UNL     1       4.958   4.910  16.049  0.00  0.00    +0.000 NA
ENDBRANCH   4  13
TORSDOF 2
ENDMDL
MODEL 7
REMARK VINA RESULT:      -7.3      4.727      6.393
REMARK  Name = 
REMARK  3 active torsions:
REMARK  status: ('A' for Active; 'I' for Inactive)
REMARK    1  A    between atoms: C_1  and  C_2
REMARK    2  A    between atoms: C_5  and  C_6
REMARK    3  A    between atoms: C_9  and  C_10
REMARK                            x       y       z     vdW  Elec       q    Type
REMARK                         _______ _______ _______ _____ _____    ______ ____
ROOT
ATOM      1  C   UNL     1       1.742   8.429  19.444  0.00  0.00    +0.000 A 
ATOM      2  C   UNL     1       2.154   8.590  18.137  0.00  0.00    +0.000 A 
ATOM      3  C   UNL     1       2.912   7.440  17.808  0.00  0.00    +0.000 A 
ATOM      4  C   UNL     1       2.962   6.655  18.946  0.00  0.00    +0.000 A 
ATOM      5  O   UNL     1       2.246   7.261  19.938  0.00  0.00    +0.000 OA
ENDROOT
BRANCH   1  10
ATOM      6  C   UNL     1      -1.456  11.522  23.130  0.00  0.00    +0.000 C 
ATOM      7  C   UNL     1      -0.686  10.680  22.156  0.00  0.00    +0.000 A 
ATOM      8  C   UNL     1      -0.112   9.468  22.551  0.00  0.00    +0.000 A 
ATOM      9  C   UNL     1       0.651   8.719  21.651  0.00  0.00    +0.000 A 
ATOM     10  C   UNL     1       0.865   9.171  20.341  0.00  0.00    +0.000 A 
ATOM     11  C   UNL     1       0.260  10.369  19.941  0.00  0.00    +0.000 A 
ATOM     12  C   UNL     1      -0.511  11.116  20.838  0.00  0.00    +0.000 A 
ENDBRANCH   1  10
BRANCH   4  13
ATOM     13  C   UNL     1       3.567   5.357  19.169  0.00  0.00    +0.000 C 
ATOM     14  O   UNL     1       4.744   5.245  19.524  0.00  0.00    +0.000 OA
ATOM     15  N   UNL     1       2.851   4.142  19.023  0.00  0.00    +0.000 N 
ATOM     16  C   UNL     1       3.342   2.855  19.189  0.00  0.00    +0.000 A 
ATOM     17  C   UNL     1       2.297   1.988  18.996  0.00  0.00    +0.000 A 
ATOM     18  C   UNL     1       1.198   2.818  18.730  0.00  0.00    +0.000 A 
ATOM     19  N   UNL     1       1.512   4.113  18.755  0.00  0.00    +0.000 NA
ENDBRANCH   4  13
TORSDOF 2
ENDMDL
MODEL 8
REMARK VINA RESULT:      -7.2      4.795      6.503
REMARK  Name = 
REMARK  3 active torsions:
REMARK  status: ('A' for Active; 'I' for Inactive)
REMARK    1  A    between atoms: C_1  and  C_2
REMARK    2  A    between atoms: C_5  and  C_6
REMARK    3  A    between atoms: C_9  and  C_10
REMARK                            x       y       z     vdW  Elec       q    Type
REMARK                         _______ _______ _______ _____ _____    ______ ____
ROOT
ATOM      1  C   UNL     1       1.683   8.495  19.525  0.00  0.00    +0.000 A 
ATOM      2  C   UNL     1       1.948   8.604  18.175  0.00  0.00    +0.000 A 
ATOM      3  C   UNL     1       2.675   7.443  17.812  0.00  0.00    +0.000 A 
ATOM      4  C   UNL     1       2.855   6.707  18.969  0.00  0.00    +0.000 A 
ATOM      5  O   UNL     1       2.247   7.350  20.008  0.00  0.00    +0.000 OA
ENDROOT
BRANCH   1  10
ATOM      6  C   UNL     1      -1.687  11.479  23.148  0.00  0.00    +0.000 C 
ATOM      7  C   UNL     1      -0.754  10.735  22.239  0.00  0.00    +0.000 A 
ATOM      8  C   UNL     1      -0.310  11.306  21.042  0.00  0.00    +0.000 A 
ATOM      9  C   UNL     1       0.515  10.582  20.175  0.00  0.00    +0.000 A 
ATOM     10  C   UNL     1       0.904   9.271  20.482  0.00  0.00    +0.000 A 
ATOM     11  C   UNL     1       0.483   8.716  21.697  0.00  0.00    +0.000 A 
ATOM     12  C   UNL     1      -0.335   9.442  22.569  0.00  0.00    +0.000 A 
ENDBRANCH   1  10
BRANCH   4  13
ATOM     13  C   UNL     1       3.490   5.420  19.176  0.00  0.00    +0.000 C 
ATOM     14  O   UNL     1       4.667   5.332  19.538  0.00  0.00    +0.000 OA
ATOM     15  N   UNL     1       2.805   4.190  19.008  0.00  0.00    +0.000 N 
ATOM     16  C   UNL     1       3.327   2.914  19.159  0.00  0.00    +0.000 A 
ATOM     17  C   UNL     1       2.304   2.024  18.945  0.00  0.00    +0.000 A 
ATOM     18  C   UNL     1       1.187   2.830  18.685  0.00  0.00    +0.000 A 
ATOM     19  N   UNL     1       1.469   4.132  18.731  0.00  0.00    +0.000 NA
ENDBRANCH   4  13
TORSDOF 2
ENDMDL
MODEL 9
REMARK VINA RESULT:      -7.2      3.375      4.908
REMARK  Name = 
REMARK  3 active torsions:
REMARK  status: ('A' for Active; 'I' for Inactive)
REMARK    1  A    between atoms: C_1  and  C_2
REMARK    2  A    between atoms: C_5  and  C_6
REMARK    3  A    between atoms: C_9  and  C_10
REMARK                            x       y       z     vdW  Elec       q    Type
REMARK                         _______ _______ _______ _____ _____    ______ ____
ROOT
ATOM      1  C   UNL     1       2.551   6.457  19.612  0.00  0.00    +0.000 A 
ATOM      2  C   UNL     1       2.249   5.207  20.110  0.00  0.00    +0.000 A 
ATOM      3  C   UNL     1       3.366   4.381  19.832  0.00  0.00    +0.000 A 
ATOM      4  C   UNL     1       4.275   5.158  19.137  0.00  0.00    +0.000 A 
ATOM      5  O   UNL     1       3.775   6.422  19.009  0.00  0.00    +0.000 OA
ENDROOT
BRANCH   1  10
ATOM      6  C   UNL     1       0.272  11.758  19.909  0.00  0.00    +0.000 C 
ATOM      7  C   UNL     1       0.797  10.356  19.816  0.00  0.00    +0.000 A 
ATOM      8  C   UNL     1       0.776   9.506  20.926  0.00  0.00    +0.000 A 
ATOM      9  C   UNL     1       1.319   8.220  20.843  0.00  0.00    +0.000 A 
ATOM     10  C   UNL     1       1.903   7.762  19.654  0.00  0.00    +0.000 A 
ATOM     11  C   UNL     1       1.892   8.606  18.536  0.00  0.00    +0.000 A 
ATOM     12  C   UNL     1       1.342   9.890  18.614  0.00  0.00    +0.000 A 
ENDBRANCH   1  10
BRANCH   4  13
ATOM     13  C   UNL     1       5.599   4.841  18.641  0.00  0.00    +0.000 C 
ATOM     14  O   UNL     1       6.525   4.559  19.406  0.00  0.00    +0.000 OA
ATOM     15  N   UNL     1       5.912   4.805  17.258  0.00  0.00    +0.000 N 
ATOM     16  C   UNL     1       7.147   4.536  16.686  0.00  0.00    +0.000 A 
ATOM     17  C   UNL     1       6.983   4.562  15.324  0.00  0.00    +0.000 A 
ATOM     18  C   UNL     1       5.620   4.838  15.140  0.00  0.00    +0.000 A 
ATOM     19  N   UNL     1       4.962   4.974  16.291  0.00  0.00    +0.000 NA
ENDBRANCH   4  13
TORSDOF 2
ENDMDL
