MODEL 1
REMARK VINA RESULT:      -9.2      0.000      0.000
REMARK  Name = 
REMARK  7 active torsions:
REMARK  status: ('A' for Active; 'I' for Inactive)
REMARK    1  A    between atoms: C_1  and  C_2
REMARK    2  A    between atoms: C_5  and  S_6
REMARK    3  A    between atoms: S_6  and  N_9
REMARK    4  A    between atoms: C_16  and  N_17
REMARK    5  A    between atoms: C_18  and  C_20
REMARK    6  A    between atoms: C_20  and  N_21
REMARK    7  A    between atoms: C_23  and  C_24
REMARK                            x       y       z     vdW  Elec       q    Type
REMARK                         _______ _______ _______ _____ _____    ______ ____
ROOT
ATOM      1  N   UNL     1       2.063   6.409  20.261  0.00  0.00    +0.000 N 
ATOM      2  C   UNL     1       1.857   7.781  20.155  0.00  0.00    +0.000 C 
ATOM      3  O   UNL     1       1.952   8.440  19.120  0.00  0.00    +0.000 OA
ATOM      4  H   UNL     1       1.679   5.965  21.093  0.00  0.00    +0.000 HD
ENDROOT
BRANCH   1  11
ATOM      5  C   UNL     1       0.822   3.745  19.903  0.00  0.00    +0.000 C 
ATOM      6  C   UNL     1       1.921   4.288  19.024  0.00  0.00    +0.000 A 
ATOM      7  C   UNL     1       2.355   3.462  17.966  0.00  0.00    +0.000 A 
ATOM      8  C   UNL     1       3.367   3.868  17.107  0.00  0.00    +0.000 A 
ATOM      9  C   UNL     1       3.972   5.104  17.315  0.00  0.00    +0.000 A 
ATOM     10  C   UNL     1       3.579   5.927  18.376  0.00  0.00    +0.000 A 
ATOM     11  C   UNL     1       2.525   5.551  19.223  0.00  0.00    +0.000 A 
BRANCH   9  12
ATOM     12  S   UNL     1       5.311   5.588  16.256  0.00  0.00    +0.000 S 
ATOM     13  O   UNL     1       5.790   4.406  15.573  0.00  0.00    +0.000 OA
ATOM     14  O   UNL     1       4.874   6.748  15.507  0.00  0.00    +0.000 OA
BRANCH  12  15
ATOM     15  N   UNL     1       6.497   6.093  17.333  0.00  0.00    +0.000 NA
ATOM     16  C   UNL     1       7.205   5.086  18.164  0.00  0.00    +0.000 C 
ATOM     17  C   UNL     1       7.769   5.805  19.400  0.00  0.00    +0.000 C 
ATOM     18  O   UNL     1       8.643   6.886  19.025  0.00  0.00    +0.000 OA
ATOM     19  C   UNL     1       7.955   7.839  18.194  0.00  0.00    +0.000 C 
ATOM     20  C   UNL     1       7.428   7.172  16.916  0.00  0.00    +0.000 C 
ENDBRANCH  12  15
ENDBRANCH   9  12
ENDBRANCH   1  11
BRANCH   2  21
ATOM     21  C   UNL     1       1.357   8.451  21.438  0.00  0.00    +0.000 C 
BRANCH  21  22
ATOM     22  N   UNL     1       0.383   9.505  21.143  0.00  0.00    +0.000 N 
ATOM     23  C   UNL     1      -0.129   9.651  19.862  0.00  0.00    +0.000 A 
ATOM     24  C   UNL     1      -1.022  10.617  19.559  0.00  0.00    +0.000 A 
ATOM     25  C   UNL     1      -1.409  11.552  20.600  0.00  0.00    +0.000 A 
ATOM     26  C   UNL     1      -0.964  11.424  21.856  0.00  0.00    +0.000 A 
ATOM     27 CL   UNL     1      -1.414  12.538  23.087  0.00  0.00    +0.000 Cl
ATOM     28  C   UNL     1      -0.042  10.296  22.217  0.00  0.00    +0.000 A 
ATOM     29  O   UNL     1       0.311  10.081  23.371  0.00  0.00    +0.000 OA
BRANCH  24  30
ATOM     30  C   UNL     1      -1.628  10.761  18.186  0.00  0.00    +0.000 C 
ATOM     31  F   UNL     1      -2.920  10.343  18.138  0.00  0.00    +0.000 F 
ATOM     32  F   UNL     1      -1.620  12.050  17.766  0.00  0.00    +0.000 F 
ATOM     33  F   UNL     1      -0.951  10.037  17.262  0.00  0.00    +0.000 F 
ENDBRANCH  24  30
ENDBRANCH  21  22
ENDBRANCH   2  21
TORSDOF 6
ENDMDL
MODEL 2
REMARK VINA RESULT:      -9.1      1.256      1.381
REMARK  Name = 
REMARK  7 active torsions:
REMARK  status: ('A' for Active; 'I' for Inactive)
REMARK    1  A    between atoms: C_1  and  C_2
REMARK    2  A    between atoms: C_5  and  S_6
REMARK    3  A    between atoms: S_6  and  N_9
REMARK    4  A    between atoms: C_16  and  N_17
REMARK    5  A    between atoms: C_18  and  C_20
REMARK    6  A    between atoms: C_20  and  N_21
REMARK    7  A    between atoms: C_23  and  C_24
REMARK                            x       y       z     vdW  Elec       q    Type
REMARK                         _______ _______ _______ _____ _____    ______ ____
ROOT
ATOM      1  N   UNL     1       2.007   6.671  19.863  0.00  0.00    +0.000 N 
ATOM      2  C   UNL     1       1.881   8.003  19.480  0.00  0.00    +0.000 C 
ATOM      3  O   UNL     1       2.111   8.449  18.357  0.00  0.00    +0.000 OA
ATOM      4  H   UNL     1       1.521   6.406  20.718  0.00  0.00    +0.000 HD
ENDROOT
BRANCH   1  11
ATOM      5  C   UNL     1       0.798   3.974  20.030  0.00  0.00    +0.000 C 
ATOM      6  C   UNL     1       1.937   4.331  19.109  0.00  0.00    +0.000 A 
ATOM      7  C   UNL     1       2.429   3.303  18.278  0.00  0.00    +0.000 A 
ATOM      8  C   UNL     1       3.482   3.529  17.402  0.00  0.00    +0.000 A 
ATOM      9  C   UNL     1       4.071   4.790  17.368  0.00  0.00    +0.000 A 
ATOM     10  C   UNL     1       3.620   5.816  18.205  0.00  0.00    +0.000 A 
ATOM     11  C   UNL     1       2.526   5.617  19.059  0.00  0.00    +0.000 A 
BRANCH   9  12
ATOM     12  S   UNL     1       5.460   5.054  16.296  0.00  0.00    +0.000 S 
ATOM     13  O   UNL     1       6.009   3.761  15.949  0.00  0.00    +0.000 OA
ATOM     14  O   UNL     1       5.043   5.981  15.264  0.00  0.00    +0.000 OA
BRANCH  12  15
ATOM     15  N   UNL     1       6.565   5.851  17.279  0.00  0.00    +0.000 NA
ATOM     16  C   UNL     1       7.439   5.060  18.183  0.00  0.00    +0.000 C 
ATOM     17  C   UNL     1       7.898   5.983  19.324  0.00  0.00    +0.000 C 
ATOM     18  O   UNL     1       8.580   7.145  18.816  0.00  0.00    +0.000 OA
ATOM     19  C   UNL     1       7.735   7.885  17.916  0.00  0.00    +0.000 C 
ATOM     20  C   UNL     1       7.303   7.015  16.728  0.00  0.00    +0.000 C 
ENDBRANCH  12  15
ENDBRANCH   9  12
ENDBRANCH   1  11
BRANCH   2  21
ATOM     21  C   UNL     1       1.291   8.921  20.555  0.00  0.00    +0.000 C 
BRANCH  21  22
ATOM     22  N   UNL     1       0.464   9.974  19.960  0.00  0.00    +0.000 N 
ATOM     23  C   UNL     1      -0.537   9.654  19.054  0.00  0.00    +0.000 A 
ATOM     24  C   UNL     1      -1.311  10.602  18.485  0.00  0.00    +0.000 A 
ATOM     25  C   UNL     1      -1.042  11.995  18.799  0.00  0.00    +0.000 A 
ATOM     26  C   UNL     1      -0.107  12.341  19.692  0.00  0.00    +0.000 A 
ATOM     27 CL   UNL     1       0.218  13.990  20.056  0.00  0.00    +0.000 Cl
ATOM     28  C   UNL     1       0.692  11.284  20.396  0.00  0.00    +0.000 A 
ATOM     29  O   UNL     1       1.486  11.549  21.291  0.00  0.00    +0.000 OA
BRANCH  24  30
ATOM     30  C   UNL     1      -2.436  10.272  17.538  0.00  0.00    +0.000 C 
ATOM     31  F   UNL     1      -3.297  11.309  17.367  0.00  0.00    +0.000 F 
ATOM     32  F   UNL     1      -1.977   9.940  16.306  0.00  0.00    +0.000 F 
ATOM     33  F   UNL     1      -3.174   9.225  17.983  0.00  0.00    +0.000 F 
ENDBRANCH  24  30
ENDBRANCH  21  22
ENDBRANCH   2  21
TORSDOF 6
ENDMDL
MODEL 3
REMARK VINA RESULT:      -9.0      3.088      4.304
REMARK  Name = 
REMARK  7 active torsions:
REMARK  status: ('A' for Active; 'I' for Inactive)
REMARK    1  A    between atoms: C_1  and  C_2
REMARK    2  A    between atoms: C_5  and  S_6
REMARK    3  A    between atoms: S_6  and  N_9
REMARK    4  A    between atoms: C_16  and  N_17
REMARK    5  A    between atoms: C_18  and  C_20
REMARK    6  A    between atoms: C_20  and  N_21
REMARK    7  A    between atoms: C_23  and  C_24
REMARK                            x       y       z     vdW  Elec       q    Type
REMARK                         _______ _______ _______ _____ _____    ______ ____
ROOT
ATOM      1  N   UNL     1       1.170   9.211  21.307  0.00  0.00    +0.000 N 
ATOM      2  C   UNL     1      -0.047   9.072  21.966  0.00  0.00    +0.000 C 
ATOM      3  O   UNL     1      -0.916   8.243  21.697  0.00  0.00    +0.000 OA
ATOM      4  H   UNL     1       1.890   9.731  21.807  0.00  0.00    +0.000 HD
ENDROOT
BRANCH   1  11
ATOM      5  C   UNL     1       1.086  10.554  18.669  0.00  0.00    +0.000 C 
ATOM      6  C   UNL     1       1.566   9.140  18.881  0.00  0.00    +0.000 A 
ATOM      7  C   UNL     1       2.009   8.442  17.737  0.00  0.00    +0.000 A 
ATOM      8  C   UNL     1       2.462   7.133  17.826  0.00  0.00    +0.000 A 
ATOM      9  C   UNL     1       2.453   6.499  19.065  0.00  0.00    +0.000 A 
ATOM     10  C   UNL     1       1.989   7.161  20.207  0.00  0.00    +0.000 A 
ATOM     11  C   UNL     1       1.575   8.500  20.142  0.00  0.00    +0.000 A 
BRANCH   9  12
ATOM     12  S   UNL     1       2.968   4.805  19.160  0.00  0.00    +0.000 S 
ATOM     13  O   UNL     1       3.120   4.462  20.558  0.00  0.00    +0.000 OA
ATOM     14  O   UNL     1       2.091   4.035  18.302  0.00  0.00    +0.000 OA
BRANCH  12  15
ATOM     15  N   UNL     1       4.490   4.819  18.451  0.00  0.00    +0.000 NA
ATOM     16  C   UNL     1       5.689   5.041  19.300  0.00  0.00    +0.000 C 
ATOM     17  C   UNL     1       6.816   5.570  18.397  0.00  0.00    +0.000 C 
ATOM     18  O   UNL     1       7.097   4.658  17.320  0.00  0.00    +0.000 OA
ATOM     19  C   UNL     1       5.921   4.424  16.524  0.00  0.00    +0.000 C 
ATOM     20  C   UNL     1       4.788   3.837  17.377  0.00  0.00    +0.000 C 
ENDBRANCH  12  15
ENDBRANCH   9  12
ENDBRANCH   1  11
BRANCH   2  21
ATOM     21  C   UNL     1      -0.212   9.971  23.195  0.00  0.00    +0.000 C 
BRANCH  21  22
ATOM     22  N   UNL     1      -0.963  11.186  22.868  0.00  0.00    +0.000 N 
ATOM     23  C   UNL     1      -2.220  11.403  23.415  0.00  0.00    +0.000 A 
ATOM     24  C   UNL     1      -2.939  12.509  23.127  0.00  0.00    +0.000 A 
ATOM     25  C   UNL     1      -2.390  13.463  22.179  0.00  0.00    +0.000 A 
ATOM     26  C   UNL     1      -1.168  13.306  21.657  0.00  0.00    +0.000 A 
ATOM     27 CL   UNL     1      -0.523  14.430  20.527  0.00  0.00    +0.000 Cl
ATOM     28  C   UNL     1      -0.329  12.124  22.046  0.00  0.00    +0.000 A 
ATOM     29  O   UNL     1       0.831  11.991  21.672  0.00  0.00    +0.000 OA
BRANCH  24  30
ATOM     30  C   UNL     1      -4.284  12.788  23.748  0.00  0.00    +0.000 C 
ATOM     31  F   UNL     1      -5.310  12.613  22.875  0.00  0.00    +0.000 F 
ATOM     32  F   UNL     1      -4.528  11.976  24.805  0.00  0.00    +0.000 F 
ATOM     33  F   UNL     1      -4.371  14.064  24.198  0.00  0.00    +0.000 F 
ENDBRANCH  24  30
ENDBRANCH  21  22
ENDBRANCH   2  21
TORSDOF 6
ENDMDL
MODEL 4
REMARK VINA RESULT:      -8.8      1.341      1.774
REMARK  Name = 
REMARK  7 active torsions:
REMARK  status: ('A' for Active; 'I' for Inactive)
REMARK    1  A    between atoms: C_1  and  C_2
REMARK    2  A    between atoms: C_5  and  S_6
REMARK    3  A    between atoms: S_6  and  N_9
REMARK    4  A    between atoms: C_16  and  N_17
REMARK    5  A    between atoms: C_18  and  C_20
REMARK    6  A    between atoms: C_20  and  N_21
REMARK    7  A    between atoms: C_23  and  C_24
REMARK                            x       y       z     vdW  Elec       q    Type
REMARK                         _______ _______ _______ _____ _____    ______ ____
ROOT
ATOM      1  N   UNL     1       1.854   6.831  19.872  0.00  0.00    +0.000 N 
ATOM      2  C   UNL     1       1.833   8.177  19.521  0.00  0.00    +0.000 C 
ATOM      3  O   UNL     1       2.225   8.644  18.453  0.00  0.00    +0.000 OA
ATOM      4  H   UNL     1       1.250   6.563  20.647  0.00  0.00    +0.000 HD
ENDROOT
BRANCH   1  11
ATOM      5  C   UNL     1       0.853   4.064  20.201  0.00  0.00    +0.000 C 
ATOM      6  C   UNL     1       1.942   4.457  19.234  0.00  0.00    +0.000 A 
ATOM      7  C   UNL     1       2.489   3.427  18.441  0.00  0.00    +0.000 A 
ATOM      8  C   UNL     1       3.502   3.685  17.527  0.00  0.00    +0.000 A 
ATOM      9  C   UNL     1       3.994   4.982  17.416  0.00  0.00    +0.000 A 
ATOM     10  C   UNL     1       3.488   6.014  18.214  0.00  0.00    +0.000 A 
ATOM     11  C   UNL     1       2.431   5.778  19.106  0.00  0.00    +0.000 A 
BRANCH   9  12
ATOM     12  S   UNL     1       5.334   5.293  16.296  0.00  0.00    +0.000 S 
ATOM     13  O   UNL     1       5.821   4.018  15.817  0.00  0.00    +0.000 OA
ATOM     14  O   UNL     1       4.896   6.314  15.367  0.00  0.00    +0.000 OA
BRANCH  12  15
ATOM     15  N   UNL     1       6.515   5.973  17.279  0.00  0.00    +0.000 NA
ATOM     16  C   UNL     1       6.665   7.450  17.323  0.00  0.00    +0.000 C 
ATOM     17  C   UNL     1       8.094   7.766  17.793  0.00  0.00    +0.000 C 
ATOM     18  O   UNL     1       8.369   7.172  19.075  0.00  0.00    +0.000 OA
ATOM     19  C   UNL     1       8.188   5.744  19.029  0.00  0.00    +0.000 C 
ATOM     20  C   UNL     1       6.753   5.385  18.622  0.00  0.00    +0.000 C 
ENDBRANCH  12  15
ENDBRANCH   9  12
ENDBRANCH   1  11
BRANCH   2  21
ATOM     21  C   UNL     1       1.144   9.089  20.541  0.00  0.00    +0.000 C 
BRANCH  21  22
ATOM     22  N   UNL     1       0.354  10.129  19.877  0.00  0.00    +0.000 N 
ATOM     23  C   UNL     1      -0.642   9.786  18.974  0.00  0.00    +0.000 A 
ATOM     24  C   UNL     1      -1.382  10.721  18.342  0.00  0.00    +0.000 A 
ATOM     25  C   UNL     1      -1.081  12.122  18.584  0.00  0.00    +0.000 A 
ATOM     26  C   UNL     1      -0.150  12.492  19.473  0.00  0.00    +0.000 A 
ATOM     27 CL   UNL     1       0.214  14.150  19.752  0.00  0.00    +0.000 Cl
ATOM     28  C   UNL     1       0.610  11.455  20.245  0.00  0.00    +0.000 A 
ATOM     29  O   UNL     1       1.398  11.748  21.137  0.00  0.00    +0.000 OA
BRANCH  24  30
ATOM     30  C   UNL     1      -2.502  10.369  17.396  0.00  0.00    +0.000 C 
ATOM     31  F   UNL     1      -2.053  10.010  16.165  0.00  0.00    +0.000 F 
ATOM     32  F   UNL     1      -3.243   9.333  17.858  0.00  0.00    +0.000 F 
ATOM     33  F   UNL     1      -3.347  11.413  17.212  0.00  0.00    +0.000 F 
ENDBRANCH  24  30
ENDBRANCH  21  22
ENDBRANCH   2  21
TORSDOF 6
ENDMDL
MODEL 5
REMARK VINA RESULT:      -8.8      4.933      9.089
REMARK  Name = 
REMARK  7 active torsions:
REMARK  status: ('A' for Active; 'I' for Inactive)
REMARK    1  A    between atoms: C_1  and  C_2
REMARK    2  A    between atoms: C_5  and  S_6
REMARK    3  A    between atoms: S_6  and  N_9
REMARK    4  A    between atoms: C_16  and  N_17
REMARK    5  A    between atoms: C_18  and  C_20
REMARK    6  A    between atoms: C_20  and  N_21
REMARK    7  A    between atoms: C_23  and  C_24
REMARK                            x       y       z     vdW  Elec       q    Type
REMARK                         _______ _______ _______ _____ _____    ______ ____
ROOT
ATOM      1  N   UNL     1       2.797   6.267  19.765  0.00  0.00    +0.000 N 
ATOM      2  C   UNL     1       2.238   4.995  19.706  0.00  0.00    +0.000 C 
ATOM      3  O   UNL     1       1.037   4.744  19.622  0.00  0.00    +0.000 OA
ATOM      4  H   UNL     1       3.790   6.328  19.547  0.00  0.00    +0.000 HD
ENDROOT
BRANCH   1  11
ATOM      5  C   UNL     1       2.666   8.053  17.407  0.00  0.00    +0.000 C 
ATOM      6  C   UNL     1       1.983   8.340  18.720  0.00  0.00    +0.000 A 
ATOM      7  C   UNL     1       1.231   9.531  18.798  0.00  0.00    +0.000 A 
ATOM      8  C   UNL     1       0.571   9.888  19.966  0.00  0.00    +0.000 A 
ATOM      9  C   UNL     1       0.679   9.062  21.081  0.00  0.00    +0.000 A 
ATOM     10  C   UNL     1       1.445   7.892  21.036  0.00  0.00    +0.000 A 
ATOM     11  C   UNL     1       2.076   7.493  19.849  0.00  0.00    +0.000 A 
BRANCH   9  12
ATOM     12  S   UNL     1      -0.109   9.559  22.591  0.00  0.00    +0.000 S 
ATOM     13  O   UNL     1      -1.180   8.625  22.863  0.00  0.00    +0.000 OA
ATOM     14  O   UNL     1       0.934   9.793  23.568  0.00  0.00    +0.000 OA
BRANCH  12  15
ATOM     15  N   UNL     1      -0.789  11.046  22.206  0.00  0.00    +0.000 NA
ATOM     16  C   UNL     1      -1.928  11.557  23.010  0.00  0.00    +0.000 C 
ATOM     17  C   UNL     1      -2.698  12.572  22.149  0.00  0.00    +0.000 C 
ATOM     18  O   UNL     1      -1.842  13.643  21.709  0.00  0.00    +0.000 OA
ATOM     19  C   UNL     1      -0.725  13.133  20.959  0.00  0.00    +0.000 C 
ATOM     20  C   UNL     1       0.108  12.160  21.805  0.00  0.00    +0.000 C 
ENDBRANCH  12  15
ENDBRANCH   9  12
ENDBRANCH   1  11
BRANCH   2  21
ATOM     21  C   UNL     1       3.259   3.855  19.624  0.00  0.00    +0.000 C 
BRANCH  21  22
ATOM     22  N   UNL     1       4.384   4.211  18.755  0.00  0.00    +0.000 N 
ATOM     23  C   UNL     1       5.556   4.720  19.296  0.00  0.00    +0.000 A 
ATOM     24  C   UNL     1       6.606   5.063  18.521  0.00  0.00    +0.000 A 
ATOM     25  C   UNL     1       6.473   4.936  17.079  0.00  0.00    +0.000 A 
ATOM     26  C   UNL     1       5.372   4.417  16.523  0.00  0.00    +0.000 A 
ATOM     27 CL   UNL     1       5.210   4.278  14.816  0.00  0.00    +0.000 Cl
ATOM     28  C   UNL     1       4.238   3.950  17.388  0.00  0.00    +0.000 A 
ATOM     29  O   UNL     1       3.255   3.380  16.929  0.00  0.00    +0.000 OA
BRANCH  24  30
ATOM     30  C   UNL     1       7.906   5.571  19.091  0.00  0.00    +0.000 C 
ATOM     31  F   UNL     1       8.263   6.779  18.583  0.00  0.00    +0.000 F 
ATOM     32  F   UNL     1       7.841   5.719  20.437  0.00  0.00    +0.000 F 
ATOM     33  F   UNL     1       8.931   4.722  18.833  0.00  0.00    +0.000 F 
ENDBRANCH  24  30
ENDBRANCH  21  22
ENDBRANCH   2  21
TORSDOF 6
ENDMDL
MODEL 6
REMARK VINA RESULT:      -8.7      3.462      5.105
REMARK  Name = 
REMARK  7 active torsions:
REMARK  status: ('A' for Active; 'I' for Inactive)
REMARK    1  A    between atoms: C_1  and  C_2
REMARK    2  A    between atoms: C_5  and  S_6
REMARK    3  A    between atoms: S_6  and  N_9
REMARK    4  A    between atoms: C_16  and  N_17
REMARK    5  A    between atoms: C_18  and  C_20
REMARK    6  A    between atoms: C_20  and  N_21
REMARK    7  A    between atoms: C_23  and  C_24
REMARK                            x       y       z     vdW  Elec       q    Type
REMARK                         _______ _______ _______ _____ _____    ______ ____
ROOT
ATOM      1  N   UNL     1       1.069   9.392  21.213  0.00  0.00    +0.000 N 
ATOM      2  C   UNL     1      -0.106   9.133  21.911  0.00  0.00    +0.000 C 
ATOM      3  O   UNL     1      -0.922   8.254  21.638  0.00  0.00    +0.000 OA
ATOM      4  H   UNL     1       1.769   9.943  21.708  0.00  0.00    +0.000 HD
ENDROOT
BRANCH   1  11
ATOM      5  C   UNL     1       0.277  10.570  18.614  0.00  0.00    +0.000 C 
ATOM      6  C   UNL     1       1.128   9.333  18.755  0.00  0.00    +0.000 A 
ATOM      7  C   UNL     1       1.572   8.728  17.560  0.00  0.00    +0.000 A 
ATOM      8  C   UNL     1       2.353   7.581  17.583  0.00  0.00    +0.000 A 
ATOM      9  C   UNL     1       2.679   7.012  18.810  0.00  0.00    +0.000 A 
ATOM     10  C   UNL     1       2.225   7.577  20.007  0.00  0.00    +0.000 A 
ATOM     11  C   UNL     1       1.476   8.763  20.002  0.00  0.00    +0.000 A 
BRANCH   9  12
ATOM     12  S   UNL     1       3.619   5.508  18.832  0.00  0.00    +0.000 S 
ATOM     13  O   UNL     1       3.978   5.186  17.468  0.00  0.00    +0.000 OA
ATOM     14  O   UNL     1       4.639   5.647  19.851  0.00  0.00    +0.000 OA
BRANCH  12  15
ATOM     15  N   UNL     1       2.513   4.364  19.371  0.00  0.00    +0.000 NA
ATOM     16  C   UNL     1       2.072   4.388  20.789  0.00  0.00    +0.000 C 
ATOM     17  C   UNL     1       1.565   2.983  21.150  0.00  0.00    +0.000 C 
ATOM     18  O   UNL     1       0.500   2.568  20.276  0.00  0.00    +0.000 OA
ATOM     19  C   UNL     1       0.929   2.580  18.901  0.00  0.00    +0.000 C 
ATOM     20  C   UNL     1       1.388   3.983  18.481  0.00  0.00    +0.000 C 
ENDBRANCH  12  15
ENDBRANCH   9  12
ENDBRANCH   1  11
BRANCH   2  21
ATOM     21  C   UNL     1      -0.285   9.965  23.185  0.00  0.00    +0.000 C 
BRANCH  21  22
ATOM     22  N   UNL     1      -1.035  11.195  22.916  0.00  0.00    +0.000 N 
ATOM     23  C   UNL     1      -2.296  11.384  23.465  0.00  0.00    +0.000 A 
ATOM     24  C   UNL     1      -3.013  12.503  23.230  0.00  0.00    +0.000 A 
ATOM     25  C   UNL     1      -2.459  13.505  22.336  0.00  0.00    +0.000 A 
ATOM     26  C   UNL     1      -1.232  13.374  21.815  0.00  0.00    +0.000 A 
ATOM     27 CL   UNL     1      -0.580  14.555  20.748  0.00  0.00    +0.000 Cl
ATOM     28  C   UNL     1      -0.395  12.175  22.148  0.00  0.00    +0.000 A 
ATOM     29  O   UNL     1       0.766  12.061  21.775  0.00  0.00    +0.000 OA
BRANCH  24  30
ATOM     30  C   UNL     1      -4.362  12.750  23.855  0.00  0.00    +0.000 C 
ATOM     31  F   UNL     1      -4.617  11.915  24.897  0.00  0.00    +0.000 F 
ATOM     32  F   UNL     1      -4.471  14.014  24.333  0.00  0.00    +0.000 F 
ATOM     33  F   UNL     1      -5.367  12.574  22.962  0.00  0.00    +0.000 F 
ENDBRANCH  24  30
ENDBRANCH  21  22
ENDBRANCH   2  21
TORSDOF 6
ENDMDL
MODEL 7
REMARK VINA RESULT:      -8.6      2.068      2.711
REMARK  Name = 
REMARK  7 active torsions:
REMARK  status: ('A' for Active; 'I' for Inactive)
REMARK    1  A    between atoms: C_1  and  C_2
REMARK    2  A    between atoms: C_5  and  S_6
REMARK    3  A    between atoms: S_6  and  N_9
REMARK    4  A    between atoms: C_16  and  N_17
REMARK    5  A    between atoms: C_18  and  C_20
REMARK    6  A    between atoms: C_20  and  N_21
REMARK    7  A    between atoms: C_23  and  C_24
REMARK                            x       y       z     vdW  Elec       q    Type
REMARK                         _______ _______ _______ _____ _____    ______ ____
ROOT
ATOM      1  N   UNL     1       2.119   8.398  19.345  0.00  0.00    +0.000 N 
ATOM      2  C   UNL     1       2.207   8.932  18.064  0.00  0.00    +0.000 C 
ATOM      3  O   UNL     1       2.357   8.285  17.028  0.00  0.00    +0.000 OA
ATOM      4  H   UNL     1       1.718   9.009  20.055  0.00  0.00    +0.000 HD
ENDROOT
BRANCH   1  11
ATOM      5  C   UNL     1       0.453   7.205  21.483  0.00  0.00    +0.000 C 
ATOM      6  C   UNL     1       1.485   6.440  20.693  0.00  0.00    +0.000 A 
ATOM      7  C   UNL     1       1.637   5.072  21.002  0.00  0.00    +0.000 A 
ATOM      8  C   UNL     1       2.566   4.284  20.337  0.00  0.00    +0.000 A 
ATOM      9  C   UNL     1       3.374   4.869  19.367  0.00  0.00    +0.000 A 
ATOM     10  C   UNL     1       3.263   6.231  19.065  0.00  0.00    +0.000 A 
ATOM     11  C   UNL     1       2.295   7.028  19.693  0.00  0.00    +0.000 A 
BRANCH   9  12
ATOM     12  S   UNL     1       4.607   3.874  18.569  0.00  0.00    +0.000 S 
ATOM     13  O   UNL     1       5.333   3.155  19.594  0.00  0.00    +0.000 OA
ATOM     14  O   UNL     1       3.958   3.163  17.486  0.00  0.00    +0.000 OA
BRANCH  12  15
ATOM     15  N   UNL     1       5.642   5.007  17.886  0.00  0.00    +0.000 NA
ATOM     16  C   UNL     1       7.028   5.135  18.404  0.00  0.00    +0.000 C 
ATOM     17  C   UNL     1       7.538   6.542  18.050  0.00  0.00    +0.000 C 
ATOM     18  O   UNL     1       7.484   6.777  16.631  0.00  0.00    +0.000 OA
ATOM     19  C   UNL     1       6.142   6.618  16.134  0.00  0.00    +0.000 C 
ATOM     20  C   UNL     1       5.616   5.204  16.414  0.00  0.00    +0.000 C 
ENDBRANCH  12  15
ENDBRANCH   9  12
ENDBRANCH   1  11
BRANCH   2  21
ATOM     21  C   UNL     1       1.974  10.444  17.987  0.00  0.00    +0.000 C 
BRANCH  21  22
ATOM     22  N   UNL     1       0.604  10.790  18.374  0.00  0.00    +0.000 N 
ATOM     23  C   UNL     1      -0.477  10.265  17.680  0.00  0.00    +0.000 A 
ATOM     24  C   UNL     1      -1.750  10.571  18.010  0.00  0.00    +0.000 A 
ATOM     25  C   UNL     1      -1.977  11.517  19.090  0.00  0.00    +0.000 A 
ATOM     26  C   UNL     1      -0.962  12.018  19.804  0.00  0.00    +0.000 A 
ATOM     27 CL   UNL     1      -1.230  13.145  21.075  0.00  0.00    +0.000 Cl
ATOM     28  C   UNL     1       0.449  11.608  19.499  0.00  0.00    +0.000 A 
ATOM     29  O   UNL     1       1.398  11.963  20.188  0.00  0.00    +0.000 OA
BRANCH  24  30
ATOM     30  C   UNL     1      -2.939   9.974  17.302  0.00  0.00    +0.000 C 
ATOM     31  F   UNL     1      -3.922  10.883  17.071  0.00  0.00    +0.000 F 
ATOM     32  F   UNL     1      -2.598   9.454  16.097  0.00  0.00    +0.000 F 
ATOM     33  F   UNL     1      -3.499   8.972  18.024  0.00  0.00    +0.000 F 
ENDBRANCH  24  30
ENDBRANCH  21  22
ENDBRANCH   2  21
TORSDOF 6
ENDMDL
MODEL 8
REMARK VINA RESULT:      -8.6      4.626      8.845
REMARK  Name = 
REMARK  7 active torsions:
REMARK  status: ('A' for Active; 'I' for Inactive)
REMARK    1  A    between atoms: C_1  and  C_2
REMARK    2  A    between atoms: C_5  and  S_6
REMARK    3  A    between atoms: S_6  and  N_9
REMARK    4  A    between atoms: C_16  and  N_17
REMARK    5  A    between atoms: C_18  and  C_20
REMARK    6  A    between atoms: C_20  and  N_21
REMARK    7  A    between atoms: C_23  and  C_24
REMARK                            x       y       z     vdW  Elec       q    Type
REMARK                         _______ _______ _______ _____ _____    ______ ____
ROOT
ATOM      1  N   UNL     1       3.039   6.095  19.235  0.00  0.00    +0.000 N 
ATOM      2  C   UNL     1       2.515   4.906  18.737  0.00  0.00    +0.000 C 
ATOM      3  O   UNL     1       1.395   4.769  18.245  0.00  0.00    +0.000 OA
ATOM      4  H   UNL     1       4.052   6.123  19.343  0.00  0.00    +0.000 HD
ENDROOT
BRANCH   1  11
ATOM      5  C   UNL     1       2.922   7.959  16.939  0.00  0.00    +0.000 C 
ATOM      6  C   UNL     1       2.251   8.213  18.265  0.00  0.00    +0.000 A 
ATOM      7  C   UNL     1       1.518   9.412  18.388  0.00  0.00    +0.000 A 
ATOM      8  C   UNL     1       0.872   9.741  19.572  0.00  0.00    +0.000 A 
ATOM      9  C   UNL     1       0.974   8.877  20.658  0.00  0.00    +0.000 A 
ATOM     10  C   UNL     1       1.721   7.696  20.569  0.00  0.00    +0.000 A 
ATOM     11  C   UNL     1       2.338   7.327  19.365  0.00  0.00    +0.000 A 
BRANCH   9  12
ATOM     12  S   UNL     1       0.204   9.335  22.189  0.00  0.00    +0.000 S 
ATOM     13  O   UNL     1      -0.885   8.414  22.434  0.00  0.00    +0.000 OA
ATOM     14  O   UNL     1       1.256   9.513  23.168  0.00  0.00    +0.000 OA
BRANCH  12  15
ATOM     15  N   UNL     1      -0.447  10.848  21.860  0.00  0.00    +0.000 NA
ATOM     16  C   UNL     1      -1.558  11.362  22.703  0.00  0.00    +0.000 C 
ATOM     17  C   UNL     1      -2.320  12.419  21.887  0.00  0.00    +0.000 C 
ATOM     18  O   UNL     1      -1.448  13.482  21.461  0.00  0.00    +0.000 OA
ATOM     19  C   UNL     1      -0.358  12.968  20.673  0.00  0.00    +0.000 C 
ATOM     20  C   UNL     1       0.467  11.952  21.474  0.00  0.00    +0.000 C 
ENDBRANCH  12  15
ENDBRANCH   9  12
ENDBRANCH   1  11
BRANCH   2  21
ATOM     21  C   UNL     1       3.501   3.734  18.717  0.00  0.00    +0.000 C 
BRANCH  21  22
ATOM     22  N   UNL     1       4.746   4.098  18.035  0.00  0.00    +0.000 N 
ATOM     23  C   UNL     1       4.843   4.010  16.653  0.00  0.00    +0.000 A 
ATOM     24  C   UNL     1       5.977   4.332  15.998  0.00  0.00    +0.000 A 
ATOM     25  C   UNL     1       7.137   4.732  16.777  0.00  0.00    +0.000 A 
ATOM     26  C   UNL     1       7.072   4.863  18.108  0.00  0.00    +0.000 A 
ATOM     27 CL   UNL     1       8.447   5.326  19.032  0.00  0.00    +0.000 Cl
ATOM     28  C   UNL     1       5.785   4.594  18.831  0.00  0.00    +0.000 A 
ATOM     29  O   UNL     1       5.653   4.795  20.032  0.00  0.00    +0.000 OA
BRANCH  24  30
ATOM     30  C   UNL     1       6.088   4.290  14.495  0.00  0.00    +0.000 C 
ATOM     31  F   UNL     1       6.376   3.048  14.026  0.00  0.00    +0.000 F 
ATOM     32  F   UNL     1       4.935   4.676  13.895  0.00  0.00    +0.000 F 
ATOM     33  F   UNL     1       7.067   5.112  14.043  0.00  0.00    +0.000 F 
ENDBRANCH  24  30
ENDBRANCH  21  22
ENDBRANCH   2  21
TORSDOF 6
ENDMDL
MODEL 9
REMARK VINA RESULT:      -8.6      4.364      9.403
REMARK  Name = 
REMARK  7 active torsions:
REMARK  status: ('A' for Active; 'I' for Inactive)
REMARK    1  A    between atoms: C_1  and  C_2
REMARK    2  A    between atoms: C_5  and  S_6
REMARK    3  A    between atoms: S_6  and  N_9
REMARK    4  A    between atoms: C_16  and  N_17
REMARK    5  A    between atoms: C_18  and  C_20
REMARK    6  A    between atoms: C_20  and  N_21
REMARK    7  A    between atoms: C_23  and  C_24
REMARK                            x       y       z     vdW  Elec       q    Type
REMARK                         _______ _______ _______ _____ _____    ______ ____
ROOT
ATOM      1  N   UNL     1       0.768   9.561  17.885  0.00  0.00    +0.000 N 
ATOM      2  C   UNL     1       1.695   8.705  18.471  0.00  0.00    +0.000 C 
ATOM      3  O   UNL     1       1.739   8.406  19.663  0.00  0.00    +0.000 OA
ATOM      4  H   UNL     1       0.675   9.491  16.873  0.00  0.00    +0.000 HD
ENDROOT
BRANCH   1  11
ATOM      5  C   UNL     1      -1.877  10.011  16.633  0.00  0.00    +0.000 C 
ATOM      6  C   UNL     1      -1.494  10.520  17.999  0.00  0.00    +0.000 A 
ATOM      7  C   UNL     1      -2.478  11.241  18.708  0.00  0.00    +0.000 A 
ATOM      8  C   UNL     1      -2.220  11.758  19.970  0.00  0.00    +0.000 A 
ATOM      9  C   UNL     1      -0.957  11.578  20.527  0.00  0.00    +0.000 A 
ATOM     10  C   UNL     1       0.045  10.894  19.829  0.00  0.00    +0.000 A 
ATOM     11  C   UNL     1      -0.217  10.323  18.575  0.00  0.00    +0.000 A 
BRANCH   9  12
ATOM     12  S   UNL     1      -0.612  12.301  22.110  0.00  0.00    +0.000 S 
ATOM     13  O   UNL     1      -0.378  11.227  23.050  0.00  0.00    +0.000 OA
ATOM     14  O   UNL     1       0.382  13.335  21.907  0.00  0.00    +0.000 OA
BRANCH  12  15
ATOM     15  N   UNL     1      -2.056  13.056  22.518  0.00  0.00    +0.000 NA
ATOM     16  C   UNL     1      -2.975  12.398  23.483  0.00  0.00    +0.000 C 
ATOM     17  C   UNL     1      -4.387  12.956  23.245  0.00  0.00    +0.000 C 
ATOM     18  O   UNL     1      -4.417  14.388  23.383  0.00  0.00    +0.000 OA
ATOM     19  C   UNL     1      -3.499  15.012  22.467  0.00  0.00    +0.000 C 
ATOM     20  C   UNL     1      -2.064  14.528  22.711  0.00  0.00    +0.000 C 
ENDBRANCH  12  15
ENDBRANCH   9  12
ENDBRANCH   1  11
BRANCH   2  21
ATOM     21  C   UNL     1       2.639   8.015  17.480  0.00  0.00    +0.000 C 
BRANCH  21  22
ATOM     22  N   UNL     1       3.035   6.688  17.959  0.00  0.00    +0.000 N 
ATOM     23  C   UNL     1       2.081   5.796  18.428  0.00  0.00    +0.000 A 
ATOM     24  C   UNL     1       2.416   4.570  18.881  0.00  0.00    +0.000 A 
ATOM     25  C   UNL     1       3.823   4.207  18.921  0.00  0.00    +0.000 A 
ATOM     26  C   UNL     1       4.769   5.027  18.447  0.00  0.00    +0.000 A 
ATOM     27 CL   UNL     1       6.434   4.603  18.504  0.00  0.00    +0.000 Cl
ATOM     28  C   UNL     1       4.390   6.354  17.858  0.00  0.00    +0.000 A 
ATOM     29  O   UNL     1       5.210   7.092  17.323  0.00  0.00    +0.000 OA
BRANCH  24  30
ATOM     30  C   UNL     1       1.391   3.567  19.347  0.00  0.00    +0.000 C 
ATOM     31  F   UNL     1       0.655   3.058  18.326  0.00  0.00    +0.000 F 
ATOM     32  F   UNL     1       1.969   2.513  19.975  0.00  0.00    +0.000 F 
ATOM     33  F   UNL     1       0.514   4.119  20.221  0.00  0.00    +0.000 F 
ENDBRANCH  24  30
ENDBRANCH  21  22
ENDBRANCH   2  21
TORSDOF 6
ENDMDL
