MODEL 1
REMARK VINA RESULT:      -7.7      0.000      0.000
REMARK  Name = 
REMARK  6 active torsions:
REMARK  status: ('A' for Active; 'I' for Inactive)
REMARK    1  A    between atoms: C_2  and  C_3
REMARK    2  A    between atoms: C_10  and  C_11
REMARK    3  A    between atoms: C_11  and  O_12
REMARK    4  A    between atoms: C_11  and  C_13
REMARK    5  A    between atoms: C_20  and  O_21
REMARK    6  A    between atoms: O_21  and  C_22
REMARK                            x       y       z     vdW  Elec       q    Type
REMARK                         _______ _______ _______ _____ _____    ______ ____
ROOT
ATOM      1  C   UNL     1       3.758   3.621  17.597  0.00  0.00    +0.000 C 
ENDROOT
BRANCH   1   2
ATOM      2  C   UNL     1       2.870   3.747  18.843  0.00  0.00    +0.000 A 
ATOM      3  C   UNL     1       2.506   2.599  19.566  0.00  0.00    +0.000 A 
ATOM      4  C   UNL     1       1.723   2.748  20.700  0.00  0.00    +0.000 A 
ATOM      5  N   UNL     1       1.279   3.918  21.173  0.00  0.00    +0.000 NA
ATOM      6  C   UNL     1       1.604   5.031  20.506  0.00  0.00    +0.000 A 
ATOM      7  C   UNL     1       1.180   6.273  21.016  0.00  0.00    +0.000 A 
ATOM      8  C   UNL     1       1.507   7.490  20.404  0.00  0.00    +0.000 A 
ATOM      9  C   UNL     1       2.221   7.476  19.215  0.00  0.00    +0.000 A 
ATOM     10  C   UNL     1       2.590   6.244  18.659  0.00  0.00    +0.000 A 
ATOM     11  C   UNL     1       2.367   5.003  19.309  0.00  0.00    +0.000 A 
BRANCH   9  12
ATOM     12  O   UNL     1       2.648   8.550  18.492  0.00  0.00    +0.000 OA
ATOM     13  C   UNL     1       1.689   9.467  17.983  0.00  0.00    +0.000 C 
ENDBRANCH   9  12
ENDBRANCH   1   2
BRANCH   1  21
ATOM     14  C   UNL     1       7.097   6.324  16.448  0.00  0.00    +0.000 C 
ATOM     15  C   UNL     1       5.620   6.574  16.000  0.00  0.00    +0.000 C 
ATOM     16  N   UNL     1       4.834   5.313  15.935  0.00  0.00    +0.000 NA
ATOM     17  C   UNL     1       5.481   4.390  14.970  0.00  0.00    +0.000 C 
ATOM     18  C   UNL     1       6.965   4.161  15.274  0.00  0.00    +0.000 C 
ATOM     19  C   UNL     1       7.294   4.805  16.620  0.00  0.00    +0.000 C 
ATOM     20  C   UNL     1       6.284   4.264  17.659  0.00  0.00    +0.000 C 
ATOM     21  C   UNL     1       4.840   4.732  17.302  0.00  0.00    +0.000 C 
BRANCH  14  23
ATOM     22  C   UNL     1       7.961   8.329  17.731  0.00  0.00    +0.000 C 
ATOM     23  C   UNL     1       7.550   7.049  17.699  0.00  0.00    +0.000 C 
ENDBRANCH  14  23
ENDBRANCH   1  21
BRANCH   1  24
ATOM     24  O   UNL     1       4.440   2.362  17.703  0.00  0.00    +0.000 OA
ATOM     25  H   UNL     1       5.209   2.407  17.111  0.00  0.00    +0.000 HD
ENDBRANCH   1  24
TORSDOF 5
ENDMDL
MODEL 2
REMARK VINA RESULT:      -7.4      2.309      6.585
REMARK  Name = 
REMARK  6 active torsions:
REMARK  status: ('A' for Active; 'I' for Inactive)
REMARK    1  A    between atoms: C_2  and  C_3
REMARK    2  A    between atoms: C_10  and  C_11
REMARK    3  A    between atoms: C_11  and  O_12
REMARK    4  A    between atoms: C_11  and  C_13
REMARK    5  A    between atoms: C_20  and  O_21
REMARK    6  A    between atoms: O_21  and  C_22
REMARK                            x       y       z     vdW  Elec       q    Type
REMARK                         _______ _______ _______ _____ _____    ______ ____
ROOT
ATOM      1  C   UNL     1       3.558   5.852  17.374  0.00  0.00    +0.000 C 
ENDROOT
BRANCH   1   2
ATOM      2  C   UNL     1       5.049   6.022  17.050  0.00  0.00    +0.000 A 
ATOM      3  C   UNL     1       5.888   6.711  17.940  0.00  0.00    +0.000 A 
ATOM      4  C   UNL     1       7.234   6.828  17.630  0.00  0.00    +0.000 A 
ATOM      5  N   UNL     1       7.810   6.327  16.532  0.00  0.00    +0.000 NA
ATOM      6  C   UNL     1       7.038   5.669  15.659  0.00  0.00    +0.000 A 
ATOM      7  C   UNL     1       7.639   5.098  14.520  0.00  0.00    +0.000 A 
ATOM      8  C   UNL     1       6.915   4.360  13.576  0.00  0.00    +0.000 A 
ATOM      9  C   UNL     1       5.542   4.235  13.728  0.00  0.00    +0.000 A 
ATOM     10  C   UNL     1       4.920   4.856  14.820  0.00  0.00    +0.000 A 
ATOM     11  C   UNL     1       5.639   5.518  15.848  0.00  0.00    +0.000 A 
BRANCH   9  12
ATOM     12  O   UNL     1       4.679   3.543  12.932  0.00  0.00    +0.000 OA
ATOM     13  C   UNL     1       5.184   2.858  11.794  0.00  0.00    +0.000 C 
ENDBRANCH   9  12
ENDBRANCH   1   2
BRANCH   1  21
ATOM     14  C   UNL     1       2.190   2.438  19.876  0.00  0.00    +0.000 C 
ATOM     15  C   UNL     1       3.655   2.984  19.925  0.00  0.00    +0.000 C 
ATOM     16  N   UNL     1       4.053   3.635  18.648  0.00  0.00    +0.000 NA
ATOM     17  C   UNL     1       3.944   2.645  17.547  0.00  0.00    +0.000 C 
ATOM     18  C   UNL     1       2.563   1.982  17.483  0.00  0.00    +0.000 C 
ATOM     19  C   UNL     1       1.632   2.695  18.462  0.00  0.00    +0.000 C 
ATOM     20  C   UNL     1       1.688   4.208  18.147  0.00  0.00    +0.000 C 
ATOM     21  C   UNL     1       3.115   4.766  18.431  0.00  0.00    +0.000 C 
BRANCH  14  23
ATOM     22  C   UNL     1       1.225   2.620  22.210  0.00  0.00    +0.000 C 
ATOM     23  C   UNL     1       1.236   2.988  20.916  0.00  0.00    +0.000 C 
ENDBRANCH  14  23
ENDBRANCH   1  21
BRANCH   1  24
ATOM     24  O   UNL     1       3.089   7.128  17.835  0.00  0.00    +0.000 OA
ATOM     25  H   UNL     1       3.805   7.766  17.677  0.00  0.00    +0.000 HD
ENDBRANCH   1  24
TORSDOF 5
ENDMDL
MODEL 3
REMARK VINA RESULT:      -7.3      2.167      6.793
REMARK  Name = 
REMARK  6 active torsions:
REMARK  status: ('A' for Active; 'I' for Inactive)
REMARK    1  A    between atoms: C_2  and  C_3
REMARK    2  A    between atoms: C_10  and  C_11
REMARK    3  A    between atoms: C_11  and  O_12
REMARK    4  A    between atoms: C_11  and  C_13
REMARK    5  A    between atoms: C_20  and  O_21
REMARK    6  A    between atoms: O_21  and  C_22
REMARK                            x       y       z     vdW  Elec       q    Type
REMARK                         _______ _______ _______ _____ _____    ______ ____
ROOT
ATOM      1  C   UNL     1       4.273   3.447  16.913  0.00  0.00    +0.000 C 
ENDROOT
BRANCH   1   2
ATOM      2  C   UNL     1       5.436   4.354  16.486  0.00  0.00    +0.000 A 
ATOM      3  C   UNL     1       6.041   5.208  17.421  0.00  0.00    +0.000 A 
ATOM      4  C   UNL     1       7.104   5.997  17.011  0.00  0.00    +0.000 A 
ATOM      5  N   UNL     1       7.612   6.010  15.774  0.00  0.00    +0.000 NA
ATOM      6  C   UNL     1       7.055   5.212  14.855  0.00  0.00    +0.000 A 
ATOM      7  C   UNL     1       7.606   5.183  13.560  0.00  0.00    +0.000 A 
ATOM      8  C   UNL     1       7.112   4.349  12.549  0.00  0.00    +0.000 A 
ATOM      9  C   UNL     1       5.997   3.566  12.807  0.00  0.00    +0.000 A 
ATOM     10  C   UNL     1       5.396   3.635  14.071  0.00  0.00    +0.000 A 
ATOM     11  C   UNL     1       5.936   4.387  15.145  0.00  0.00    +0.000 A 
BRANCH   9  12
ATOM     12  O   UNL     1       5.391   2.683  11.964  0.00  0.00    +0.000 OA
ATOM     13  C   UNL     1       4.254   3.101  11.223  0.00  0.00    +0.000 C 
ENDBRANCH   9  12
ENDBRANCH   1   2
BRANCH   1  21
ATOM     14  C   UNL     1       1.887   3.816  20.648  0.00  0.00    +0.000 C 
ATOM     15  C   UNL     1       3.145   2.893  20.540  0.00  0.00    +0.000 C 
ATOM     16  N   UNL     1       3.388   2.439  19.145  0.00  0.00    +0.000 NA
ATOM     17  C   UNL     1       2.200   1.690  18.667  0.00  0.00    +0.000 C 
ATOM     18  C   UNL     1       0.898   2.484  18.825  0.00  0.00    +0.000 C 
ATOM     19  C   UNL     1       1.243   3.910  19.250  0.00  0.00    +0.000 C 
ATOM     20  C   UNL     1       2.272   4.466  18.239  0.00  0.00    +0.000 C 
ATOM     21  C   UNL     1       3.604   3.660  18.326  0.00  0.00    +0.000 C 
BRANCH  14  23
ATOM     22  C   UNL     1       1.509   6.317  20.757  0.00  0.00    +0.000 C 
ATOM     23  C   UNL     1       2.120   5.205  21.204  0.00  0.00    +0.000 C 
ENDBRANCH  14  23
ENDBRANCH   1  21
BRANCH   1  24
ATOM     24  O   UNL     1       3.249   3.595  15.917  0.00  0.00    +0.000 OA
ATOM     25  H   UNL     1       2.898   2.707  15.738  0.00  0.00    +0.000 HD
ENDBRANCH   1  24
TORSDOF 5
ENDMDL
MODEL 4
REMARK VINA RESULT:      -6.8      1.091      1.425
REMARK  Name = 
REMARK  6 active torsions:
REMARK  status: ('A' for Active; 'I' for Inactive)
REMARK    1  A    between atoms: C_2  and  C_3
REMARK    2  A    between atoms: C_10  and  C_11
REMARK    3  A    between atoms: C_11  and  O_12
REMARK    4  A    between atoms: C_11  and  C_13
REMARK    5  A    between atoms: C_20  and  O_21
REMARK    6  A    between atoms: O_21  and  C_22
REMARK                            x       y       z     vdW  Elec       q    Type
REMARK                         _______ _______ _______ _____ _____    ______ ____
ROOT
ATOM      1  C   UNL     1       3.862   4.934  17.309  0.00  0.00    +0.000 C 
ENDROOT
BRANCH   1   2
ATOM      2  C   UNL     1       3.123   4.820  18.650  0.00  0.00    +0.000 A 
ATOM      3  C   UNL     1       3.079   3.591  19.327  0.00  0.00    +0.000 A 
ATOM      4  C   UNL     1       2.424   3.526  20.547  0.00  0.00    +0.000 A 
ATOM      5  N   UNL     1       1.820   4.560  21.144  0.00  0.00    +0.000 NA
ATOM      6  C   UNL     1       1.838   5.745  20.523  0.00  0.00    +0.000 A 
ATOM      7  C   UNL     1       1.244   6.851  21.161  0.00  0.00    +0.000 A 
ATOM      8  C   UNL     1       1.251   8.136  20.602  0.00  0.00    +0.000 A 
ATOM      9  C   UNL     1       1.806   8.320  19.344  0.00  0.00    +0.000 A 
ATOM     10  C   UNL     1       2.339   7.215  18.668  0.00  0.00    +0.000 A 
ATOM     11  C   UNL     1       2.443   5.927  19.252  0.00  0.00    +0.000 A 
BRANCH   9  12
ATOM     12  O   UNL     1       1.924   9.490  18.654  0.00  0.00    +0.000 OA
ATOM     13  C   UNL     1       0.779  10.314  18.486  0.00  0.00    +0.000 C 
ENDBRANCH   9  12
ENDBRANCH   1   2
BRANCH   1  21
ATOM     14  C   UNL     1       7.782   7.035  17.316  0.00  0.00    +0.000 C 
ATOM     15  C   UNL     1       7.061   6.603  15.997  0.00  0.00    +0.000 C 
ATOM     16  N   UNL     1       6.167   5.431  16.205  0.00  0.00    +0.000 NA
ATOM     17  C   UNL     1       6.975   4.292  16.708  0.00  0.00    +0.000 C 
ATOM     18  C   UNL     1       7.797   4.653  17.950  0.00  0.00    +0.000 C 
ATOM     19  C   UNL     1       7.380   6.044  18.426  0.00  0.00    +0.000 C 
ATOM     20  C   UNL     1       5.843   6.042  18.592  0.00  0.00    +0.000 C 
ATOM     21  C   UNL     1       5.151   5.839  17.209  0.00  0.00    +0.000 C 
BRANCH  14  23
ATOM     22  C   UNL     1       8.503   9.305  18.175  0.00  0.00    +0.000 C 
ATOM     23  C   UNL     1       7.538   8.456  17.779  0.00  0.00    +0.000 C 
ENDBRANCH  14  23
ENDBRANCH   1  21
BRANCH   1  24
ATOM     24  O   UNL     1       4.233   3.600  16.930  0.00  0.00    +0.000 OA
ATOM     25  H   UNL     1       3.658   2.994  17.426  0.00  0.00    +0.000 HD
ENDBRANCH   1  24
TORSDOF 5
ENDMDL
MODEL 5
REMARK VINA RESULT:      -6.7      1.598      2.752
REMARK  Name = 
REMARK  6 active torsions:
REMARK  status: ('A' for Active; 'I' for Inactive)
REMARK    1  A    between atoms: C_2  and  C_3
REMARK    2  A    between atoms: C_10  and  C_11
REMARK    3  A    between atoms: C_11  and  O_12
REMARK    4  A    between atoms: C_11  and  C_13
REMARK    5  A    between atoms: C_20  and  O_21
REMARK    6  A    between atoms: O_21  and  C_22
REMARK                            x       y       z     vdW  Elec       q    Type
REMARK                         _______ _______ _______ _____ _____    ______ ____
ROOT
ATOM      1  C   UNL     1       5.969   4.268  19.034  0.00  0.00    +0.000 C 
ENDROOT
BRANCH   1   2
ATOM      2  C   UNL     1       4.646   3.694  19.559  0.00  0.00    +0.000 A 
ATOM      3  C   UNL     1       4.546   2.329  19.872  0.00  0.00    +0.000 A 
ATOM      4  C   UNL     1       3.345   1.845  20.366  0.00  0.00    +0.000 A 
ATOM      5  N   UNL     1       2.252   2.587  20.574  0.00  0.00    +0.000 NA
ATOM      6  C   UNL     1       2.310   3.892  20.281  0.00  0.00    +0.000 A 
ATOM      7  C   UNL     1       1.181   4.693  20.536  0.00  0.00    +0.000 A 
ATOM      8  C   UNL     1       1.167   6.073  20.296  0.00  0.00    +0.000 A 
ATOM      9  C   UNL     1       2.282   6.669  19.727  0.00  0.00    +0.000 A 
ATOM     10  C   UNL     1       3.388   5.872  19.404  0.00  0.00    +0.000 A 
ATOM     11  C   UNL     1       3.473   4.495  19.733  0.00  0.00    +0.000 A 
BRANCH   9  12
ATOM     12  O   UNL     1       2.462   7.990  19.444  0.00  0.00    +0.000 OA
ATOM     13  C   UNL     1       2.276   8.444  18.111  0.00  0.00    +0.000 C 
ENDBRANCH   9  12
ENDBRANCH   1   2
BRANCH   1  21
ATOM     14  C   UNL     1       6.205   5.023  14.658  0.00  0.00    +0.000 C 
ATOM     15  C   UNL     1       7.415   5.259  15.619  0.00  0.00    +0.000 C 
ATOM     16  N   UNL     1       6.977   5.558  17.009  0.00  0.00    +0.000 NA
ATOM     17  C   UNL     1       6.128   6.775  16.996  0.00  0.00    +0.000 C 
ATOM     18  C   UNL     1       4.964   6.673  16.005  0.00  0.00    +0.000 C 
ATOM     19  C   UNL     1       4.908   5.246  15.460  0.00  0.00    +0.000 C 
ATOM     20  C   UNL     1       4.871   4.283  16.670  0.00  0.00    +0.000 C 
ATOM     21  C   UNL     1       6.201   4.381  17.477  0.00  0.00    +0.000 C 
BRANCH  14  23
ATOM     22  C   UNL     1       6.104   3.517  12.625  0.00  0.00    +0.000 C 
ATOM     23  C   UNL     1       6.156   3.680  13.959  0.00  0.00    +0.000 C 
ENDBRANCH  14  23
ENDBRANCH   1  21
BRANCH   1  24
ATOM     24  O   UNL     1       6.097   5.584  19.592  0.00  0.00    +0.000 OA
ATOM     25  H   UNL     1       5.537   6.173  19.059  0.00  0.00    +0.000 HD
ENDBRANCH   1  24
TORSDOF 5
ENDMDL
MODEL 6
REMARK VINA RESULT:      -6.7      1.225      2.201
REMARK  Name = 
REMARK  6 active torsions:
REMARK  status: ('A' for Active; 'I' for Inactive)
REMARK    1  A    between atoms: C_2  and  C_3
REMARK    2  A    between atoms: C_10  and  C_11
REMARK    3  A    between atoms: C_11  and  O_12
REMARK    4  A    between atoms: C_11  and  C_13
REMARK    5  A    between atoms: C_20  and  O_21
REMARK    6  A    between atoms: O_21  and  C_22
REMARK                            x       y       z     vdW  Elec       q    Type
REMARK                         _______ _______ _______ _____ _____    ______ ____
ROOT
ATOM      1  C   UNL     1       3.086   3.832  17.293  0.00  0.00    +0.000 C 
ENDROOT
BRANCH   1   2
ATOM      2  C   UNL     1       2.708   4.220  18.730  0.00  0.00    +0.000 A 
ATOM      3  C   UNL     1       2.707   3.248  19.743  0.00  0.00    +0.000 A 
ATOM      4  C   UNL     1       2.384   3.635  21.035  0.00  0.00    +0.000 A 
ATOM      5  N   UNL     1       2.069   4.882  21.402  0.00  0.00    +0.000 NA
ATOM      6  C   UNL     1       2.055   5.832  20.459  0.00  0.00    +0.000 A 
ATOM      7  C   UNL     1       1.767   7.157  20.839  0.00  0.00    +0.000 A 
ATOM      8  C   UNL     1       1.769   8.219  19.926  0.00  0.00    +0.000 A 
ATOM      9  C   UNL     1       1.999   7.954  18.584  0.00  0.00    +0.000 A 
ATOM     10  C   UNL     1       2.219   6.630  18.181  0.00  0.00    +0.000 A 
ATOM     11  C   UNL     1       2.329   5.551  19.095  0.00  0.00    +0.000 A 
BRANCH   9  12
ATOM     12  O   UNL     1       2.062   8.852  17.561  0.00  0.00    +0.000 OA
ATOM     13  C   UNL     1       2.026  10.241  17.855  0.00  0.00    +0.000 C 
ENDBRANCH   9  12
ENDBRANCH   1   2
BRANCH   1  21
ATOM     14  C   UNL     1       7.056   5.396  16.040  0.00  0.00    +0.000 C 
ATOM     15  C   UNL     1       6.897   4.120  16.930  0.00  0.00    +0.000 C 
ATOM     16  N   UNL     1       5.636   4.142  17.719  0.00  0.00    +0.000 NA
ATOM     17  C   UNL     1       5.634   5.342  18.593  0.00  0.00    +0.000 C 
ATOM     18  C   UNL     1       5.882   6.639  17.815  0.00  0.00    +0.000 C 
ATOM     19  C   UNL     1       5.859   6.326  16.320  0.00  0.00    +0.000 C 
ATOM     20  C   UNL     1       4.538   5.581  16.017  0.00  0.00    +0.000 C 
ATOM     21  C   UNL     1       4.518   4.201  16.743  0.00  0.00    +0.000 C 
BRANCH  14  23
ATOM     22  C   UNL     1       6.716   4.080  13.904  0.00  0.00    +0.000 C 
ATOM     23  C   UNL     1       7.190   5.161  14.550  0.00  0.00    +0.000 C 
ENDBRANCH  14  23
ENDBRANCH   1  21
BRANCH   1  24
ATOM     24  O   UNL     1       2.934   2.407  17.199  0.00  0.00    +0.000 OA
ATOM     25  H   UNL     1       2.093   2.242  16.742  0.00  0.00    +0.000 HD
ENDBRANCH   1  24
TORSDOF 5
ENDMDL
MODEL 7
REMARK VINA RESULT:      -6.7      3.359      5.735
REMARK  Name = 
REMARK  6 active torsions:
REMARK  status: ('A' for Active; 'I' for Inactive)
REMARK    1  A    between atoms: C_2  and  C_3
REMARK    2  A    between atoms: C_10  and  C_11
REMARK    3  A    between atoms: C_11  and  O_12
REMARK    4  A    between atoms: C_11  and  C_13
REMARK    5  A    between atoms: C_20  and  O_21
REMARK    6  A    between atoms: O_21  and  C_22
REMARK                            x       y       z     vdW  Elec       q    Type
REMARK                         _______ _______ _______ _____ _____    ______ ____
ROOT
ATOM      1  C   UNL     1       1.562   6.221  20.452  0.00  0.00    +0.000 C 
ENDROOT
BRANCH   1   2
ATOM      2  C   UNL     1       1.676   7.500  19.610  0.00  0.00    +0.000 A 
ATOM      3  C   UNL     1       2.329   7.468  18.368  0.00  0.00    +0.000 A 
ATOM      4  C   UNL     1       2.394   8.634  17.620  0.00  0.00    +0.000 A 
ATOM      5  N   UNL     1       1.875   9.809  17.993  0.00  0.00    +0.000 NA
ATOM      6  C   UNL     1       1.249   9.876  19.174  0.00  0.00    +0.000 A 
ATOM      7  C   UNL     1       0.659  11.095  19.559  0.00  0.00    +0.000 A 
ATOM      8  C   UNL     1      -0.047  11.244  20.759  0.00  0.00    +0.000 A 
ATOM      9  C   UNL     1      -0.119  10.172  21.636  0.00  0.00    +0.000 A 
ATOM     10  C   UNL     1       0.522   8.973  21.298  0.00  0.00    +0.000 A 
ATOM     11  C   UNL     1       1.152   8.759  20.045  0.00  0.00    +0.000 A 
BRANCH   9  12
ATOM     12  O   UNL     1      -0.775  10.120  22.830  0.00  0.00    +0.000 OA
ATOM     13  C   UNL     1      -1.594  11.214  23.218  0.00  0.00    +0.000 C 
ENDBRANCH   9  12
ENDBRANCH   1   2
BRANCH   1  21
ATOM     14  C   UNL     1       2.460   2.095  19.057  0.00  0.00    +0.000 C 
ATOM     15  C   UNL     1       1.005   2.665  19.115  0.00  0.00    +0.000 C 
ATOM     16  N   UNL     1       0.863   3.732  20.143  0.00  0.00    +0.000 NA
ATOM     17  C   UNL     1       1.214   3.171  21.471  0.00  0.00    +0.000 C 
ATOM     18  C   UNL     1       2.592   2.500  21.484  0.00  0.00    +0.000 C 
ATOM     19  C   UNL     1       3.289   2.787  20.155  0.00  0.00    +0.000 C 
ATOM     20  C   UNL     1       3.269   4.318  19.936  0.00  0.00    +0.000 C 
ATOM     21  C   UNL     1       1.802   4.819  19.767  0.00  0.00    +0.000 C 
BRANCH  14  23
ATOM     22  C   UNL     1       2.900   3.141  16.793  0.00  0.00    +0.000 C 
ATOM     23  C   UNL     1       3.171   2.207  17.724  0.00  0.00    +0.000 C 
ENDBRANCH  14  23
ENDBRANCH   1  21
BRANCH   1  24
ATOM     24  O   UNL     1       2.506   6.351  21.526  0.00  0.00    +0.000 OA
ATOM     25  H   UNL     1       2.072   6.870  22.223  0.00  0.00    +0.000 HD
ENDBRANCH   1  24
TORSDOF 5
ENDMDL
MODEL 8
REMARK VINA RESULT:      -6.6      2.256      6.696
REMARK  Name = 
REMARK  6 active torsions:
REMARK  status: ('A' for Active; 'I' for Inactive)
REMARK    1  A    between atoms: C_2  and  C_3
REMARK    2  A    between atoms: C_10  and  C_11
REMARK    3  A    between atoms: C_11  and  O_12
REMARK    4  A    between atoms: C_11  and  C_13
REMARK    5  A    between atoms: C_20  and  O_21
REMARK    6  A    between atoms: O_21  and  C_22
REMARK                            x       y       z     vdW  Elec       q    Type
REMARK                         _______ _______ _______ _____ _____    ______ ____
ROOT
ATOM      1  C   UNL     1       3.651   5.162  17.280  0.00  0.00    +0.000 C 
ENDROOT
BRANCH   1   2
ATOM      2  C   UNL     1       5.078   5.564  16.881  0.00  0.00    +0.000 A 
ATOM      3  C   UNL     1       5.869   6.315  17.764  0.00  0.00    +0.000 A 
ATOM      4  C   UNL     1       7.162   6.642  17.385  0.00  0.00    +0.000 A 
ATOM      5  N   UNL     1       7.728   6.293  16.225  0.00  0.00    +0.000 NA
ATOM      6  C   UNL     1       6.999   5.581  15.357  0.00  0.00    +0.000 A 
ATOM      7  C   UNL     1       7.597   5.169  14.150  0.00  0.00    +0.000 A 
ATOM      8  C   UNL     1       6.921   4.389  13.203  0.00  0.00    +0.000 A 
ATOM      9  C   UNL     1       5.592   4.060  13.426  0.00  0.00    +0.000 A 
ATOM     10  C   UNL     1       4.964   4.521  14.590  0.00  0.00    +0.000 A 
ATOM     11  C   UNL     1       5.651   5.219  15.616  0.00  0.00    +0.000 A 
BRANCH   9  12
ATOM     12  O   UNL     1       4.784   3.297  12.637  0.00  0.00    +0.000 OA
ATOM     13  C   UNL     1       5.370   2.454  11.655  0.00  0.00    +0.000 C 
ENDBRANCH   9  12
ENDBRANCH   1   2
BRANCH   1  21
ATOM     14  C   UNL     1       2.560   2.292  20.498  0.00  0.00    +0.000 C 
ATOM     15  C   UNL     1       2.589   1.891  18.987  0.00  0.00    +0.000 C 
ATOM     16  N   UNL     1       2.352   3.057  18.093  0.00  0.00    +0.000 NA
ATOM     17  C   UNL     1       1.027   3.645  18.410  0.00  0.00    +0.000 C 
ATOM     18  C   UNL     1       0.870   3.983  19.897  0.00  0.00    +0.000 C 
ATOM     19  C   UNL     1       2.220   3.793  20.587  0.00  0.00    +0.000 C 
ATOM     20  C   UNL     1       3.269   4.613  19.800  0.00  0.00    +0.000 C 
ATOM     21  C   UNL     1       3.438   4.033  18.363  0.00  0.00    +0.000 C 
BRANCH  14  23
ATOM     22  C   UNL     1       4.972   1.567  20.759  0.00  0.00    +0.000 C 
ATOM     23  C   UNL     1       3.815   1.999  21.293  0.00  0.00    +0.000 C 
ENDBRANCH  14  23
ENDBRANCH   1  21
BRANCH   1  24
ATOM     24  O   UNL     1       3.006   6.353  17.757  0.00  0.00    +0.000 OA
ATOM     25  H   UNL     1       2.064   6.140  17.868  0.00  0.00    +0.000 HD
ENDBRANCH   1  24
TORSDOF 5
ENDMDL
MODEL 9
REMARK VINA RESULT:      -6.6      2.415      6.336
REMARK  Name = 
REMARK  6 active torsions:
REMARK  status: ('A' for Active; 'I' for Inactive)
REMARK    1  A    between atoms: C_2  and  C_3
REMARK    2  A    between atoms: C_10  and  C_11
REMARK    3  A    between atoms: C_11  and  O_12
REMARK    4  A    between atoms: C_11  and  C_13
REMARK    5  A    between atoms: C_20  and  O_21
REMARK    6  A    between atoms: O_21  and  C_22
REMARK                            x       y       z     vdW  Elec       q    Type
REMARK                         _______ _______ _______ _____ _____    ______ ____
ROOT
ATOM      1  C   UNL     1       2.071   7.703  20.092  0.00  0.00    +0.000 C 
ENDROOT
BRANCH   1   2
ATOM      2  C   UNL     1       2.181   6.200  19.801  0.00  0.00    +0.000 A 
ATOM      3  C   UNL     1       1.345   5.291  20.468  0.00  0.00    +0.000 A 
ATOM      4  C   UNL     1       1.452   3.943  20.166  0.00  0.00    +0.000 A 
ATOM      5  N   UNL     1       2.303   3.427  19.272  0.00  0.00    +0.000 NA
ATOM      6  C   UNL     1       3.119   4.264  18.621  0.00  0.00    +0.000 A 
ATOM      7  C   UNL     1       3.989   3.740  17.647  0.00  0.00    +0.000 A 
ATOM      8  C   UNL     1       4.848   4.548  16.891  0.00  0.00    +0.000 A 
ATOM      9  C   UNL     1       4.895   5.909  17.152  0.00  0.00    +0.000 A 
ATOM     10  C   UNL     1       4.085   6.435  18.167  0.00  0.00    +0.000 A 
ATOM     11  C   UNL     1       3.129   5.662  18.873  0.00  0.00    +0.000 A 
BRANCH   9  12
ATOM     12  O   UNL     1       5.645   6.850  16.511  0.00  0.00    +0.000 OA
ATOM     13  C   UNL     1       6.890   7.244  17.071  0.00  0.00    +0.000 C 
ENDBRANCH   9  12
ENDBRANCH   1   2
BRANCH   1  21
ATOM     14  C   UNL     1      -0.687  10.593  18.136  0.00  0.00    +0.000 C 
ATOM     15  C   UNL     1       0.075   9.485  17.338  0.00  0.00    +0.000 C 
ATOM     16  N   UNL     1       1.342   9.084  18.008  0.00  0.00    +0.000 NA
ATOM     17  C   UNL     1       2.218  10.275  18.135  0.00  0.00    +0.000 C 
ATOM     18  C   UNL     1       1.519  11.453  18.823  0.00  0.00    +0.000 C 
ATOM     19  C   UNL     1       0.170  10.976  19.359  0.00  0.00    +0.000 C 
ATOM     20  C   UNL     1       0.427   9.722  20.228  0.00  0.00    +0.000 C 
ATOM     21  C   UNL     1       0.973   8.558  19.347  0.00  0.00    +0.000 C 
BRANCH  14  23
ATOM     22  C   UNL     1      -3.060   9.794  17.761  0.00  0.00    +0.000 C 
ATOM     23  C   UNL     1      -2.095  10.252  18.579  0.00  0.00    +0.000 C 
ENDBRANCH  14  23
ENDBRANCH   1  21
BRANCH   1  24
ATOM     24  O   UNL     1       1.844   7.833  21.503  0.00  0.00    +0.000 OA
ATOM     25  H   UNL     1       1.959   6.949  21.891  0.00  0.00    +0.000 HD
ENDBRANCH   1  24
TORSDOF 5
ENDMDL
