MODEL 1
REMARK VINA RESULT:      -7.5      0.000      0.000
REMARK  Name = 
REMARK  8 active torsions:
REMARK  status: ('A' for Active; 'I' for Inactive)
REMARK    1  A    between atoms: C_1  and  O_2
REMARK    2  A    between atoms: O_2  and  C_3
REMARK    3  A    between atoms: C_3  and  C_5
REMARK    4  A    between atoms: C_11  and  O_12
REMARK    5  A    between atoms: O_12  and  C_13
REMARK    6  A    between atoms: C_13  and  C_15
REMARK    7  A    between atoms: N_21  and  S_22
REMARK    8  A    between atoms: S_22  and  N_25
REMARK                            x       y       z     vdW  Elec       q    Type
REMARK                         _______ _______ _______ _____ _____    ______ ____
ROOT
ATOM      1  C   UNL     1       4.640   6.718  18.333  0.00  0.00    +0.000 C 
ATOM      2  C   UNL     1       5.703   6.894  17.196  0.00  0.00    +0.000 C 
ATOM      3  C   UNL     1       6.966   7.697  17.614  0.00  0.00    +0.000 C 
ATOM      4  C   UNL     1       8.018   6.645  18.023  0.00  0.00    +0.000 C 
ATOM      5  C   UNL     1       7.183   5.354  18.106  0.00  0.00    +0.000 C 
ATOM      6  C   UNL     1       6.425   5.474  19.482  0.00  0.00    +0.000 C 
ATOM      7  C   UNL     1       4.921   5.484  19.248  0.00  0.00    +0.000 C 
ATOM      8  N   UNL     1       6.322   5.589  16.912  0.00  0.00    +0.000 NA
ENDROOT
BRANCH   8   9
ATOM      9  S   UNL     1       5.583   4.666  15.705  0.00  0.00    +0.000 S 
ATOM     10  O   UNL     1       4.811   3.631  16.361  0.00  0.00    +0.000 OA
ATOM     11  O   UNL     1       4.830   5.660  14.957  0.00  0.00    +0.000 OA
BRANCH   9  12
ATOM     12  N   UNL     1       6.591   3.957  14.668  0.00  0.00    +0.000 NA
ATOM     13  C   UNL     1       7.285   4.787  14.209  0.00  0.00    +0.000 C 
ATOM     14  O   UNL     1       7.997   5.605  13.740  0.00  0.00    +0.000 OA
ENDBRANCH   9  12
ENDBRANCH   8   9
BRANCH   1  15
ATOM     15  C   UNL     1       3.212   6.734  17.819  0.00  0.00    +0.000 C 
ATOM     16  O   UNL     1       2.369   5.882  18.064  0.00  0.00    +0.000 OA
BRANCH  15  18
ATOM     17  C   UNL     1       2.054   8.802  17.791  0.00  0.00    +0.000 C 
ATOM     18  O   UNL     1       2.963   7.900  17.161  0.00  0.00    +0.000 OA
ENDBRANCH  15  18
ENDBRANCH   1  15
BRANCH   7  19
ATOM     19  O   UNL     1       4.704   4.207  18.614  0.00  0.00    +0.000 OA
BRANCH  19  20
ATOM     20  C   UNL     1       4.484   3.102  19.352  0.00  0.00    +0.000 C 
ATOM     21  O   UNL     1       5.302   2.268  19.692  0.00  0.00    +0.000 OA
BRANCH  20  22
ATOM     22  C   UNL     1       3.016   2.959  19.552  0.00  0.00    +0.000 A 
ATOM     23  C   UNL     1       2.221   2.431  18.538  0.00  0.00    +0.000 A 
ATOM     24  C   UNL     1       0.826   2.484  18.652  0.00  0.00    +0.000 A 
ATOM     25  C   UNL     1       0.224   3.060  19.773  0.00  0.00    +0.000 A 
ATOM     26  C   UNL     1       1.012   3.555  20.805  0.00  0.00    +0.000 A 
ATOM     27  C   UNL     1       2.401   3.506  20.689  0.00  0.00    +0.000 A 
ENDBRANCH  20  22
ENDBRANCH  19  20
ENDBRANCH   7  19
TORSDOF 7
ENDMDL
MODEL 2
REMARK VINA RESULT:      -7.2      0.738      1.186
REMARK  Name = 
REMARK  8 active torsions:
REMARK  status: ('A' for Active; 'I' for Inactive)
REMARK    1  A    between atoms: C_1  and  O_2
REMARK    2  A    between atoms: O_2  and  C_3
REMARK    3  A    between atoms: C_3  and  C_5
REMARK    4  A    between atoms: C_11  and  O_12
REMARK    5  A    between atoms: O_12  and  C_13
REMARK    6  A    between atoms: C_13  and  C_15
REMARK    7  A    between atoms: N_21  and  S_22
REMARK    8  A    between atoms: S_22  and  N_25
REMARK                            x       y       z     vdW  Elec       q    Type
REMARK                         _______ _______ _______ _____ _____    ______ ____
ROOT
ATOM      1  C   UNL     1       4.840   6.800  18.315  0.00  0.00    +0.000 C 
ATOM      2  C   UNL     1       5.940   6.989  17.215  0.00  0.00    +0.000 C 
ATOM      3  C   UNL     1       7.184   7.794  17.683  0.00  0.00    +0.000 C 
ATOM      4  C   UNL     1       8.226   6.743  18.119  0.00  0.00    +0.000 C 
ATOM      5  C   UNL     1       7.395   5.448  18.164  0.00  0.00    +0.000 C 
ATOM      6  C   UNL     1       6.590   5.555  19.515  0.00  0.00    +0.000 C 
ATOM      7  C   UNL     1       5.095   5.560  19.230  0.00  0.00    +0.000 C 
ATOM      8  N   UNL     1       6.574   5.689  16.944  0.00  0.00    +0.000 NA
ENDROOT
BRANCH   8   9
ATOM      9  S   UNL     1       5.881   4.772  15.705  0.00  0.00    +0.000 S 
ATOM     10  O   UNL     1       5.266   3.612  16.315  0.00  0.00    +0.000 OA
ATOM     11  O   UNL     1       4.981   5.721  15.068  0.00  0.00    +0.000 OA
BRANCH   9  12
ATOM     12  N   UNL     1       6.906   4.259  14.574  0.00  0.00    +0.000 NA
ATOM     13  C   UNL     1       6.277   3.883  13.655  0.00  0.00    +0.000 C 
ATOM     14  O   UNL     1       5.663   3.506  12.718  0.00  0.00    +0.000 OA
ENDBRANCH   9  12
ENDBRANCH   8   9
BRANCH   1  15
ATOM     15  C   UNL     1       3.429   6.814  17.753  0.00  0.00    +0.000 C 
ATOM     16  O   UNL     1       2.656   5.866  17.777  0.00  0.00    +0.000 OA
BRANCH  15  18
ATOM     17  C   UNL     1       1.902   8.621  17.886  0.00  0.00    +0.000 C 
ATOM     18  O   UNL     1       3.101   8.069  17.343  0.00  0.00    +0.000 OA
ENDBRANCH  15  18
ENDBRANCH   1  15
BRANCH   7  19
ATOM     19  O   UNL     1       4.906   4.287  18.579  0.00  0.00    +0.000 OA
BRANCH  19  20
ATOM     20  C   UNL     1       4.556   3.198  19.289  0.00  0.00    +0.000 C 
ATOM     21  O   UNL     1       5.281   2.291  19.653  0.00  0.00    +0.000 OA
BRANCH  20  22
ATOM     22  C   UNL     1       3.073   3.182  19.420  0.00  0.00    +0.000 A 
ATOM     23  C   UNL     1       2.468   3.677  20.573  0.00  0.00    +0.000 A 
ATOM     24  C   UNL     1       1.097   3.478  20.776  0.00  0.00    +0.000 A 
ATOM     25  C   UNL     1       0.329   2.790  19.833  0.00  0.00    +0.000 A 
ATOM     26  C   UNL     1       0.919   2.329  18.663  0.00  0.00    +0.000 A 
ATOM     27  C   UNL     1       2.286   2.523  18.463  0.00  0.00    +0.000 A 
ENDBRANCH  20  22
ENDBRANCH  19  20
ENDBRANCH   7  19
TORSDOF 7
ENDMDL
MODEL 3
REMARK VINA RESULT:      -7.2      0.915      1.069
REMARK  Name = 
REMARK  8 active torsions:
REMARK  status: ('A' for Active; 'I' for Inactive)
REMARK    1  A    between atoms: C_1  and  O_2
REMARK    2  A    between atoms: O_2  and  C_3
REMARK    3  A    between atoms: C_3  and  C_5
REMARK    4  A    between atoms: C_11  and  O_12
REMARK    5  A    between atoms: O_12  and  C_13
REMARK    6  A    between atoms: C_13  and  C_15
REMARK    7  A    between atoms: N_21  and  S_22
REMARK    8  A    between atoms: S_22  and  N_25
REMARK                            x       y       z     vdW  Elec       q    Type
REMARK                         _______ _______ _______ _____ _____    ______ ____
ROOT
ATOM      1  C   UNL     1       4.616   6.206  18.454  0.00  0.00    +0.000 C 
ATOM      2  C   UNL     1       5.811   6.541  17.497  0.00  0.00    +0.000 C 
ATOM      3  C   UNL     1       7.133   6.910  18.225  0.00  0.00    +0.000 C 
ATOM      4  C   UNL     1       7.951   5.604  18.301  0.00  0.00    +0.000 C 
ATOM      5  C   UNL     1       6.915   4.538  17.899  0.00  0.00    +0.000 C 
ATOM      6  C   UNL     1       6.040   4.343  19.196  0.00  0.00    +0.000 C 
ATOM      7  C   UNL     1       4.592   4.712  18.906  0.00  0.00    +0.000 C 
ATOM      8  N   UNL     1       6.239   5.307  16.817  0.00  0.00    +0.000 NA
ENDROOT
BRANCH   8   9
ATOM      9  S   UNL     1       5.497   4.986  15.333  0.00  0.00    +0.000 S 
ATOM     10  O   UNL     1       4.349   4.142  15.595  0.00  0.00    +0.000 OA
ATOM     11  O   UNL     1       5.218   6.316  14.817  0.00  0.00    +0.000 OA
BRANCH   9  12
ATOM     12  N   UNL     1       6.426   4.242  14.248  0.00  0.00    +0.000 NA
ATOM     13  C   UNL     1       7.307   4.966  13.965  0.00  0.00    +0.000 C 
ATOM     14  O   UNL     1       8.205   5.677  13.672  0.00  0.00    +0.000 OA
ENDBRANCH   9  12
ENDBRANCH   8   9
BRANCH   1  15
ATOM     15  C   UNL     1       3.273   6.658  17.907  0.00  0.00    +0.000 C 
ATOM     16  O   UNL     1       2.241   6.003  17.956  0.00  0.00    +0.000 OA
BRANCH  15  18
ATOM     17  C   UNL     1       2.262   8.800  17.830  0.00  0.00    +0.000 C 
ATOM     18  O   UNL     1       3.351   7.948  17.478  0.00  0.00    +0.000 OA
ENDBRANCH  15  18
ENDBRANCH   1  15
BRANCH   7  19
ATOM     19  O   UNL     1       4.244   3.777  17.865  0.00  0.00    +0.000 OA
BRANCH  19  20
ATOM     20  C   UNL     1       3.849   2.526  18.170  0.00  0.00    +0.000 C 
ATOM     21  O   UNL     1       4.119   1.501  17.571  0.00  0.00    +0.000 OA
BRANCH  20  22
ATOM     22  C   UNL     1       2.865   2.605  19.284  0.00  0.00    +0.000 A 
ATOM     23  C   UNL     1       1.546   2.971  19.025  0.00  0.00    +0.000 A 
ATOM     24  C   UNL     1       0.679   3.238  20.092  0.00  0.00    +0.000 A 
ATOM     25  C   UNL     1       1.123   3.139  21.413  0.00  0.00    +0.000 A 
ATOM     26  C   UNL     1       2.427   2.736  21.678  0.00  0.00    +0.000 A 
ATOM     27  C   UNL     1       3.291   2.476  20.615  0.00  0.00    +0.000 A 
ENDBRANCH  20  22
ENDBRANCH  19  20
ENDBRANCH   7  19
TORSDOF 7
ENDMDL
MODEL 4
REMARK VINA RESULT:      -7.1      1.142      1.440
REMARK  Name = 
REMARK  8 active torsions:
REMARK  status: ('A' for Active; 'I' for Inactive)
REMARK    1  A    between atoms: C_1  and  O_2
REMARK    2  A    between atoms: O_2  and  C_3
REMARK    3  A    between atoms: C_3  and  C_5
REMARK    4  A    between atoms: C_11  and  O_12
REMARK    5  A    between atoms: O_12  and  C_13
REMARK    6  A    between atoms: C_13  and  C_15
REMARK    7  A    between atoms: N_21  and  S_22
REMARK    8  A    between atoms: S_22  and  N_25
REMARK                            x       y       z     vdW  Elec       q    Type
REMARK                         _______ _______ _______ _____ _____    ______ ____
ROOT
ATOM      1  C   UNL     1       4.656   6.322  18.356  0.00  0.00    +0.000 C 
ATOM      2  C   UNL     1       5.866   6.670  17.423  0.00  0.00    +0.000 C 
ATOM      3  C   UNL     1       7.143   7.139  18.173  0.00  0.00    +0.000 C 
ATOM      4  C   UNL     1       8.020   5.881  18.340  0.00  0.00    +0.000 C 
ATOM      5  C   UNL     1       7.052   4.746  17.959  0.00  0.00    +0.000 C 
ATOM      6  C   UNL     1       6.143   4.571  19.235  0.00  0.00    +0.000 C 
ATOM      7  C   UNL     1       4.690   4.852  18.881  0.00  0.00    +0.000 C 
ATOM      8  N   UNL     1       6.376   5.428  16.818  0.00  0.00    +0.000 NA
ENDROOT
BRANCH   8   9
ATOM      9  S   UNL     1       5.702   4.999  15.329  0.00  0.00    +0.000 S 
ATOM     10  O   UNL     1       4.657   4.030  15.589  0.00  0.00    +0.000 OA
ATOM     11  O   UNL     1       5.278   6.280  14.787  0.00  0.00    +0.000 OA
BRANCH   9  12
ATOM     12  N   UNL     1       6.730   4.354  14.271  0.00  0.00    +0.000 NA
ATOM     13  C   UNL     1       6.104   3.881  13.396  0.00  0.00    +0.000 C 
ATOM     14  O   UNL     1       5.492   3.405  12.504  0.00  0.00    +0.000 OA
ENDBRANCH   9  12
ENDBRANCH   8   9
BRANCH   1  15
ATOM     15  C   UNL     1       3.312   6.679  17.745  0.00  0.00    +0.000 C 
ATOM     16  O   UNL     1       2.330   5.950  17.738  0.00  0.00    +0.000 OA
BRANCH  15  18
ATOM     17  C   UNL     1       2.270   8.806  17.832  0.00  0.00    +0.000 C 
ATOM     18  O   UNL     1       3.316   7.976  17.329  0.00  0.00    +0.000 OA
ENDBRANCH  15  18
ENDBRANCH   1  15
BRANCH   7  19
ATOM     19  O   UNL     1       4.423   3.852  17.877  0.00  0.00    +0.000 OA
BRANCH  19  20
ATOM     20  C   UNL     1       3.889   2.663  18.218  0.00  0.00    +0.000 C 
ATOM     21  O   UNL     1       4.008   1.605  17.626  0.00  0.00    +0.000 OA
BRANCH  20  22
ATOM     22  C   UNL     1       2.964   2.877  19.364  0.00  0.00    +0.000 A 
ATOM     23  C   UNL     1       3.393   2.622  20.664  0.00  0.00    +0.000 A 
ATOM     24  C   UNL     1       2.466   2.631  21.714  0.00  0.00    +0.000 A 
ATOM     25  C   UNL     1       1.116   2.895  21.470  0.00  0.00    +0.000 A 
ATOM     26  C   UNL     1       0.689   3.188  20.180  0.00  0.00    +0.000 A 
ATOM     27  C   UNL     1       1.612   3.174  19.135  0.00  0.00    +0.000 A 
ENDBRANCH  20  22
ENDBRANCH  19  20
ENDBRANCH   7  19
TORSDOF 7
ENDMDL
MODEL 5
REMARK VINA RESULT:      -7.0      2.623      5.899
REMARK  Name = 
REMARK  8 active torsions:
REMARK  status: ('A' for Active; 'I' for Inactive)
REMARK    1  A    between atoms: C_1  and  O_2
REMARK    2  A    between atoms: O_2  and  C_3
REMARK    3  A    between atoms: C_3  and  C_5
REMARK    4  A    between atoms: C_11  and  O_12
REMARK    5  A    between atoms: O_12  and  C_13
REMARK    6  A    between atoms: C_13  and  C_15
REMARK    7  A    between atoms: N_21  and  S_22
REMARK    8  A    between atoms: S_22  and  N_25
REMARK                            x       y       z     vdW  Elec       q    Type
REMARK                         _______ _______ _______ _____ _____    ______ ____
ROOT
ATOM      1  C   UNL     1       2.037   5.067  18.710  0.00  0.00    +0.000 C 
ATOM      2  C   UNL     1       1.601   3.887  19.645  0.00  0.00    +0.000 C 
ATOM      3  C   UNL     1       0.301   3.162  19.200  0.00  0.00    +0.000 C 
ATOM      4  C   UNL     1       0.761   1.942  18.374  0.00  0.00    +0.000 C 
ATOM      5  C   UNL     1       2.255   2.236  18.148  0.00  0.00    +0.000 C 
ATOM      6  C   UNL     1       2.266   3.315  16.999  0.00  0.00    +0.000 C 
ATOM      7  C   UNL     1       2.906   4.602  17.500  0.00  0.00    +0.000 C 
ATOM      8  N   UNL     1       2.563   2.782  19.500  0.00  0.00    +0.000 NA
ENDROOT
BRANCH   8   9
ATOM      9  S   UNL     1       3.867   2.791  20.576  0.00  0.00    +0.000 S 
ATOM     10  O   UNL     1       4.415   4.131  20.582  0.00  0.00    +0.000 OA
ATOM     11  O   UNL     1       3.262   2.334  21.817  0.00  0.00    +0.000 OA
BRANCH   9  12
ATOM     12  N   UNL     1       5.056   1.765  20.222  0.00  0.00    +0.000 NA
ATOM     13  C   UNL     1       5.456   1.309  21.228  0.00  0.00    +0.000 C 
ATOM     14  O   UNL     1       5.868   0.834  22.229  0.00  0.00    +0.000 OA
ENDBRANCH   9  12
ENDBRANCH   8   9
BRANCH   1  15
ATOM     15  C   UNL     1       2.681   6.216  19.466  0.00  0.00    +0.000 C 
ATOM     16  O   UNL     1       3.655   6.849  19.082  0.00  0.00    +0.000 OA
BRANCH  15  18
ATOM     17  C   UNL     1       1.571   7.902  20.709  0.00  0.00    +0.000 C 
ATOM     18  O   UNL     1       1.938   6.531  20.563  0.00  0.00    +0.000 OA
ENDBRANCH  15  18
ENDBRANCH   1  15
BRANCH   7  19
ATOM     19  O   UNL     1       4.235   4.163  17.850  0.00  0.00    +0.000 OA
BRANCH  19  20
ATOM     20  C   UNL     1       5.225   4.174  16.937  0.00  0.00    +0.000 C 
ATOM     21  O   UNL     1       5.335   3.455  15.960  0.00  0.00    +0.000 OA
BRANCH  20  22
ATOM     22  C   UNL     1       6.284   5.107  17.408  0.00  0.00    +0.000 A 
ATOM     23  C   UNL     1       7.070   4.774  18.508  0.00  0.00    +0.000 A 
ATOM     24  C   UNL     1       7.923   5.734  19.068  0.00  0.00    +0.000 A 
ATOM     25  C   UNL     1       7.993   7.022  18.532  0.00  0.00    +0.000 A 
ATOM     26  C   UNL     1       7.240   7.349  17.411  0.00  0.00    +0.000 A 
ATOM     27  C   UNL     1       6.388   6.394  16.857  0.00  0.00    +0.000 A 
ENDBRANCH  20  22
ENDBRANCH  19  20
ENDBRANCH   7  19
TORSDOF 7
ENDMDL
MODEL 6
REMARK VINA RESULT:      -6.9      1.274      1.877
REMARK  Name = 
REMARK  8 active torsions:
REMARK  status: ('A' for Active; 'I' for Inactive)
REMARK    1  A    between atoms: C_1  and  O_2
REMARK    2  A    between atoms: O_2  and  C_3
REMARK    3  A    between atoms: C_3  and  C_5
REMARK    4  A    between atoms: C_11  and  O_12
REMARK    5  A    between atoms: O_12  and  C_13
REMARK    6  A    between atoms: C_13  and  C_15
REMARK    7  A    between atoms: N_21  and  S_22
REMARK    8  A    between atoms: S_22  and  N_25
REMARK                            x       y       z     vdW  Elec       q    Type
REMARK                         _______ _______ _______ _____ _____    ______ ____
ROOT
ATOM      1  C   UNL     1       5.094   6.695  18.119  0.00  0.00    +0.000 C 
ATOM      2  C   UNL     1       6.512   6.779  17.457  0.00  0.00    +0.000 C 
ATOM      3  C   UNL     1       7.680   6.980  18.461  0.00  0.00    +0.000 C 
ATOM      4  C   UNL     1       8.230   5.568  18.755  0.00  0.00    +0.000 C 
ATOM      5  C   UNL     1       7.148   4.656  18.150  0.00  0.00    +0.000 C 
ATOM      6  C   UNL     1       5.985   4.680  19.213  0.00  0.00    +0.000 C 
ATOM      7  C   UNL     1       4.721   5.253  18.588  0.00  0.00    +0.000 C 
ATOM      8  N   UNL     1       6.870   5.454  16.923  0.00  0.00    +0.000 NA
ENDROOT
BRANCH   8   9
ATOM      9  S   UNL     1       6.437   5.163  15.315  0.00  0.00    +0.000 S 
ATOM     10  O   UNL     1       5.308   6.017  15.009  0.00  0.00    +0.000 OA
ATOM     11  O   UNL     1       7.670   5.438  14.595  0.00  0.00    +0.000 OA
BRANCH   9  12
ATOM     12  N   UNL     1       6.021   3.644  14.981  0.00  0.00    +0.000 NA
ATOM     13  C   UNL     1       5.966   3.530  13.813  0.00  0.00    +0.000 C 
ATOM     14  O   UNL     1       5.913   3.393  12.640  0.00  0.00    +0.000 OA
ENDBRANCH   9  12
ENDBRANCH   8   9
BRANCH   1  15
ATOM     15  C   UNL     1       4.003   7.318  17.266  0.00  0.00    +0.000 C 
ATOM     16  O   UNL     1       4.148   7.702  16.114  0.00  0.00    +0.000 OA
BRANCH  15  18
ATOM     17  C   UNL     1       2.022   8.451  17.905  0.00  0.00    +0.000 C 
ATOM     18  O   UNL     1       2.809   7.261  17.918  0.00  0.00    +0.000 OA
ENDBRANCH  15  18
ENDBRANCH   1  15
BRANCH   7  19
ATOM     19  O   UNL     1       4.464   4.323  17.517  0.00  0.00    +0.000 OA
BRANCH  19  20
ATOM     20  C   UNL     1       3.289   3.668  17.443  0.00  0.00    +0.000 C 
ATOM     21  O   UNL     1       2.696   3.330  16.435  0.00  0.00    +0.000 OA
BRANCH  20  22
ATOM     22  C   UNL     1       2.723   3.568  18.816  0.00  0.00    +0.000 A 
ATOM     23  C   UNL     1       3.198   2.600  19.699  0.00  0.00    +0.000 A 
ATOM     24  C   UNL     1       2.531   2.379  20.910  0.00  0.00    +0.000 A 
ATOM     25  C   UNL     1       1.394   3.120  21.242  0.00  0.00    +0.000 A 
ATOM     26  C   UNL     1       0.938   4.113  20.384  0.00  0.00    +0.000 A 
ATOM     27  C   UNL     1       1.601   4.330  19.175  0.00  0.00    +0.000 A 
ENDBRANCH  20  22
ENDBRANCH  19  20
ENDBRANCH   7  19
TORSDOF 7
ENDMDL
MODEL 7
REMARK VINA RESULT:      -6.8      2.015      3.611
REMARK  Name = 
REMARK  8 active torsions:
REMARK  status: ('A' for Active; 'I' for Inactive)
REMARK    1  A    between atoms: C_1  and  O_2
REMARK    2  A    between atoms: O_2  and  C_3
REMARK    3  A    between atoms: C_3  and  C_5
REMARK    4  A    between atoms: C_11  and  O_12
REMARK    5  A    between atoms: O_12  and  C_13
REMARK    6  A    between atoms: C_13  and  C_15
REMARK    7  A    between atoms: N_21  and  S_22
REMARK    8  A    between atoms: S_22  and  N_25
REMARK                            x       y       z     vdW  Elec       q    Type
REMARK                         _______ _______ _______ _____ _____    ______ ____
ROOT
ATOM      1  C   UNL     1       4.669   4.833  15.862  0.00  0.00    +0.000 C 
ATOM      2  C   UNL     1       5.281   6.121  16.511  0.00  0.00    +0.000 C 
ATOM      3  C   UNL     1       4.388   7.387  16.390  0.00  0.00    +0.000 C 
ATOM      4  C   UNL     1       3.588   7.466  17.708  0.00  0.00    +0.000 C 
ATOM      5  C   UNL     1       3.848   6.086  18.339  0.00  0.00    +0.000 C 
ATOM      6  C   UNL     1       2.896   5.113  17.544  0.00  0.00    +0.000 C 
ATOM      7  C   UNL     1       3.718   4.053  16.824  0.00  0.00    +0.000 C 
ATOM      8  N   UNL     1       5.288   5.962  17.974  0.00  0.00    +0.000 NA
ENDROOT
BRANCH   8   9
ATOM      9  S   UNL     1       6.691   5.293  18.638  0.00  0.00    +0.000 S 
ATOM     10  O   UNL     1       6.309   4.600  19.851  0.00  0.00    +0.000 OA
ATOM     11  O   UNL     1       7.198   4.468  17.554  0.00  0.00    +0.000 OA
BRANCH   9  12
ATOM     12  N   UNL     1       7.847   6.350  19.010  0.00  0.00    +0.000 NA
ATOM     13  C   UNL     1       7.878   7.168  18.167  0.00  0.00    +0.000 C 
ATOM     14  O   UNL     1       7.920   8.004  17.332  0.00  0.00    +0.000 OA
ENDBRANCH   9  12
ENDBRANCH   8   9
BRANCH   1  15
ATOM     15  C   UNL     1       5.717   3.927  15.239  0.00  0.00    +0.000 C 
ATOM     16  O   UNL     1       5.783   2.717  15.401  0.00  0.00    +0.000 OA
BRANCH  15  18
ATOM     17  C   UNL     1       6.642   4.076  13.061  0.00  0.00    +0.000 C 
ATOM     18  O   UNL     1       6.488   4.633  14.366  0.00  0.00    +0.000 OA
ENDBRANCH  15  18
ENDBRANCH   1  15
BRANCH   7  19
ATOM     19  O   UNL     1       4.385   3.392  17.919  0.00  0.00    +0.000 OA
BRANCH  19  20
ATOM     20  C   UNL     1       3.986   2.174  18.330  0.00  0.00    +0.000 C 
ATOM     21  O   UNL     1       4.264   1.099  17.830  0.00  0.00    +0.000 OA
BRANCH  20  22
ATOM     22  C   UNL     1       2.987   2.352  19.419  0.00  0.00    +0.000 A 
ATOM     23  C   UNL     1       1.625   2.292  19.133  0.00  0.00    +0.000 A 
ATOM     24  C   UNL     1       0.694   2.657  20.113  0.00  0.00    +0.000 A 
ATOM     25  C   UNL     1       1.118   3.079  21.376  0.00  0.00    +0.000 A 
ATOM     26  C   UNL     1       2.474   3.104  21.680  0.00  0.00    +0.000 A 
ATOM     27  C   UNL     1       3.400   2.745  20.701  0.00  0.00    +0.000 A 
ENDBRANCH  20  22
ENDBRANCH  19  20
ENDBRANCH   7  19
TORSDOF 7
ENDMDL
MODEL 8
REMARK VINA RESULT:      -6.8      2.505      5.859
REMARK  Name = 
REMARK  8 active torsions:
REMARK  status: ('A' for Active; 'I' for Inactive)
REMARK    1  A    between atoms: C_1  and  O_2
REMARK    2  A    between atoms: O_2  and  C_3
REMARK    3  A    between atoms: C_3  and  C_5
REMARK    4  A    between atoms: C_11  and  O_12
REMARK    5  A    between atoms: O_12  and  C_13
REMARK    6  A    between atoms: C_13  and  C_15
REMARK    7  A    between atoms: N_21  and  S_22
REMARK    8  A    between atoms: S_22  and  N_25
REMARK                            x       y       z     vdW  Elec       q    Type
REMARK                         _______ _______ _______ _____ _____    ______ ____
ROOT
ATOM      1  C   UNL     1       1.985   4.924  18.679  0.00  0.00    +0.000 C 
ATOM      2  C   UNL     1       1.586   3.742  19.627  0.00  0.00    +0.000 C 
ATOM      3  C   UNL     1       0.310   2.970  19.191  0.00  0.00    +0.000 C 
ATOM      4  C   UNL     1       0.809   1.756  18.380  0.00  0.00    +0.000 C 
ATOM      5  C   UNL     1       2.293   2.094  18.151  0.00  0.00    +0.000 C 
ATOM      6  C   UNL     1       2.270   3.160  16.989  0.00  0.00    +0.000 C 
ATOM      7  C   UNL     1       2.869   4.472  17.474  0.00  0.00    +0.000 C 
ATOM      8  N   UNL     1       2.583   2.666  19.496  0.00  0.00    +0.000 NA
ENDROOT
BRANCH   8   9
ATOM      9  S   UNL     1       3.885   2.729  20.572  0.00  0.00    +0.000 S 
ATOM     10  O   UNL     1       4.405   4.080  20.545  0.00  0.00    +0.000 OA
ATOM     11  O   UNL     1       3.289   2.289  21.824  0.00  0.00    +0.000 OA
BRANCH   9  12
ATOM     12  N   UNL     1       5.096   1.720  20.244  0.00  0.00    +0.000 NA
ATOM     13  C   UNL     1       5.479   1.268  21.258  0.00  0.00    +0.000 C 
ATOM     14  O   UNL     1       5.876   0.798  22.268  0.00  0.00    +0.000 OA
ENDBRANCH   9  12
ENDBRANCH   8   9
BRANCH   1  15
ATOM     15  C   UNL     1       2.592   6.102  19.422  0.00  0.00    +0.000 C 
ATOM     16  O   UNL     1       2.571   6.250  20.636  0.00  0.00    +0.000 OA
BRANCH  15  18
ATOM     17  C   UNL     1       2.609   8.075  18.110  0.00  0.00    +0.000 C 
ATOM     18  O   UNL     1       3.279   6.897  18.557  0.00  0.00    +0.000 OA
ENDBRANCH  15  18
ENDBRANCH   1  15
BRANCH   7  19
ATOM     19  O   UNL     1       4.211   4.079  17.830  0.00  0.00    +0.000 OA
BRANCH  19  20
ATOM     20  C   UNL     1       5.235   4.287  16.981  0.00  0.00    +0.000 C 
ATOM     21  O   UNL     1       5.501   3.652  15.977  0.00  0.00    +0.000 OA
BRANCH  20  22
ATOM     22  C   UNL     1       6.120   5.332  17.564  0.00  0.00    +0.000 A 
ATOM     23  C   UNL     1       6.274   6.557  16.918  0.00  0.00    +0.000 A 
ATOM     24  C   UNL     1       7.255   7.454  17.358  0.00  0.00    +0.000 A 
ATOM     25  C   UNL     1       8.079   7.135  18.440  0.00  0.00    +0.000 A 
ATOM     26  C   UNL     1       7.904   5.931  19.113  0.00  0.00    +0.000 A 
ATOM     27  C   UNL     1       6.930   5.036  18.671  0.00  0.00    +0.000 A 
ENDBRANCH  20  22
ENDBRANCH  19  20
ENDBRANCH   7  19
TORSDOF 7
ENDMDL
MODEL 9
REMARK VINA RESULT:      -6.6      1.349      1.828
REMARK  Name = 
REMARK  8 active torsions:
REMARK  status: ('A' for Active; 'I' for Inactive)
REMARK    1  A    between atoms: C_1  and  O_2
REMARK    2  A    between atoms: O_2  and  C_3
REMARK    3  A    between atoms: C_3  and  C_5
REMARK    4  A    between atoms: C_11  and  O_12
REMARK    5  A    between atoms: O_12  and  C_13
REMARK    6  A    between atoms: C_13  and  C_15
REMARK    7  A    between atoms: N_21  and  S_22
REMARK    8  A    between atoms: S_22  and  N_25
REMARK                            x       y       z     vdW  Elec       q    Type
REMARK                         _______ _______ _______ _____ _____    ______ ____
ROOT
ATOM      1  C   UNL     1       4.807   6.592  18.190  0.00  0.00    +0.000 C 
ATOM      2  C   UNL     1       6.157   6.722  17.406  0.00  0.00    +0.000 C 
ATOM      3  C   UNL     1       7.409   6.908  18.308  0.00  0.00    +0.000 C 
ATOM      4  C   UNL     1       8.003   5.497  18.501  0.00  0.00    +0.000 C 
ATOM      5  C   UNL     1       6.883   4.588  17.965  0.00  0.00    +0.000 C 
ATOM      6  C   UNL     1       5.821   4.557  19.129  0.00  0.00    +0.000 C 
ATOM      7  C   UNL     1       4.498   5.129  18.641  0.00  0.00    +0.000 C 
ATOM      8  N   UNL     1       6.484   5.422  16.796  0.00  0.00    +0.000 NA
ENDROOT
BRANCH   8   9
ATOM      9  S   UNL     1       5.910   5.178  15.225  0.00  0.00    +0.000 S 
ATOM     10  O   UNL     1       5.049   4.014  15.253  0.00  0.00    +0.000 OA
ATOM     11  O   UNL     1       5.273   6.448  14.915  0.00  0.00    +0.000 OA
BRANCH   9  12
ATOM     12  N   UNL     1       7.046   4.933  14.110  0.00  0.00    +0.000 NA
ATOM     13  C   UNL     1       6.624   4.173  13.320  0.00  0.00    +0.000 C 
ATOM     14  O   UNL     1       6.215   3.415  12.511  0.00  0.00    +0.000 OA
ENDBRANCH   9  12
ENDBRANCH   8   9
BRANCH   1  15
ATOM     15  C   UNL     1       3.634   7.224  17.462  0.00  0.00    +0.000 C 
ATOM     16  O   UNL     1       3.705   7.789  16.379  0.00  0.00    +0.000 OA
BRANCH  15  18
ATOM     17  C   UNL     1       2.133   7.833  19.192  0.00  0.00    +0.000 C 
ATOM     18  O   UNL     1       2.473   6.955  18.120  0.00  0.00    +0.000 OA
ENDBRANCH  15  18
ENDBRANCH   1  15
BRANCH   7  19
ATOM     19  O   UNL     1       4.157   4.231  17.565  0.00  0.00    +0.000 OA
BRANCH  19  20
ATOM     20  C   UNL     1       2.962   3.610  17.541  0.00  0.00    +0.000 C 
ATOM     21  O   UNL     1       2.264   3.394  16.568  0.00  0.00    +0.000 OA
BRANCH  20  22
ATOM     22  C   UNL     1       2.531   3.374  18.946  0.00  0.00    +0.000 A 
ATOM     23  C   UNL     1       1.520   4.151  19.507  0.00  0.00    +0.000 A 
ATOM     24  C   UNL     1       1.258   4.061  20.880  0.00  0.00    +0.000 A 
ATOM     25  C   UNL     1       1.998   3.198  21.691  0.00  0.00    +0.000 A 
ATOM     26  C   UNL     1       2.981   2.391  21.131  0.00  0.00    +0.000 A 
ATOM     27  C   UNL     1       3.245   2.485  19.764  0.00  0.00    +0.000 A 
ENDBRANCH  20  22
ENDBRANCH  19  20
ENDBRANCH   7  19
TORSDOF 7
ENDMDL
