MODEL 1
REMARK VINA RESULT:      -8.7      0.000      0.000
REMARK  Name = 
REMARK  9 active torsions:
REMARK  status: ('A' for Active; 'I' for Inactive)
REMARK    1  A    between atoms: C_1  and  C_2
REMARK    2  A    between atoms: C_2  and  O_3
REMARK    3  A    between atoms: C_2  and  C_4
REMARK    4  A    between atoms: C_2  and  C_16
REMARK    5  A    between atoms: C_4  and  O_5
REMARK    6  A    between atoms: O_5  and  C_6
REMARK    7  A    between atoms: C_11  and  C_12
REMARK    8  A    between atoms: N_18  and  C_19
REMARK    9  A    between atoms: C_23  and  S_24
REMARK                            x       y       z     vdW  Elec       q    Type
REMARK                         _______ _______ _______ _____ _____    ______ ____
ROOT
ATOM      1  C   UNL     1       3.396   2.239  18.045  0.00  0.00    +0.000 C 
ATOM      2  C   UNL     1       3.538   3.174  19.263  0.00  0.00    +0.000 C 
ENDROOT
BRANCH   2   3
ATOM      3  C   UNL     1       2.738   4.439  19.046  0.00  0.00    +0.000 C 
ATOM      4  O   UNL     1       1.625   4.342  18.557  0.00  0.00    +0.000 OA
ATOM      5  N   UNL     1       3.244   5.659  19.398  0.00  0.00    +0.000 N 
ATOM      6  H   UNL     1       4.163   5.685  19.868  0.00  0.00    +0.000 HD
BRANCH   5   7
ATOM      7  C   UNL     1       2.587   6.914  19.170  0.00  0.00    +0.000 A 
ATOM      8  C   UNL     1       2.751   7.657  17.983  0.00  0.00    +0.000 A 
ATOM      9  C   UNL     1       2.106   8.874  17.806  0.00  0.00    +0.000 A 
ATOM     10  C   UNL     1       1.319   9.406  18.826  0.00  0.00    +0.000 A 
ATOM     11  C   UNL     1       1.195   8.711  20.046  0.00  0.00    +0.000 A 
ATOM     12  C   UNL     1       1.805   7.463  20.193  0.00  0.00    +0.000 A 
BRANCH  11  13
ATOM     13  S   UNL     1       0.396   9.382  21.518  0.00  0.00    +0.000 S 
ATOM     14  F   UNL     1       1.656   9.637  22.652  0.00  0.00    +0.000 F 
ATOM     15  F   UNL     1      -0.786   8.154  21.710  0.00  0.00    +0.000 F 
ATOM     16  F   UNL     1      -0.358  10.044  22.902  0.00  0.00    +0.000 F 
ATOM     17  F   UNL     1       1.266  10.804  21.115  0.00  0.00    +0.000 F 
ATOM     18  F   UNL     1       1.110   7.918  22.056  0.00  0.00    +0.000 F 
ENDBRANCH  11  13
ENDBRANCH   5   7
ENDBRANCH   2   3
BRANCH   2  19
ATOM     19  O   UNL     1       3.052   2.556  20.430  0.00  0.00    +0.000 OA
ATOM     20  H   UNL     1       3.432   1.640  20.473  0.00  0.00    +0.000 HD
ENDBRANCH   2  19
BRANCH   2  21
ATOM     21  C   UNL     1       5.021   3.541  19.445  0.00  0.00    +0.000 C 
BRANCH  21  22
ATOM     22  O   UNL     1       5.560   4.006  18.245  0.00  0.00    +0.000 OA
BRANCH  22  23
ATOM     23  C   UNL     1       6.333   5.119  18.136  0.00  0.00    +0.000 A 
ATOM     24  C   UNL     1       7.234   5.434  19.172  0.00  0.00    +0.000 A 
ATOM     25  C   UNL     1       8.035   6.559  19.109  0.00  0.00    +0.000 A 
ATOM     26  C   UNL     1       7.977   7.392  17.999  0.00  0.00    +0.000 A 
ATOM     27  C   UNL     1       7.097   7.111  16.953  0.00  0.00    +0.000 A 
ATOM     28  C   UNL     1       6.249   5.988  17.002  0.00  0.00    +0.000 A 
BRANCH  28  29
ATOM     29  C   UNL     1       5.268   5.814  15.853  0.00  0.00    +0.000 C 
ATOM     30  F   UNL     1       4.878   7.022  15.314  0.00  0.00    +0.000 F 
ATOM     31  F   UNL     1       5.884   5.073  14.855  0.00  0.00    +0.000 F 
ATOM     32  F   UNL     1       4.136   5.129  16.263  0.00  0.00    +0.000 F 
ENDBRANCH  28  29
ENDBRANCH  22  23
ENDBRANCH  21  22
ENDBRANCH   2  21
TORSDOF 8
ENDMDL
MODEL 2
REMARK VINA RESULT:      -8.4      0.714      1.452
REMARK  Name = 
REMARK  9 active torsions:
REMARK  status: ('A' for Active; 'I' for Inactive)
REMARK    1  A    between atoms: C_1  and  C_2
REMARK    2  A    between atoms: C_2  and  O_3
REMARK    3  A    between atoms: C_2  and  C_4
REMARK    4  A    between atoms: C_2  and  C_16
REMARK    5  A    between atoms: C_4  and  O_5
REMARK    6  A    between atoms: O_5  and  C_6
REMARK    7  A    between atoms: C_11  and  C_12
REMARK    8  A    between atoms: N_18  and  C_19
REMARK    9  A    between atoms: C_23  and  S_24
REMARK                            x       y       z     vdW  Elec       q    Type
REMARK                         _______ _______ _______ _____ _____    ______ ____
ROOT
ATOM      1  C   UNL     1       2.671   1.962  17.878  0.00  0.00    +0.000 C 
ATOM      2  C   UNL     1       3.085   2.851  19.069  0.00  0.00    +0.000 C 
ENDROOT
BRANCH   2   3
ATOM      3  C   UNL     1       2.379   4.187  18.993  0.00  0.00    +0.000 C 
ATOM      4  O   UNL     1       1.311   4.243  18.406  0.00  0.00    +0.000 OA
ATOM      5  N   UNL     1       2.917   5.299  19.576  0.00  0.00    +0.000 N 
ATOM      6  H   UNL     1       3.789   5.189  20.117  0.00  0.00    +0.000 HD
BRANCH   5   7
ATOM      7  C   UNL     1       2.354   6.616  19.500  0.00  0.00    +0.000 A 
ATOM      8  C   UNL     1       2.491   7.441  18.364  0.00  0.00    +0.000 A 
ATOM      9  C   UNL     1       1.940   8.715  18.334  0.00  0.00    +0.000 A 
ATOM     10  C   UNL     1       1.280   9.220  19.453  0.00  0.00    +0.000 A 
ATOM     11  C   UNL     1       1.189   8.438  20.622  0.00  0.00    +0.000 A 
ATOM     12  C   UNL     1       1.700   7.138  20.622  0.00  0.00    +0.000 A 
BRANCH  11  13
ATOM     13  S   UNL     1       0.563   9.045  22.202  0.00  0.00    +0.000 S 
ATOM     14  F   UNL     1      -0.602  10.239  21.808  0.00  0.00    +0.000 F 
ATOM     15  F   UNL     1       2.077   9.429  22.910  0.00  0.00    +0.000 F 
ATOM     16  F   UNL     1      -0.050   9.599  23.698  0.00  0.00    +0.000 F 
ATOM     17  F   UNL     1      -0.896   8.295  21.700  0.00  0.00    +0.000 F 
ATOM     18  F   UNL     1       1.256  10.429  21.462  0.00  0.00    +0.000 F 
ENDBRANCH  11  13
ENDBRANCH   5   7
ENDBRANCH   2   3
BRANCH   2  19
ATOM     19  O   UNL     1       2.732   2.249  20.290  0.00  0.00    +0.000 OA
ATOM     20  H   UNL     1       2.362   1.350  20.095  0.00  0.00    +0.000 HD
ENDBRANCH   2  19
BRANCH   2  21
ATOM     21  C   UNL     1       4.605   3.081  19.019  0.00  0.00    +0.000 C 
BRANCH  21  22
ATOM     22  O   UNL     1       4.939   3.916  17.953  0.00  0.00    +0.000 OA
BRANCH  22  23
ATOM     23  C   UNL     1       5.910   4.867  18.002  0.00  0.00    +0.000 A 
ATOM     24  C   UNL     1       6.580   5.101  19.218  0.00  0.00    +0.000 A 
ATOM     25  C   UNL     1       7.569   6.062  19.319  0.00  0.00    +0.000 A 
ATOM     26  C   UNL     1       7.935   6.803  18.202  0.00  0.00    +0.000 A 
ATOM     27  C   UNL     1       7.294   6.596  16.980  0.00  0.00    +0.000 A 
ATOM     28  C   UNL     1       6.263   5.644  16.854  0.00  0.00    +0.000 A 
BRANCH  28  29
ATOM     29  C   UNL     1       5.571   5.553  15.503  0.00  0.00    +0.000 C 
ATOM     30  F   UNL     1       4.666   4.514  15.451  0.00  0.00    +0.000 F 
ATOM     31  F   UNL     1       4.885   6.737  15.277  0.00  0.00    +0.000 F 
ATOM     32  F   UNL     1       6.492   5.386  14.482  0.00  0.00    +0.000 F 
ENDBRANCH  28  29
ENDBRANCH  22  23
ENDBRANCH  21  22
ENDBRANCH   2  21
TORSDOF 8
ENDMDL
MODEL 3
REMARK VINA RESULT:      -8.2      1.600      2.383
REMARK  Name = 
REMARK  9 active torsions:
REMARK  status: ('A' for Active; 'I' for Inactive)
REMARK    1  A    between atoms: C_1  and  C_2
REMARK    2  A    between atoms: C_2  and  O_3
REMARK    3  A    between atoms: C_2  and  C_4
REMARK    4  A    between atoms: C_2  and  C_16
REMARK    5  A    between atoms: C_4  and  O_5
REMARK    6  A    between atoms: O_5  and  C_6
REMARK    7  A    between atoms: C_11  and  C_12
REMARK    8  A    between atoms: N_18  and  C_19
REMARK    9  A    between atoms: C_23  and  S_24
REMARK                            x       y       z     vdW  Elec       q    Type
REMARK                         _______ _______ _______ _____ _____    ______ ____
ROOT
ATOM      1  C   UNL     1       2.666   2.369  18.595  0.00  0.00    +0.000 C 
ATOM      2  C   UNL     1       3.271   3.527  19.416  0.00  0.00    +0.000 C 
ENDROOT
BRANCH   2   3
ATOM      3  C   UNL     1       2.585   4.828  19.067  0.00  0.00    +0.000 C 
ATOM      4  O   UNL     1       1.746   4.820  18.182  0.00  0.00    +0.000 OA
ATOM      5  N   UNL     1       2.888   5.982  19.734  0.00  0.00    +0.000 N 
ATOM      6  H   UNL     1       3.556   5.928  20.519  0.00  0.00    +0.000 HD
BRANCH   5   7
ATOM      7  C   UNL     1       2.337   7.272  19.429  0.00  0.00    +0.000 A 
ATOM      8  C   UNL     1       2.569   7.931  18.204  0.00  0.00    +0.000 A 
ATOM      9  C   UNL     1       2.028   9.184  17.952  0.00  0.00    +0.000 A 
ATOM     10  C   UNL     1       1.280   9.835  18.932  0.00  0.00    +0.000 A 
ATOM     11  C   UNL     1       1.091   9.222  20.188  0.00  0.00    +0.000 A 
ATOM     12  C   UNL     1       1.596   7.939  20.410  0.00  0.00    +0.000 A 
BRANCH  11  13
ATOM     13  S   UNL     1       0.340  10.039  21.611  0.00  0.00    +0.000 S 
ATOM     14  F   UNL     1      -0.690   8.868  22.324  0.00  0.00    +0.000 F 
ATOM     15  F   UNL     1      -0.259  11.418  20.787  0.00  0.00    +0.000 F 
ATOM     16  F   UNL     1      -0.349  10.803  22.976  0.00  0.00    +0.000 F 
ATOM     17  F   UNL     1       1.269   8.913  22.512  0.00  0.00    +0.000 F 
ATOM     18  F   UNL     1      -0.991   9.628  20.609  0.00  0.00    +0.000 F 
ENDBRANCH  11  13
ENDBRANCH   5   7
ENDBRANCH   2   3
BRANCH   2  19
ATOM     19  O   UNL     1       3.100   3.308  20.795  0.00  0.00    +0.000 OA
ATOM     20  H   UNL     1       3.314   2.358  20.984  0.00  0.00    +0.000 HD
ENDBRANCH   2  19
BRANCH   2  21
ATOM     21  C   UNL     1       4.770   3.644  19.088  0.00  0.00    +0.000 C 
BRANCH  21  22
ATOM     22  O   UNL     1       5.012   4.771  18.302  0.00  0.00    +0.000 OA
BRANCH  22  23
ATOM     23  C   UNL     1       5.607   4.737  17.080  0.00  0.00    +0.000 A 
ATOM     24  C   UNL     1       5.294   3.689  16.193  0.00  0.00    +0.000 A 
ATOM     25  C   UNL     1       5.878   3.608  14.943  0.00  0.00    +0.000 A 
ATOM     26  C   UNL     1       6.777   4.584  14.532  0.00  0.00    +0.000 A 
ATOM     27  C   UNL     1       7.110   5.638  15.384  0.00  0.00    +0.000 A 
ATOM     28  C   UNL     1       6.552   5.731  16.673  0.00  0.00    +0.000 A 
BRANCH  28  29
ATOM     29  C   UNL     1       7.042   6.869  17.555  0.00  0.00    +0.000 C 
ATOM     30  F   UNL     1       6.033   7.757  17.866  0.00  0.00    +0.000 F 
ATOM     31  F   UNL     1       7.528   6.334  18.738  0.00  0.00    +0.000 F 
ATOM     32  F   UNL     1       8.069   7.568  16.942  0.00  0.00    +0.000 F 
ENDBRANCH  28  29
ENDBRANCH  22  23
ENDBRANCH  21  22
ENDBRANCH   2  21
TORSDOF 8
ENDMDL
MODEL 4
REMARK VINA RESULT:      -8.1      0.757      1.384
REMARK  Name = 
REMARK  9 active torsions:
REMARK  status: ('A' for Active; 'I' for Inactive)
REMARK    1  A    between atoms: C_1  and  C_2
REMARK    2  A    between atoms: C_2  and  O_3
REMARK    3  A    between atoms: C_2  and  C_4
REMARK    4  A    between atoms: C_2  and  C_16
REMARK    5  A    between atoms: C_4  and  O_5
REMARK    6  A    between atoms: O_5  and  C_6
REMARK    7  A    between atoms: C_11  and  C_12
REMARK    8  A    between atoms: N_18  and  C_19
REMARK    9  A    between atoms: C_23  and  S_24
REMARK                            x       y       z     vdW  Elec       q    Type
REMARK                         _______ _______ _______ _____ _____    ______ ____
ROOT
ATOM      1  C   UNL     1       2.388   2.117  17.989  0.00  0.00    +0.000 C 
ATOM      2  C   UNL     1       2.868   3.133  19.047  0.00  0.00    +0.000 C 
ENDROOT
BRANCH   2   3
ATOM      3  C   UNL     1       2.325   4.509  18.733  0.00  0.00    +0.000 C 
ATOM      4  O   UNL     1       1.476   4.611  17.862  0.00  0.00    +0.000 OA
ATOM      5  N   UNL     1       2.764   5.609  19.414  0.00  0.00    +0.000 N 
ATOM      6  H   UNL     1       3.435   5.466  20.186  0.00  0.00    +0.000 HD
BRANCH   5   7
ATOM      7  C   UNL     1       2.356   6.958  19.141  0.00  0.00    +0.000 A 
ATOM      8  C   UNL     1       2.687   7.629  17.946  0.00  0.00    +0.000 A 
ATOM      9  C   UNL     1       2.282   8.938  17.724  0.00  0.00    +0.000 A 
ATOM     10  C   UNL     1       1.578   9.631  18.709  0.00  0.00    +0.000 A 
ATOM     11  C   UNL     1       1.295   9.001  19.937  0.00  0.00    +0.000 A 
ATOM     12  C   UNL     1       1.661   7.666  20.127  0.00  0.00    +0.000 A 
BRANCH  11  13
ATOM     13  S   UNL     1       0.593   9.844  21.370  0.00  0.00    +0.000 S 
ATOM     14  F   UNL     1      -1.107   9.752  21.172  0.00  0.00    +0.000 F 
ATOM     15  F   UNL     1       1.464  11.312  21.214  0.00  0.00    +0.000 F 
ATOM     16  F   UNL     1      -0.071  10.617  22.742  0.00  0.00    +0.000 F 
ATOM     17  F   UNL     1       0.039   8.275  21.788  0.00  0.00    +0.000 F 
ATOM     18  F   UNL     1       0.032  10.753  20.028  0.00  0.00    +0.000 F 
ENDBRANCH  11  13
ENDBRANCH   5   7
ENDBRANCH   2   3
BRANCH   2  19
ATOM     19  O   UNL     1       2.412   2.775  20.329  0.00  0.00    +0.000 OA
ATOM     20  H   UNL     1       1.853   1.960  20.240  0.00  0.00    +0.000 HD
ENDBRANCH   2  19
BRANCH   2  21
ATOM     21  C   UNL     1       4.405   3.183  19.034  0.00  0.00    +0.000 C 
BRANCH  21  22
ATOM     22  O   UNL     1       4.862   3.911  17.935  0.00  0.00    +0.000 OA
BRANCH  22  23
ATOM     23  C   UNL     1       5.841   4.852  17.996  0.00  0.00    +0.000 A 
ATOM     24  C   UNL     1       6.483   5.096  19.224  0.00  0.00    +0.000 A 
ATOM     25  C   UNL     1       7.479   6.048  19.337  0.00  0.00    +0.000 A 
ATOM     26  C   UNL     1       7.879   6.771  18.220  0.00  0.00    +0.000 A 
ATOM     27  C   UNL     1       7.266   6.555  16.986  0.00  0.00    +0.000 A 
ATOM     28  C   UNL     1       6.229   5.612  16.847  0.00  0.00    +0.000 A 
BRANCH  28  29
ATOM     29  C   UNL     1       5.569   5.510  15.481  0.00  0.00    +0.000 C 
ATOM     30  F   UNL     1       4.865   6.650  15.156  0.00  0.00    +0.000 F 
ATOM     31  F   UNL     1       6.556   5.323  14.525  0.00  0.00    +0.000 F 
ATOM     32  F   UNL     1       4.704   4.428  15.425  0.00  0.00    +0.000 F 
ENDBRANCH  28  29
ENDBRANCH  22  23
ENDBRANCH  21  22
ENDBRANCH   2  21
TORSDOF 8
ENDMDL
MODEL 5
REMARK VINA RESULT:      -8.1      1.160      1.834
REMARK  Name = 
REMARK  9 active torsions:
REMARK  status: ('A' for Active; 'I' for Inactive)
REMARK    1  A    between atoms: C_1  and  C_2
REMARK    2  A    between atoms: C_2  and  O_3
REMARK    3  A    between atoms: C_2  and  C_4
REMARK    4  A    between atoms: C_2  and  C_16
REMARK    5  A    between atoms: C_4  and  O_5
REMARK    6  A    between atoms: O_5  and  C_6
REMARK    7  A    between atoms: C_11  and  C_12
REMARK    8  A    between atoms: N_18  and  C_19
REMARK    9  A    between atoms: C_23  and  S_24
REMARK                            x       y       z     vdW  Elec       q    Type
REMARK                         _______ _______ _______ _____ _____    ______ ____
ROOT
ATOM      1  C   UNL     1       1.863   2.087  19.699  0.00  0.00    +0.000 C 
ATOM      2  C   UNL     1       2.726   3.271  20.184  0.00  0.00    +0.000 C 
ENDROOT
BRANCH   2   3
ATOM      3  C   UNL     1       2.198   4.568  19.615  0.00  0.00    +0.000 C 
ATOM      4  O   UNL     1       1.319   4.514  18.771  0.00  0.00    +0.000 OA
ATOM      5  N   UNL     1       2.684   5.772  20.043  0.00  0.00    +0.000 N 
ATOM      6  H   UNL     1       3.380   5.770  20.805  0.00  0.00    +0.000 HD
BRANCH   5   7
ATOM      7  C   UNL     1       2.292   7.047  19.515  0.00  0.00    +0.000 A 
ATOM      8  C   UNL     1       2.676   7.495  18.234  0.00  0.00    +0.000 A 
ATOM      9  C   UNL     1       2.284   8.741  17.765  0.00  0.00    +0.000 A 
ATOM     10  C   UNL     1       1.540   9.595  18.577  0.00  0.00    +0.000 A 
ATOM     11  C   UNL     1       1.202   9.194  19.886  0.00  0.00    +0.000 A 
ATOM     12  C   UNL     1       1.555   7.917  20.328  0.00  0.00    +0.000 A 
BRANCH  11  13
ATOM     13  S   UNL     1       0.441  10.276  21.112  0.00  0.00    +0.000 S 
ATOM     14  F   UNL     1      -1.202  10.423  20.642  0.00  0.00    +0.000 F 
ATOM     15  F   UNL     1       1.557  11.572  20.990  0.00  0.00    +0.000 F 
ATOM     16  F   UNL     1      -0.287  11.279  22.291  0.00  0.00    +0.000 F 
ATOM     17  F   UNL     1      -0.423   8.861  21.553  0.00  0.00    +0.000 F 
ATOM     18  F   UNL     1       0.248  11.118  19.629  0.00  0.00    +0.000 F 
ENDBRANCH  11  13
ENDBRANCH   5   7
ENDBRANCH   2   3
BRANCH   2  19
ATOM     19  O   UNL     1       2.693   3.373  21.587  0.00  0.00    +0.000 OA
ATOM     20  H   UNL     1       3.353   2.732  21.957  0.00  0.00    +0.000 HD
ENDBRANCH   2  19
BRANCH   2  21
ATOM     21  C   UNL     1       4.174   3.064  19.709  0.00  0.00    +0.000 C 
BRANCH  21  22
ATOM     22  O   UNL     1       4.404   3.760  18.522  0.00  0.00    +0.000 OA
BRANCH  22  23
ATOM     23  C   UNL     1       5.485   4.554  18.298  0.00  0.00    +0.000 A 
ATOM     24  C   UNL     1       6.139   5.148  19.395  0.00  0.00    +0.000 A 
ATOM     25  C   UNL     1       7.237   5.968  19.217  0.00  0.00    +0.000 A 
ATOM     26  C   UNL     1       7.729   6.203  17.940  0.00  0.00    +0.000 A 
ATOM     27  C   UNL     1       7.107   5.631  16.830  0.00  0.00    +0.000 A 
ATOM     28  C   UNL     1       5.970   4.814  16.978  0.00  0.00    +0.000 A 
BRANCH  28  29
ATOM     29  C   UNL     1       5.316   4.305  15.702  0.00  0.00    +0.000 C 
ATOM     30  F   UNL     1       3.994   3.961  15.896  0.00  0.00    +0.000 F 
ATOM     31  F   UNL     1       5.366   5.310  14.748  0.00  0.00    +0.000 F 
ATOM     32  F   UNL     1       5.988   3.202  15.203  0.00  0.00    +0.000 F 
ENDBRANCH  28  29
ENDBRANCH  22  23
ENDBRANCH  21  22
ENDBRANCH   2  21
TORSDOF 8
ENDMDL
MODEL 6
REMARK VINA RESULT:      -8.1      1.495      2.156
REMARK  Name = 
REMARK  9 active torsions:
REMARK  status: ('A' for Active; 'I' for Inactive)
REMARK    1  A    between atoms: C_1  and  C_2
REMARK    2  A    between atoms: C_2  and  O_3
REMARK    3  A    between atoms: C_2  and  C_4
REMARK    4  A    between atoms: C_2  and  C_16
REMARK    5  A    between atoms: C_4  and  O_5
REMARK    6  A    between atoms: O_5  and  C_6
REMARK    7  A    between atoms: C_11  and  C_12
REMARK    8  A    between atoms: N_18  and  C_19
REMARK    9  A    between atoms: C_23  and  S_24
REMARK                            x       y       z     vdW  Elec       q    Type
REMARK                         _______ _______ _______ _____ _____    ______ ____
ROOT
ATOM      1  C   UNL     1       2.789   2.234  17.933  0.00  0.00    +0.000 C 
ATOM      2  C   UNL     1       3.329   3.290  18.920  0.00  0.00    +0.000 C 
ENDROOT
BRANCH   2   3
ATOM      3  C   UNL     1       2.601   4.601  18.730  0.00  0.00    +0.000 C 
ATOM      4  O   UNL     1       1.602   4.612  18.030  0.00  0.00    +0.000 OA
ATOM      5  N   UNL     1       3.042   5.743  19.337  0.00  0.00    +0.000 N 
ATOM      6  H   UNL     1       3.852   5.673  19.972  0.00  0.00    +0.000 HD
BRANCH   5   7
ATOM      7  C   UNL     1       2.455   7.041  19.163  0.00  0.00    +0.000 A 
ATOM      8  C   UNL     1       2.686   7.838  18.023  0.00  0.00    +0.000 A 
ATOM      9  C   UNL     1       2.108   9.093  17.898  0.00  0.00    +0.000 A 
ATOM     10  C   UNL     1       1.323   9.610  18.928  0.00  0.00    +0.000 A 
ATOM     11  C   UNL     1       1.134   8.859  20.105  0.00  0.00    +0.000 A 
ATOM     12  C   UNL     1       1.676   7.575  20.197  0.00  0.00    +0.000 A 
BRANCH  11  13
ATOM     13  S   UNL     1       0.333   9.491  21.593  0.00  0.00    +0.000 S 
ATOM     14  F   UNL     1       1.597   9.758  22.719  0.00  0.00    +0.000 F 
ATOM     15  F   UNL     1      -0.819   8.235  21.777  0.00  0.00    +0.000 F 
ATOM     16  F   UNL     1      -0.423  10.117  22.992  0.00  0.00    +0.000 F 
ATOM     17  F   UNL     1       1.168  10.938  21.203  0.00  0.00    +0.000 F 
ATOM     18  F   UNL     1       1.084   8.036  22.104  0.00  0.00    +0.000 F 
ENDBRANCH  11  13
ENDBRANCH   5   7
ENDBRANCH   2   3
BRANCH   2  19
ATOM     19  O   UNL     1       3.133   2.879  20.251  0.00  0.00    +0.000 OA
ATOM     20  H   UNL     1       3.450   3.606  20.847  0.00  0.00    +0.000 HD
ENDBRANCH   2  19
BRANCH   2  21
ATOM     21  C   UNL     1       4.829   3.504  18.654  0.00  0.00    +0.000 C 
BRANCH  21  22
ATOM     22  O   UNL     1       5.034   4.670  17.916  0.00  0.00    +0.000 OA
BRANCH  22  23
ATOM     23  C   UNL     1       5.682   4.714  16.722  0.00  0.00    +0.000 A 
ATOM     24  C   UNL     1       5.400   3.734  15.751  0.00  0.00    +0.000 A 
ATOM     25  C   UNL     1       6.039   3.733  14.525  0.00  0.00    +0.000 A 
ATOM     26  C   UNL     1       6.964   4.725  14.223  0.00  0.00    +0.000 A 
ATOM     27  C   UNL     1       7.267   5.713  15.160  0.00  0.00    +0.000 A 
ATOM     28  C   UNL     1       6.654   5.723  16.428  0.00  0.00    +0.000 A 
BRANCH  28  29
ATOM     29  C   UNL     1       7.113   6.791  17.408  0.00  0.00    +0.000 C 
ATOM     30  F   UNL     1       6.072   7.589  17.834  0.00  0.00    +0.000 F 
ATOM     31  F   UNL     1       7.663   6.167  18.517  0.00  0.00    +0.000 F 
ATOM     32  F   UNL     1       8.084   7.601  16.842  0.00  0.00    +0.000 F 
ENDBRANCH  28  29
ENDBRANCH  22  23
ENDBRANCH  21  22
ENDBRANCH   2  21
TORSDOF 8
ENDMDL
MODEL 7
REMARK VINA RESULT:      -8.1      0.754      1.028
REMARK  Name = 
REMARK  9 active torsions:
REMARK  status: ('A' for Active; 'I' for Inactive)
REMARK    1  A    between atoms: C_1  and  C_2
REMARK    2  A    between atoms: C_2  and  O_3
REMARK    3  A    between atoms: C_2  and  C_4
REMARK    4  A    between atoms: C_2  and  C_16
REMARK    5  A    between atoms: C_4  and  O_5
REMARK    6  A    between atoms: O_5  and  C_6
REMARK    7  A    between atoms: C_11  and  C_12
REMARK    8  A    between atoms: N_18  and  C_19
REMARK    9  A    between atoms: C_23  and  S_24
REMARK                            x       y       z     vdW  Elec       q    Type
REMARK                         _______ _______ _______ _____ _____    ______ ____
ROOT
ATOM      1  C   UNL     1       2.580   2.259  18.408  0.00  0.00    +0.000 C 
ATOM      2  C   UNL     1       2.928   3.080  19.667  0.00  0.00    +0.000 C 
ENDROOT
BRANCH   2   3
ATOM      3  C   UNL     1       2.271   4.440  19.601  0.00  0.00    +0.000 C 
ATOM      4  O   UNL     1       1.087   4.524  19.883  0.00  0.00    +0.000 OA
ATOM      5  N   UNL     1       2.986   5.549  19.248  0.00  0.00    +0.000 N 
ATOM      6  H   UNL     1       3.999   5.441  19.082  0.00  0.00    +0.000 HD
BRANCH   5   7
ATOM      7  C   UNL     1       2.434   6.865  19.096  0.00  0.00    +0.000 A 
ATOM      8  C   UNL     1       2.649   7.656  17.948  0.00  0.00    +0.000 A 
ATOM      9  C   UNL     1       2.107   8.929  17.845  0.00  0.00    +0.000 A 
ATOM     10  C   UNL     1       1.375   9.468  18.902  0.00  0.00    +0.000 A 
ATOM     11  C   UNL     1       1.204   8.721  20.085  0.00  0.00    +0.000 A 
ATOM     12  C   UNL     1       1.710   7.421  20.157  0.00  0.00    +0.000 A 
BRANCH  11  13
ATOM     13  S   UNL     1       0.477   9.375  21.601  0.00  0.00    +0.000 S 
ATOM     14  F   UNL     1       1.783   9.558  22.697  0.00  0.00    +0.000 F 
ATOM     15  F   UNL     1      -0.736   8.181  21.800  0.00  0.00    +0.000 F 
ATOM     16  F   UNL     1      -0.208  10.022  23.027  0.00  0.00    +0.000 F 
ATOM     17  F   UNL     1       1.380  10.780  21.207  0.00  0.00    +0.000 F 
ATOM     18  F   UNL     1       1.161   7.875  22.074  0.00  0.00    +0.000 F 
ENDBRANCH  11  13
ENDBRANCH   5   7
ENDBRANCH   2   3
BRANCH   2  19
ATOM     19  O   UNL     1       2.466   2.436  20.829  0.00  0.00    +0.000 OA
ATOM     20  H   UNL     1       2.011   1.599  20.557  0.00  0.00    +0.000 HD
ENDBRANCH   2  19
BRANCH   2  21
ATOM     21  C   UNL     1       4.454   3.261  19.741  0.00  0.00    +0.000 C 
BRANCH  21  22
ATOM     22  O   UNL     1       4.977   3.536  18.477  0.00  0.00    +0.000 OA
BRANCH  22  23
ATOM     23  C   UNL     1       5.874   4.524  18.220  0.00  0.00    +0.000 A 
ATOM     24  C   UNL     1       6.553   5.131  19.293  0.00  0.00    +0.000 A 
ATOM     25  C   UNL     1       7.469   6.145  19.082  0.00  0.00    +0.000 A 
ATOM     26  C   UNL     1       7.751   6.569  17.789  0.00  0.00    +0.000 A 
ATOM     27  C   UNL     1       7.097   5.989  16.701  0.00  0.00    +0.000 A 
ATOM     28  C   UNL     1       6.139   4.974  16.888  0.00  0.00    +0.000 A 
BRANCH  28  29
ATOM     29  C   UNL     1       5.423   4.466  15.646  0.00  0.00    +0.000 C 
ATOM     30  F   UNL     1       4.169   3.969  15.935  0.00  0.00    +0.000 F 
ATOM     31  F   UNL     1       5.277   5.520  14.757  0.00  0.00    +0.000 F 
ATOM     32  F   UNL     1       6.156   3.471  15.020  0.00  0.00    +0.000 F 
ENDBRANCH  28  29
ENDBRANCH  22  23
ENDBRANCH  21  22
ENDBRANCH   2  21
TORSDOF 8
ENDMDL
MODEL 8
REMARK VINA RESULT:      -8.0      1.787      2.432
REMARK  Name = 
REMARK  9 active torsions:
REMARK  status: ('A' for Active; 'I' for Inactive)
REMARK    1  A    between atoms: C_1  and  C_2
REMARK    2  A    between atoms: C_2  and  O_3
REMARK    3  A    between atoms: C_2  and  C_4
REMARK    4  A    between atoms: C_2  and  C_16
REMARK    5  A    between atoms: C_4  and  O_5
REMARK    6  A    between atoms: O_5  and  C_6
REMARK    7  A    between atoms: C_11  and  C_12
REMARK    8  A    between atoms: N_18  and  C_19
REMARK    9  A    between atoms: C_23  and  S_24
REMARK                            x       y       z     vdW  Elec       q    Type
REMARK                         _______ _______ _______ _____ _____    ______ ____
ROOT
ATOM      1  C   UNL     1       2.420   2.277  18.810  0.00  0.00    +0.000 C 
ATOM      2  C   UNL     1       2.976   3.434  19.668  0.00  0.00    +0.000 C 
ENDROOT
BRANCH   2   3
ATOM      3  C   UNL     1       2.359   4.745  19.238  0.00  0.00    +0.000 C 
ATOM      4  O   UNL     1       1.562   4.734  18.314  0.00  0.00    +0.000 OA
ATOM      5  N   UNL     1       2.675   5.912  19.876  0.00  0.00    +0.000 N 
ATOM      6  H   UNL     1       3.303   5.863  20.694  0.00  0.00    +0.000 HD
BRANCH   5   7
ATOM      7  C   UNL     1       2.190   7.209  19.498  0.00  0.00    +0.000 A 
ATOM      8  C   UNL     1       2.604   7.865  18.320  0.00  0.00    +0.000 A 
ATOM      9  C   UNL     1       2.120   9.124  17.995  0.00  0.00    +0.000 A 
ATOM     10  C   UNL     1       1.247   9.785  18.859  0.00  0.00    +0.000 A 
ATOM     11  C   UNL     1       0.873   9.175  20.073  0.00  0.00    +0.000 A 
ATOM     12  C   UNL     1       1.324   7.886  20.364  0.00  0.00    +0.000 A 
BRANCH  11  13
ATOM     13  S   UNL     1      -0.064  10.001  21.376  0.00  0.00    +0.000 S 
ATOM     14  F   UNL     1       0.692  11.524  21.593  0.00  0.00    +0.000 F 
ATOM     15  F   UNL     1       0.026   8.749  22.543  0.00  0.00    +0.000 F 
ATOM     16  F   UNL     1      -0.969  10.794  22.589  0.00  0.00    +0.000 F 
ATOM     17  F   UNL     1      -0.522  11.068  20.113  0.00  0.00    +0.000 F 
ATOM     18  F   UNL     1       1.522   9.868  22.016  0.00  0.00    +0.000 F 
ENDBRANCH  11  13
ENDBRANCH   5   7
ENDBRANCH   2   3
BRANCH   2  19
ATOM     19  O   UNL     1       2.672   3.241  21.027  0.00  0.00    +0.000 OA
ATOM     20  H   UNL     1       2.127   4.012  21.333  0.00  0.00    +0.000 HD
ENDBRANCH   2  19
BRANCH   2  21
ATOM     21  C   UNL     1       4.501   3.509  19.479  0.00  0.00    +0.000 C 
BRANCH  21  22
ATOM     22  O   UNL     1       4.853   4.679  18.805  0.00  0.00    +0.000 OA
BRANCH  22  23
ATOM     23  C   UNL     1       5.472   4.706  17.595  0.00  0.00    +0.000 A 
ATOM     24  C   UNL     1       4.794   4.208  16.466  0.00  0.00    +0.000 A 
ATOM     25  C   UNL     1       5.384   4.208  15.216  0.00  0.00    +0.000 A 
ATOM     26  C   UNL     1       6.662   4.726  15.051  0.00  0.00    +0.000 A 
ATOM     27  C   UNL     1       7.364   5.229  16.147  0.00  0.00    +0.000 A 
ATOM     28  C   UNL     1       6.799   5.217  17.437  0.00  0.00    +0.000 A 
BRANCH  28  29
ATOM     29  C   UNL     1       7.675   5.710  18.578  0.00  0.00    +0.000 C 
ATOM     30  F   UNL     1       6.967   5.860  19.752  0.00  0.00    +0.000 F 
ATOM     31  F   UNL     1       8.683   4.783  18.795  0.00  0.00    +0.000 F 
ATOM     32  F   UNL     1       8.266   6.924  18.264  0.00  0.00    +0.000 F 
ENDBRANCH  28  29
ENDBRANCH  22  23
ENDBRANCH  21  22
ENDBRANCH   2  21
TORSDOF 8
ENDMDL
MODEL 9
REMARK VINA RESULT:      -8.0      0.884      1.195
REMARK  Name = 
REMARK  9 active torsions:
REMARK  status: ('A' for Active; 'I' for Inactive)
REMARK    1  A    between atoms: C_1  and  C_2
REMARK    2  A    between atoms: C_2  and  O_3
REMARK    3  A    between atoms: C_2  and  C_4
REMARK    4  A    between atoms: C_2  and  C_16
REMARK    5  A    between atoms: C_4  and  O_5
REMARK    6  A    between atoms: O_5  and  C_6
REMARK    7  A    between atoms: C_11  and  C_12
REMARK    8  A    between atoms: N_18  and  C_19
REMARK    9  A    between atoms: C_23  and  S_24
REMARK                            x       y       z     vdW  Elec       q    Type
REMARK                         _______ _______ _______ _____ _____    ______ ____
ROOT
ATOM      1  C   UNL     1       1.800   2.146  18.923  0.00  0.00    +0.000 C 
ATOM      2  C   UNL     1       2.784   3.258  19.341  0.00  0.00    +0.000 C 
ENDROOT
BRANCH   2   3
ATOM      3  C   UNL     1       2.238   4.613  18.950  0.00  0.00    +0.000 C 
ATOM      4  O   UNL     1       1.408   4.666  18.056  0.00  0.00    +0.000 OA
ATOM      5  N   UNL     1       2.652   5.748  19.588  0.00  0.00    +0.000 N 
ATOM      6  H   UNL     1       3.306   5.648  20.380  0.00  0.00    +0.000 HD
BRANCH   5   7
ATOM      7  C   UNL     1       2.239   7.078  19.242  0.00  0.00    +0.000 A 
ATOM      8  C   UNL     1       2.707   7.749  18.093  0.00  0.00    +0.000 A 
ATOM      9  C   UNL     1       2.292   9.040  17.800  0.00  0.00    +0.000 A 
ATOM     10  C   UNL     1       1.437   9.717  18.670  0.00  0.00    +0.000 A 
ATOM     11  C   UNL     1       1.010   9.090  19.857  0.00  0.00    +0.000 A 
ATOM     12  C   UNL     1       1.392   7.771  20.115  0.00  0.00    +0.000 A 
BRANCH  11  13
ATOM     13  S   UNL     1       0.091   9.921  21.169  0.00  0.00    +0.000 S 
ATOM     14  F   UNL     1       0.920  11.394  21.451  0.00  0.00    +0.000 F 
ATOM     15  F   UNL     1       0.093   8.628  22.296  0.00  0.00    +0.000 F 
ATOM     16  F   UNL     1      -0.796  10.720  22.391  0.00  0.00    +0.000 F 
ATOM     17  F   UNL     1      -0.286  11.050  19.934  0.00  0.00    +0.000 F 
ATOM     18  F   UNL     1       1.655   9.685  21.834  0.00  0.00    +0.000 F 
ENDBRANCH  11  13
ENDBRANCH   5   7
ENDBRANCH   2   3
BRANCH   2  19
ATOM     19  O   UNL     1       2.977   3.260  20.734  0.00  0.00    +0.000 OA
ATOM     20  H   UNL     1       2.721   4.154  21.079  0.00  0.00    +0.000 HD
ENDBRANCH   2  19
BRANCH   2  21
ATOM     21  C   UNL     1       4.128   3.033  18.627  0.00  0.00    +0.000 C 
BRANCH  21  22
ATOM     22  O   UNL     1       4.442   4.124  17.817  0.00  0.00    +0.000 OA
BRANCH  22  23
ATOM     23  C   UNL     1       5.557   4.889  17.963  0.00  0.00    +0.000 A 
ATOM     24  C   UNL     1       6.117   5.047  19.245  0.00  0.00    +0.000 A 
ATOM     25  C   UNL     1       7.246   5.820  19.444  0.00  0.00    +0.000 A 
ATOM     26  C   UNL     1       7.862   6.442  18.365  0.00  0.00    +0.000 A 
ATOM     27  C   UNL     1       7.335   6.306  17.081  0.00  0.00    +0.000 A 
ATOM     28  C   UNL     1       6.170   5.548  16.851  0.00  0.00    +0.000 A 
BRANCH  28  29
ATOM     29  C   UNL     1       5.629   5.530  15.430  0.00  0.00    +0.000 C 
ATOM     30  F   UNL     1       6.633   5.423  14.492  0.00  0.00    +0.000 F 
ATOM     31  F   UNL     1       4.787   4.436  15.292  0.00  0.00    +0.000 F 
ATOM     32  F   UNL     1       4.896   6.675  15.162  0.00  0.00    +0.000 F 
ENDBRANCH  28  29
ENDBRANCH  22  23
ENDBRANCH  21  22
ENDBRANCH   2  21
TORSDOF 8
ENDMDL
