MODEL 1
REMARK VINA RESULT:      -9.2      0.000      0.000
REMARK  Name = 
REMARK  6 active torsions:
REMARK  status: ('A' for Active; 'I' for Inactive)
REMARK    1  A    between atoms: C_1  and  O_2
REMARK    2  A    between atoms: O_2  and  C_3
REMARK    3  A    between atoms: C_6  and  C_7
REMARK    4  A    between atoms: N_15  and  C_16
REMARK    5  A    between atoms: N_22  and  C_23
REMARK    6  A    between atoms: C_26  and  C_27
REMARK                            x       y       z     vdW  Elec       q    Type
REMARK                         _______ _______ _______ _____ _____    ______ ____
ROOT
ATOM      1  C   UNL     1      -2.518  12.137  19.970  0.00  0.00    +0.000 A 
ATOM      2  N   UNL     1      -3.596  12.257  19.201  0.00  0.00    +0.000 NA
ATOM      3  C   UNL     1      -3.389  11.470  18.105  0.00  0.00    +0.000 A 
ATOM      4  C   UNL     1      -4.181  11.230  16.976  0.00  0.00    +0.000 A 
ATOM      5  C   UNL     1      -3.652  10.393  15.990  0.00  0.00    +0.000 A 
ATOM      6  C   UNL     1      -2.402   9.821  16.191  0.00  0.00    +0.000 A 
ATOM      7  N   UNL     1      -1.629   9.987  17.288  0.00  0.00    +0.000 NA
ATOM      8  C   UNL     1      -2.161  10.839  18.187  0.00  0.00    +0.000 A 
ATOM      9  N   UNL     1      -1.596  11.280  19.363  0.00  0.00    +0.000 N 
ENDROOT
BRANCH   9  10
ATOM     10  C   UNL     1      -0.287  10.880  19.851  0.00  0.00    +0.000 C 
ATOM     11  C   UNL     1      -0.357   9.575  20.669  0.00  0.00    +0.000 C 
ATOM     12  C   UNL     1       1.028   8.980  20.541  0.00  0.00    +0.000 C 
ATOM     13  N   UNL     1       1.388   9.304  19.179  0.00  0.00    +0.000 N 
ATOM     14  C   UNL     1       2.151   8.607  18.268  0.00  0.00    +0.000 C 
ATOM     15  O   UNL     1       2.413   9.114  17.181  0.00  0.00    +0.000 OA
ATOM     16  N   UNL     1       2.557   7.353  18.667  0.00  0.00    +0.000 N 
ATOM     17  C   UNL     1       0.820  10.600  18.811  0.00  0.00    +0.000 C 
ATOM     18  H   UNL     1       2.084   6.953  19.463  0.00  0.00    +0.000 HD
BRANCH  16  19
ATOM     19  C   UNL     1       3.368   6.461  17.923  0.00  0.00    +0.000 A 
ATOM     20  C   UNL     1       4.511   6.877  17.234  0.00  0.00    +0.000 A 
ATOM     21  C   UNL     1       5.270   5.973  16.484  0.00  0.00    +0.000 A 
ATOM     22  C   UNL     1       4.905   4.629  16.419  0.00  0.00    +0.000 A 
ATOM     23  C   UNL     1       5.709   3.658  15.611  0.00  0.00    +0.000 C 
ATOM     24  C   UNL     1       3.774   4.217  17.126  0.00  0.00    +0.000 A 
ATOM     25  F   UNL     1       3.399   2.927  17.081  0.00  0.00    +0.000 F 
ATOM     26  C   UNL     1       3.015   5.113  17.875  0.00  0.00    +0.000 A 
ENDBRANCH  16  19
ENDBRANCH   9  10
BRANCH   1  30
ATOM     27  C   UNL     1      -1.988  14.409  23.597  0.00  0.00    +0.000 A 
ATOM     28  C   UNL     1      -2.537  13.134  23.657  0.00  0.00    +0.000 A 
ATOM     29  C   UNL     1      -2.738  12.391  22.489  0.00  0.00    +0.000 A 
ATOM     30  C   UNL     1      -2.372  12.889  21.235  0.00  0.00    +0.000 A 
ATOM     31  C   UNL     1      -1.880  14.204  21.188  0.00  0.00    +0.000 A 
ATOM     32  C   UNL     1      -1.689  14.960  22.355  0.00  0.00    +0.000 A 
BRANCH  27  34
ATOM     33  C   UNL     1      -2.990  15.721  25.276  0.00  0.00    +0.000 C 
ATOM     34  O   UNL     1      -1.839  15.031  24.803  0.00  0.00    +0.000 OA
ENDBRANCH  27  34
ENDBRANCH   1  30
TORSDOF 4
ENDMDL
MODEL 2
REMARK VINA RESULT:      -9.2      0.849      1.188
REMARK  Name = 
REMARK  6 active torsions:
REMARK  status: ('A' for Active; 'I' for Inactive)
REMARK    1  A    between atoms: C_1  and  O_2
REMARK    2  A    between atoms: O_2  and  C_3
REMARK    3  A    between atoms: C_6  and  C_7
REMARK    4  A    between atoms: N_15  and  C_16
REMARK    5  A    between atoms: N_22  and  C_23
REMARK    6  A    between atoms: C_26  and  C_27
REMARK                            x       y       z     vdW  Elec       q    Type
REMARK                         _______ _______ _______ _____ _____    ______ ____
ROOT
ATOM      1  C   UNL     1      -2.459  12.135  20.091  0.00  0.00    +0.000 A 
ATOM      2  N   UNL     1      -3.542  12.286  19.334  0.00  0.00    +0.000 NA
ATOM      3  C   UNL     1      -3.355  11.520  18.220  0.00  0.00    +0.000 A 
ATOM      4  C   UNL     1      -4.160  11.316  17.092  0.00  0.00    +0.000 A 
ATOM      5  C   UNL     1      -3.651  10.493  16.084  0.00  0.00    +0.000 A 
ATOM      6  C   UNL     1      -2.407   9.900  16.261  0.00  0.00    +0.000 A 
ATOM      7  N   UNL     1      -1.622  10.032  17.354  0.00  0.00    +0.000 NA
ATOM      8  C   UNL     1      -2.135  10.871  18.276  0.00  0.00    +0.000 A 
ATOM      9  N   UNL     1      -1.554  11.279  19.457  0.00  0.00    +0.000 N 
ENDROOT
BRANCH   9  10
ATOM     10  C   UNL     1      -0.246  10.851  19.924  0.00  0.00    +0.000 C 
ATOM     11  C   UNL     1      -0.333   9.558  20.759  0.00  0.00    +0.000 C 
ATOM     12  C   UNL     1       1.033   8.926  20.611  0.00  0.00    +0.000 C 
ATOM     13  N   UNL     1       1.375   9.225  19.239  0.00  0.00    +0.000 N 
ATOM     14  C   UNL     1       2.102   8.499  18.322  0.00  0.00    +0.000 C 
ATOM     15  O   UNL     1       2.355   8.986  17.224  0.00  0.00    +0.000 OA
ATOM     16  N   UNL     1       2.483   7.239  18.728  0.00  0.00    +0.000 N 
ATOM     17  C   UNL     1       0.833  10.531  18.866  0.00  0.00    +0.000 C 
ATOM     18  H   UNL     1       2.016   6.861  19.538  0.00  0.00    +0.000 HD
BRANCH  16  19
ATOM     19  C   UNL     1       3.257   6.319  17.979  0.00  0.00    +0.000 A 
ATOM     20  C   UNL     1       2.858   4.996  17.763  0.00  0.00    +0.000 A 
ATOM     21  C   UNL     1       3.665   4.107  17.046  0.00  0.00    +0.000 A 
ATOM     22  C   UNL     1       4.884   4.529  16.518  0.00  0.00    +0.000 A 
ATOM     23  C   UNL     1       5.755   3.580  15.755  0.00  0.00    +0.000 C 
ATOM     24  C   UNL     1       5.267   5.857  16.719  0.00  0.00    +0.000 A 
ATOM     25  F   UNL     1       6.437   6.291  16.222  0.00  0.00    +0.000 F 
ATOM     26  C   UNL     1       4.467   6.747  17.434  0.00  0.00    +0.000 A 
ENDBRANCH  16  19
ENDBRANCH   9  10
BRANCH   1  30
ATOM     27  C   UNL     1      -1.832  14.260  23.790  0.00  0.00    +0.000 A 
ATOM     28  C   UNL     1      -2.885  13.359  23.683  0.00  0.00    +0.000 A 
ATOM     29  C   UNL     1      -3.118  12.678  22.484  0.00  0.00    +0.000 A 
ATOM     30  C   UNL     1      -2.293  12.857  21.370  0.00  0.00    +0.000 A 
ATOM     31  C   UNL     1      -1.275  13.819  21.477  0.00  0.00    +0.000 A 
ATOM     32  C   UNL     1      -1.044  14.517  22.673  0.00  0.00    +0.000 A 
BRANCH  27  34
ATOM     33  C   UNL     1      -2.798  15.688  25.395  0.00  0.00    +0.000 C 
ATOM     34  O   UNL     1      -1.707  14.859  25.011  0.00  0.00    +0.000 OA
ENDBRANCH  27  34
ENDBRANCH   1  30
TORSDOF 4
ENDMDL
MODEL 3
REMARK VINA RESULT:      -8.8      3.304     10.586
REMARK  Name = 
REMARK  6 active torsions:
REMARK  status: ('A' for Active; 'I' for Inactive)
REMARK    1  A    between atoms: C_1  and  O_2
REMARK    2  A    between atoms: O_2  and  C_3
REMARK    3  A    between atoms: C_6  and  C_7
REMARK    4  A    between atoms: N_15  and  C_16
REMARK    5  A    between atoms: N_22  and  C_23
REMARK    6  A    between atoms: C_26  and  C_27
REMARK                            x       y       z     vdW  Elec       q    Type
REMARK                         _______ _______ _______ _____ _____    ______ ____
ROOT
ATOM      1  C   UNL     1       4.002   4.086  17.445  0.00  0.00    +0.000 A 
ATOM      2  N   UNL     1       3.546   2.848  17.604  0.00  0.00    +0.000 NA
ATOM      3  C   UNL     1       2.582   2.903  18.570  0.00  0.00    +0.000 A 
ATOM      4  C   UNL     1       1.786   1.903  19.141  0.00  0.00    +0.000 A 
ATOM      5  C   UNL     1       0.911   2.286  20.161  0.00  0.00    +0.000 A 
ATOM      6  C   UNL     1       0.849   3.625  20.528  0.00  0.00    +0.000 A 
ATOM      7  N   UNL     1       1.563   4.627  19.968  0.00  0.00    +0.000 NA
ATOM      8  C   UNL     1       2.425   4.201  19.024  0.00  0.00    +0.000 A 
ATOM      9  N   UNL     1       3.344   4.950  18.324  0.00  0.00    +0.000 N 
ENDROOT
BRANCH   9  10
ATOM     10  C   UNL     1       3.539   6.381  18.489  0.00  0.00    +0.000 C 
ATOM     11  C   UNL     1       3.172   7.160  17.210  0.00  0.00    +0.000 C 
ATOM     12  C   UNL     1       2.808   8.541  17.706  0.00  0.00    +0.000 C 
ATOM     13  N   UNL     1       2.132   8.264  18.953  0.00  0.00    +0.000 N 
ATOM     14  C   UNL     1       1.086   8.919  19.565  0.00  0.00    +0.000 C 
ATOM     15  O   UNL     1       0.720   8.566  20.683  0.00  0.00    +0.000 OA
ATOM     16  N   UNL     1       0.515   9.939  18.838  0.00  0.00    +0.000 N 
ATOM     17  C   UNL     1       2.737   7.099  19.597  0.00  0.00    +0.000 C 
ATOM     18  H   UNL     1       0.732   9.974  17.853  0.00  0.00    +0.000 HD
BRANCH  16  19
ATOM     19  C   UNL     1      -0.549  10.773  19.262  0.00  0.00    +0.000 A 
ATOM     20  C   UNL     1      -0.512  11.495  20.458  0.00  0.00    +0.000 A 
ATOM     21  C   UNL     1      -1.594  12.283  20.859  0.00  0.00    +0.000 A 
ATOM     22  C   UNL     1      -2.734  12.376  20.061  0.00  0.00    +0.000 A 
ATOM     23  C   UNL     1      -3.900  13.213  20.489  0.00  0.00    +0.000 C 
ATOM     24  C   UNL     1      -2.756  11.669  18.858  0.00  0.00    +0.000 A 
ATOM     25  F   UNL     1      -3.842  11.739  18.069  0.00  0.00    +0.000 F 
ATOM     26  C   UNL     1      -1.680  10.881  18.454  0.00  0.00    +0.000 A 
ENDBRANCH  16  19
ENDBRANCH   9  10
BRANCH   1  30
ATOM     27  C   UNL     1       7.242   5.098  14.785  0.00  0.00    +0.000 A 
ATOM     28  C   UNL     1       6.060   4.584  14.266  0.00  0.00    +0.000 A 
ATOM     29  C   UNL     1       5.006   4.229  15.115  0.00  0.00    +0.000 A 
ATOM     30  C   UNL     1       5.094   4.400  16.499  0.00  0.00    +0.000 A 
ATOM     31  C   UNL     1       6.320   4.859  17.010  0.00  0.00    +0.000 A 
ATOM     32  C   UNL     1       7.386   5.205  16.164  0.00  0.00    +0.000 A 
BRANCH  27  34
ATOM     33  C   UNL     1       7.781   5.278  12.500  0.00  0.00    +0.000 C 
ATOM     34  O   UNL     1       8.193   5.410  13.855  0.00  0.00    +0.000 OA
ENDBRANCH  27  34
ENDBRANCH   1  30
TORSDOF 4
ENDMDL
MODEL 4
REMARK VINA RESULT:      -8.7      1.766      2.049
REMARK  Name = 
REMARK  6 active torsions:
REMARK  status: ('A' for Active; 'I' for Inactive)
REMARK    1  A    between atoms: C_1  and  O_2
REMARK    2  A    between atoms: O_2  and  C_3
REMARK    3  A    between atoms: C_6  and  C_7
REMARK    4  A    between atoms: N_15  and  C_16
REMARK    5  A    between atoms: N_22  and  C_23
REMARK    6  A    between atoms: C_26  and  C_27
REMARK                            x       y       z     vdW  Elec       q    Type
REMARK                         _______ _______ _______ _____ _____    ______ ____
ROOT
ATOM      1  C   UNL     1      -2.044  12.291  20.517  0.00  0.00    +0.000 A 
ATOM      2  N   UNL     1      -3.076  12.493  19.703  0.00  0.00    +0.000 NA
ATOM      3  C   UNL     1      -2.909  11.654  18.639  0.00  0.00    +0.000 A 
ATOM      4  C   UNL     1      -3.680  11.457  17.487  0.00  0.00    +0.000 A 
ATOM      5  C   UNL     1      -3.203  10.540  16.547  0.00  0.00    +0.000 A 
ATOM      6  C   UNL     1      -2.026   9.853  16.814  0.00  0.00    +0.000 A 
ATOM      7  N   UNL     1      -1.280   9.977  17.935  0.00  0.00    +0.000 NA
ATOM      8  C   UNL     1      -1.755  10.906  18.787  0.00  0.00    +0.000 A 
ATOM      9  N   UNL     1      -1.192  11.327  19.972  0.00  0.00    +0.000 N 
ENDROOT
BRANCH   9  10
ATOM     10  C   UNL     1       0.052  10.815  20.522  0.00  0.00    +0.000 C 
ATOM     11  C   UNL     1      -0.197   9.890  21.731  0.00  0.00    +0.000 C 
ATOM     12  C   UNL     1       1.014   8.985  21.763  0.00  0.00    +0.000 C 
ATOM     13  N   UNL     1       1.286   8.768  20.360  0.00  0.00    +0.000 N 
ATOM     14  C   UNL     1       1.789   7.663  19.710  0.00  0.00    +0.000 C 
ATOM     15  O   UNL     1       2.032   7.724  18.507  0.00  0.00    +0.000 OA
ATOM     16  N   UNL     1       1.969   6.543  20.491  0.00  0.00    +0.000 N 
ATOM     17  C   UNL     1       0.961   9.973  19.599  0.00  0.00    +0.000 C 
ATOM     18  H   UNL     1       1.511   6.536  21.390  0.00  0.00    +0.000 HD
BRANCH  16  19
ATOM     19  C   UNL     1       2.496   5.300  20.061  0.00  0.00    +0.000 A 
ATOM     20  C   UNL     1       3.830   5.139  19.675  0.00  0.00    +0.000 A 
ATOM     21  C   UNL     1       4.307   3.904  19.225  0.00  0.00    +0.000 A 
ATOM     22  C   UNL     1       3.459   2.799  19.166  0.00  0.00    +0.000 A 
ATOM     23  C   UNL     1       3.961   1.475  18.678  0.00  0.00    +0.000 C 
ATOM     24  C   UNL     1       2.133   2.962  19.573  0.00  0.00    +0.000 A 
ATOM     25  F   UNL     1       1.293   1.914  19.526  0.00  0.00    +0.000 F 
ATOM     26  C   UNL     1       1.653   4.190  20.021  0.00  0.00    +0.000 A 
ENDBRANCH  16  19
ENDBRANCH   9  10
BRANCH   1  30
ATOM     27  C   UNL     1      -1.680  14.544  24.176  0.00  0.00    +0.000 A 
ATOM     28  C   UNL     1      -0.700  14.658  23.197  0.00  0.00    +0.000 A 
ATOM     29  C   UNL     1      -0.790  13.918  22.013  0.00  0.00    +0.000 A 
ATOM     30  C   UNL     1      -1.870  13.066  21.764  0.00  0.00    +0.000 A 
ATOM     31  C   UNL     1      -2.815  12.914  22.793  0.00  0.00    +0.000 A 
ATOM     32  C   UNL     1      -2.724  13.644  23.989  0.00  0.00    +0.000 A 
BRANCH  27  34
ATOM     33  C   UNL     1      -1.266  16.702  25.024  0.00  0.00    +0.000 C 
ATOM     34  O   UNL     1      -1.482  15.319  25.283  0.00  0.00    +0.000 OA
ENDBRANCH  27  34
ENDBRANCH   1  30
TORSDOF 4
ENDMDL
MODEL 5
REMARK VINA RESULT:      -8.7      3.384     10.646
REMARK  Name = 
REMARK  6 active torsions:
REMARK  status: ('A' for Active; 'I' for Inactive)
REMARK    1  A    between atoms: C_1  and  O_2
REMARK    2  A    between atoms: O_2  and  C_3
REMARK    3  A    between atoms: C_6  and  C_7
REMARK    4  A    between atoms: N_15  and  C_16
REMARK    5  A    between atoms: N_22  and  C_23
REMARK    6  A    between atoms: C_26  and  C_27
REMARK                            x       y       z     vdW  Elec       q    Type
REMARK                         _______ _______ _______ _____ _____    ______ ____
ROOT
ATOM      1  C   UNL     1       4.041   4.080  17.580  0.00  0.00    +0.000 A 
ATOM      2  N   UNL     1       3.621   2.835  17.787  0.00  0.00    +0.000 NA
ATOM      3  C   UNL     1       2.700   2.892  18.794  0.00  0.00    +0.000 A 
ATOM      4  C   UNL     1       1.954   1.888  19.423  0.00  0.00    +0.000 A 
ATOM      5  C   UNL     1       1.116   2.275  20.472  0.00  0.00    +0.000 A 
ATOM      6  C   UNL     1       1.040   3.620  20.812  0.00  0.00    +0.000 A 
ATOM      7  N   UNL     1       1.705   4.625  20.199  0.00  0.00    +0.000 NA
ATOM      8  C   UNL     1       2.533   4.196  19.226  0.00  0.00    +0.000 A 
ATOM      9  N   UNL     1       3.403   4.949  18.469  0.00  0.00    +0.000 N 
ENDROOT
BRANCH   9  10
ATOM     10  C   UNL     1       3.573   6.387  18.594  0.00  0.00    +0.000 C 
ATOM     11  C   UNL     1       3.195   7.122  17.293  0.00  0.00    +0.000 C 
ATOM     12  C   UNL     1       2.806   8.511  17.748  0.00  0.00    +0.000 C 
ATOM     13  N   UNL     1       2.131   8.257  19.001  0.00  0.00    +0.000 N 
ATOM     14  C   UNL     1       1.072   8.911  19.593  0.00  0.00    +0.000 C 
ATOM     15  O   UNL     1       0.709   8.583  20.719  0.00  0.00    +0.000 OA
ATOM     16  N   UNL     1       0.485   9.899  18.835  0.00  0.00    +0.000 N 
ATOM     17  C   UNL     1       2.755   7.122  19.680  0.00  0.00    +0.000 C 
ATOM     18  H   UNL     1       0.704   9.910  17.850  0.00  0.00    +0.000 HD
BRANCH  16  19
ATOM     19  C   UNL     1      -0.594  10.726  19.233  0.00  0.00    +0.000 A 
ATOM     20  C   UNL     1      -1.786  10.814  18.508  0.00  0.00    +0.000 A 
ATOM     21  C   UNL     1      -2.817  11.667  18.914  0.00  0.00    +0.000 A 
ATOM     22  C   UNL     1      -2.680  12.441  20.066  0.00  0.00    +0.000 A 
ATOM     23  C   UNL     1      -3.777  13.362  20.502  0.00  0.00    +0.000 C 
ATOM     24  C   UNL     1      -1.495  12.333  20.796  0.00  0.00    +0.000 A 
ATOM     25  F   UNL     1      -1.335  13.068  21.909  0.00  0.00    +0.000 F 
ATOM     26  C   UNL     1      -0.465  11.486  20.396  0.00  0.00    +0.000 A 
ENDBRANCH  16  19
ENDBRANCH   9  10
BRANCH   1  30
ATOM     27  C   UNL     1       7.150   5.080  14.765  0.00  0.00    +0.000 A 
ATOM     28  C   UNL     1       5.882   4.750  14.302  0.00  0.00    +0.000 A 
ATOM     29  C   UNL     1       4.867   4.401  15.199  0.00  0.00    +0.000 A 
ATOM     30  C   UNL     1       5.083   4.396  16.580  0.00  0.00    +0.000 A 
ATOM     31  C   UNL     1       6.387   4.668  17.024  0.00  0.00    +0.000 A 
ATOM     32  C   UNL     1       7.414   5.006  16.129  0.00  0.00    +0.000 A 
BRANCH  27  34
ATOM     33  C   UNL     1       7.693   5.010  12.474  0.00  0.00    +0.000 C 
ATOM     34  O   UNL     1       8.053   5.406  13.793  0.00  0.00    +0.000 OA
ENDBRANCH  27  34
ENDBRANCH   1  30
TORSDOF 4
ENDMDL
MODEL 6
REMARK VINA RESULT:      -8.6      3.600     10.666
REMARK  Name = 
REMARK  6 active torsions:
REMARK  status: ('A' for Active; 'I' for Inactive)
REMARK    1  A    between atoms: C_1  and  O_2
REMARK    2  A    between atoms: O_2  and  C_3
REMARK    3  A    between atoms: C_6  and  C_7
REMARK    4  A    between atoms: N_15  and  C_16
REMARK    5  A    between atoms: N_22  and  C_23
REMARK    6  A    between atoms: C_26  and  C_27
REMARK                            x       y       z     vdW  Elec       q    Type
REMARK                         _______ _______ _______ _____ _____    ______ ____
ROOT
ATOM      1  C   UNL     1       3.886   4.097  17.360  0.00  0.00    +0.000 A 
ATOM      2  N   UNL     1       3.454   2.850  17.519  0.00  0.00    +0.000 NA
ATOM      3  C   UNL     1       2.463   2.892  18.456  0.00  0.00    +0.000 A 
ATOM      4  C   UNL     1       1.674   1.879  19.015  0.00  0.00    +0.000 A 
ATOM      5  C   UNL     1       0.761   2.251  20.006  0.00  0.00    +0.000 A 
ATOM      6  C   UNL     1       0.657   3.591  20.357  0.00  0.00    +0.000 A 
ATOM      7  N   UNL     1       1.364   4.605  19.807  0.00  0.00    +0.000 NA
ATOM      8  C   UNL     1       2.262   4.190  18.892  0.00  0.00    +0.000 A 
ATOM      9  N   UNL     1       3.183   4.954  18.211  0.00  0.00    +0.000 N 
ENDROOT
BRANCH   9  10
ATOM     10  C   UNL     1       3.340   6.391  18.367  0.00  0.00    +0.000 C 
ATOM     11  C   UNL     1       2.442   7.173  17.388  0.00  0.00    +0.000 C 
ATOM     12  C   UNL     1       2.224   8.507  18.066  0.00  0.00    +0.000 C 
ATOM     13  N   UNL     1       2.125   8.142  19.462  0.00  0.00    +0.000 N 
ATOM     14  C   UNL     1       1.376   8.694  20.477  0.00  0.00    +0.000 C 
ATOM     15  O   UNL     1       1.512   8.282  21.626  0.00  0.00    +0.000 OA
ATOM     16  N   UNL     1       0.498   9.685  20.098  0.00  0.00    +0.000 N 
ATOM     17  C   UNL     1       3.009   7.011  19.742  0.00  0.00    +0.000 C 
ATOM     18  H   UNL     1       0.299   9.765  19.112  0.00  0.00    +0.000 HD
BRANCH  16  19
ATOM     19  C   UNL     1      -0.354  10.420  20.958  0.00  0.00    +0.000 A 
ATOM     20  C   UNL     1      -0.432  10.177  22.332  0.00  0.00    +0.000 A 
ATOM     21  C   UNL     1      -1.310  10.902  23.145  0.00  0.00    +0.000 A 
ATOM     22  C   UNL     1      -2.119  11.897  22.598  0.00  0.00    +0.000 A 
ATOM     23  C   UNL     1      -3.066  12.671  23.462  0.00  0.00    +0.000 C 
ATOM     24  C   UNL     1      -2.021  12.149  21.228  0.00  0.00    +0.000 A 
ATOM     25  F   UNL     1      -2.790  13.101  20.674  0.00  0.00    +0.000 F 
ATOM     26  C   UNL     1      -1.149  11.429  20.414  0.00  0.00    +0.000 A 
ENDBRANCH  16  19
ENDBRANCH   9  10
BRANCH   1  30
ATOM     27  C   UNL     1       7.188   5.143  14.791  0.00  0.00    +0.000 A 
ATOM     28  C   UNL     1       5.973   4.767  14.232  0.00  0.00    +0.000 A 
ATOM     29  C   UNL     1       4.898   4.402  15.049  0.00  0.00    +0.000 A 
ATOM     30  C   UNL     1       4.998   4.428  16.443  0.00  0.00    +0.000 A 
ATOM     31  C   UNL     1       6.253   4.748  16.988  0.00  0.00    +0.000 A 
ATOM     32  C   UNL     1       7.340   5.101  16.174  0.00  0.00    +0.000 A 
BRANCH  27  34
ATOM     33  C   UNL     1       7.844   5.206  12.531  0.00  0.00    +0.000 C 
ATOM     34  O   UNL     1       8.158   5.480  13.891  0.00  0.00    +0.000 OA
ENDBRANCH  27  34
ENDBRANCH   1  30
TORSDOF 4
ENDMDL
MODEL 7
REMARK VINA RESULT:      -8.6      1.760      2.098
REMARK  Name = 
REMARK  6 active torsions:
REMARK  status: ('A' for Active; 'I' for Inactive)
REMARK    1  A    between atoms: C_1  and  O_2
REMARK    2  A    between atoms: O_2  and  C_3
REMARK    3  A    between atoms: C_6  and  C_7
REMARK    4  A    between atoms: N_15  and  C_16
REMARK    5  A    between atoms: N_22  and  C_23
REMARK    6  A    between atoms: C_26  and  C_27
REMARK                            x       y       z     vdW  Elec       q    Type
REMARK                         _______ _______ _______ _____ _____    ______ ____
ROOT
ATOM      1  C   UNL     1      -1.815  12.442  20.492  0.00  0.00    +0.000 A 
ATOM      2  N   UNL     1      -2.870  12.658  19.712  0.00  0.00    +0.000 NA
ATOM      3  C   UNL     1      -2.790  11.763  18.684  0.00  0.00    +0.000 A 
ATOM      4  C   UNL     1      -3.618  11.553  17.574  0.00  0.00    +0.000 A 
ATOM      5  C   UNL     1      -3.227  10.570  16.661  0.00  0.00    +0.000 A 
ATOM      6  C   UNL     1      -2.074   9.837  16.913  0.00  0.00    +0.000 A 
ATOM      7  N   UNL     1      -1.275   9.975  17.996  0.00  0.00    +0.000 NA
ATOM      8  C   UNL     1      -1.668  10.965  18.821  0.00  0.00    +0.000 A 
ATOM      9  N   UNL     1      -1.035  11.412  19.960  0.00  0.00    +0.000 N 
ENDROOT
BRANCH   9  10
ATOM     10  C   UNL     1       0.205  10.863  20.484  0.00  0.00    +0.000 C 
ATOM     11  C   UNL     1      -0.042   9.969  21.716  0.00  0.00    +0.000 C 
ATOM     12  C   UNL     1       1.135   9.020  21.731  0.00  0.00    +0.000 C 
ATOM     13  N   UNL     1       1.358   8.769  20.324  0.00  0.00    +0.000 N 
ATOM     14  C   UNL     1       1.800   7.634  19.681  0.00  0.00    +0.000 C 
ATOM     15  O   UNL     1       2.010   7.665  18.471  0.00  0.00    +0.000 OA
ATOM     16  N   UNL     1       1.961   6.522  20.477  0.00  0.00    +0.000 N 
ATOM     17  C   UNL     1       1.054   9.972  19.551  0.00  0.00    +0.000 C 
ATOM     18  H   UNL     1       1.531   6.548  21.389  0.00  0.00    +0.000 HD
BRANCH  16  19
ATOM     19  C   UNL     1       2.430   5.254  20.055  0.00  0.00    +0.000 A 
ATOM     20  C   UNL     1       1.617   4.117  20.034  0.00  0.00    +0.000 A 
ATOM     21  C   UNL     1       2.124   2.874  19.642  0.00  0.00    +0.000 A 
ATOM     22  C   UNL     1       3.456   2.747  19.250  0.00  0.00    +0.000 A 
ATOM     23  C   UNL     1       4.007   1.417  18.837  0.00  0.00    +0.000 C 
ATOM     24  C   UNL     1       4.257   3.890  19.254  0.00  0.00    +0.000 A 
ATOM     25  F   UNL     1       5.545   3.797  18.882  0.00  0.00    +0.000 F 
ATOM     26  C   UNL     1       3.757   5.131  19.644  0.00  0.00    +0.000 A 
ENDBRANCH  16  19
ENDBRANCH   9  10
BRANCH   1  30
ATOM     27  C   UNL     1      -0.908  14.864  23.942  0.00  0.00    +0.000 A 
ATOM     28  C   UNL     1      -1.893  13.888  24.026  0.00  0.00    +0.000 A 
ATOM     29  C   UNL     1      -2.217  13.108  22.911  0.00  0.00    +0.000 A 
ATOM     30  C   UNL     1      -1.550  13.263  21.692  0.00  0.00    +0.000 A 
ATOM     31  C   UNL     1      -0.604  14.299  21.609  0.00  0.00    +0.000 A 
ATOM     32  C   UNL     1      -0.284  15.094  22.720  0.00  0.00    +0.000 A 
BRANCH  27  34
ATOM     33  C   UNL     1      -1.845  15.891  25.843  0.00  0.00    +0.000 C 
ATOM     34  O   UNL     1      -0.680  15.556  25.097  0.00  0.00    +0.000 OA
ENDBRANCH  27  34
ENDBRANCH   1  30
TORSDOF 4
ENDMDL
MODEL 8
REMARK VINA RESULT:      -8.3      1.702      1.978
REMARK  Name = 
REMARK  6 active torsions:
REMARK  status: ('A' for Active; 'I' for Inactive)
REMARK    1  A    between atoms: C_1  and  O_2
REMARK    2  A    between atoms: O_2  and  C_3
REMARK    3  A    between atoms: C_6  and  C_7
REMARK    4  A    between atoms: N_15  and  C_16
REMARK    5  A    between atoms: N_22  and  C_23
REMARK    6  A    between atoms: C_26  and  C_27
REMARK                            x       y       z     vdW  Elec       q    Type
REMARK                         _______ _______ _______ _____ _____    ______ ____
ROOT
ATOM      1  C   UNL     1      -1.767  12.359  20.336  0.00  0.00    +0.000 A 
ATOM      2  N   UNL     1      -2.841  12.608  19.593  0.00  0.00    +0.000 NA
ATOM      3  C   UNL     1      -2.815  11.724  18.553  0.00  0.00    +0.000 A 
ATOM      4  C   UNL     1      -3.683  11.547  17.469  0.00  0.00    +0.000 A 
ATOM      5  C   UNL     1      -3.346  10.565  16.533  0.00  0.00    +0.000 A 
ATOM      6  C   UNL     1      -2.203   9.802  16.739  0.00  0.00    +0.000 A 
ATOM      7  N   UNL     1      -1.367   9.909  17.797  0.00  0.00    +0.000 NA
ATOM      8  C   UNL     1      -1.709  10.898  18.645  0.00  0.00    +0.000 A 
ATOM      9  N   UNL     1      -1.030  11.316  19.768  0.00  0.00    +0.000 N 
ENDROOT
BRANCH   9  10
ATOM     10  C   UNL     1       0.213  10.732  20.245  0.00  0.00    +0.000 C 
ATOM     11  C   UNL     1      -0.030   9.739  21.399  0.00  0.00    +0.000 C 
ATOM     12  C   UNL     1       1.152   8.798  21.336  0.00  0.00    +0.000 C 
ATOM     13  N   UNL     1       1.376   8.664  19.914  0.00  0.00    +0.000 N 
ATOM     14  C   UNL     1       1.825   7.589  19.179  0.00  0.00    +0.000 C 
ATOM     15  O   UNL     1       2.034   7.721  17.976  0.00  0.00    +0.000 OA
ATOM     16  N   UNL     1       1.991   6.416  19.880  0.00  0.00    +0.000 N 
ATOM     17  C   UNL     1       1.067   9.926  19.243  0.00  0.00    +0.000 C 
ATOM     18  H   UNL     1       1.560   6.364  20.791  0.00  0.00    +0.000 HD
BRANCH  16  19
ATOM     19  C   UNL     1       2.466   5.189  19.355  0.00  0.00    +0.000 A 
ATOM     20  C   UNL     1       2.038   4.676  18.128  0.00  0.00    +0.000 A 
ATOM     21  C   UNL     1       2.505   3.445  17.658  0.00  0.00    +0.000 A 
ATOM     22  C   UNL     1       3.424   2.707  18.403  0.00  0.00    +0.000 A 
ATOM     23  C   UNL     1       3.922   1.385  17.908  0.00  0.00    +0.000 C 
ATOM     24  C   UNL     1       3.864   3.235  19.618  0.00  0.00    +0.000 A 
ATOM     25  F   UNL     1       4.748   2.546  20.358  0.00  0.00    +0.000 F 
ATOM     26  C   UNL     1       3.401   4.461  20.092  0.00  0.00    +0.000 A 
ENDBRANCH  16  19
ENDBRANCH   9  10
BRANCH   1  30
ATOM     27  C   UNL     1      -0.957  14.664  23.889  0.00  0.00    +0.000 A 
ATOM     28  C   UNL     1      -0.258  14.934  22.719  0.00  0.00    +0.000 A 
ATOM     29  C   UNL     1      -0.491  14.181  21.563  0.00  0.00    +0.000 A 
ATOM     30  C   UNL     1      -1.444  13.159  21.536  0.00  0.00    +0.000 A 
ATOM     31  C   UNL     1      -2.093  12.859  22.745  0.00  0.00    +0.000 A 
ATOM     32  C   UNL     1      -1.855  13.601  23.913  0.00  0.00    +0.000 A 
BRANCH  27  34
ATOM     33  C   UNL     1      -1.673  15.622  25.918  0.00  0.00    +0.000 C 
ATOM     34  O   UNL     1      -0.644  15.469  24.947  0.00  0.00    +0.000 OA
ENDBRANCH  27  34
ENDBRANCH   1  30
TORSDOF 4
ENDMDL
MODEL 9
REMARK VINA RESULT:      -8.2      1.089      1.563
REMARK  Name = 
REMARK  6 active torsions:
REMARK  status: ('A' for Active; 'I' for Inactive)
REMARK    1  A    between atoms: C_1  and  O_2
REMARK    2  A    between atoms: O_2  and  C_3
REMARK    3  A    between atoms: C_6  and  C_7
REMARK    4  A    between atoms: N_15  and  C_16
REMARK    5  A    between atoms: N_22  and  C_23
REMARK    6  A    between atoms: C_26  and  C_27
REMARK                            x       y       z     vdW  Elec       q    Type
REMARK                         _______ _______ _______ _____ _____    ______ ____
ROOT
ATOM      1  C   UNL     1      -3.018  12.456  19.962  0.00  0.00    +0.000 A 
ATOM      2  N   UNL     1      -4.092  12.469  19.179  0.00  0.00    +0.000 NA
ATOM      3  C   UNL     1      -3.822  11.645  18.125  0.00  0.00    +0.000 A 
ATOM      4  C   UNL     1      -4.583  11.299  17.002  0.00  0.00    +0.000 A 
ATOM      5  C   UNL     1      -3.990  10.451  16.063  0.00  0.00    +0.000 A 
ATOM      6  C   UNL     1      -2.709   9.971  16.303  0.00  0.00    +0.000 A 
ATOM      7  N   UNL     1      -1.961  10.241  17.397  0.00  0.00    +0.000 NA
ATOM      8  C   UNL     1      -2.557  11.099  18.248  0.00  0.00    +0.000 A 
ATOM      9  N   UNL     1      -2.036  11.632  19.406  0.00  0.00    +0.000 N 
ENDROOT
BRANCH   9  10
ATOM     10  C   UNL     1      -0.709  11.342  19.924  0.00  0.00    +0.000 C 
ATOM     11  C   UNL     1      -0.724  10.142  20.893  0.00  0.00    +0.000 C 
ATOM     12  C   UNL     1       0.681   9.587  20.822  0.00  0.00    +0.000 C 
ATOM     13  N   UNL     1       1.020   9.760  19.427  0.00  0.00    +0.000 N 
ATOM     14  C   UNL     1       1.804   8.988  18.598  0.00  0.00    +0.000 C 
ATOM     15  O   UNL     1       2.040   9.371  17.455  0.00  0.00    +0.000 OA
ATOM     16  N   UNL     1       2.259   7.806  19.139  0.00  0.00    +0.000 N 
ATOM     17  C   UNL     1       0.402  10.981  18.913  0.00  0.00    +0.000 C 
ATOM     18  H   UNL     1       1.806   7.487  19.982  0.00  0.00    +0.000 HD
BRANCH  16  19
ATOM     19  C   UNL     1       3.099   6.863  18.498  0.00  0.00    +0.000 A 
ATOM     20  C   UNL     1       3.305   5.573  18.997  0.00  0.00    +0.000 A 
ATOM     21  C   UNL     1       4.167   4.680  18.354  0.00  0.00    +0.000 A 
ATOM     22  C   UNL     1       4.833   5.057  17.188  0.00  0.00    +0.000 A 
ATOM     23  C   UNL     1       5.764   4.107  16.499  0.00  0.00    +0.000 C 
ATOM     24  C   UNL     1       4.607   6.339  16.684  0.00  0.00    +0.000 A 
ATOM     25  F   UNL     1       5.236   6.730  15.563  0.00  0.00    +0.000 F 
ATOM     26  C   UNL     1       3.749   7.233  17.321  0.00  0.00    +0.000 A 
ENDBRANCH  16  19
ENDBRANCH   9  10
BRANCH   1  30
ATOM     27  C   UNL     1      -2.872  14.756  23.607  0.00  0.00    +0.000 A 
ATOM     28  C   UNL     1      -2.566  15.365  22.396  0.00  0.00    +0.000 A 
ATOM     29  C   UNL     1      -2.586  14.629  21.206  0.00  0.00    +0.000 A 
ATOM     30  C   UNL     1      -2.936  13.276  21.190  0.00  0.00    +0.000 A 
ATOM     31  C   UNL     1      -3.177  12.663  22.431  0.00  0.00    +0.000 A 
ATOM     32  C   UNL     1      -3.146  13.392  23.630  0.00  0.00    +0.000 A 
BRANCH  27  34
ATOM     33  C   UNL     1      -1.906  15.185  25.711  0.00  0.00    +0.000 C 
ATOM     34  O   UNL     1      -2.822  15.579  24.696  0.00  0.00    +0.000 OA
ENDBRANCH  27  34
ENDBRANCH   1  30
TORSDOF 4
ENDMDL
