MODEL 1
REMARK VINA RESULT:      -7.4      0.000      0.000
REMARK  Name = 
REMARK  6 active torsions:
REMARK  status: ('A' for Active; 'I' for Inactive)
REMARK    1  A    between atoms: C_1  and  C_2
REMARK    2  A    between atoms: C_4  and  C_5
REMARK    3  A    between atoms: N_6  and  C_7
REMARK    4  A    between atoms: C_7  and  C_8
REMARK    5  A    between atoms: C_13  and  C_15
REMARK    6  A    between atoms: C_15  and  C_16
REMARK                            x       y       z     vdW  Elec       q    Type
REMARK                         _______ _______ _______ _____ _____    ______ ____
ROOT
ATOM      1  C   UNL     1       3.697   3.754  18.866  0.00  0.00    +0.000 C 
ATOM      2  C   UNL     1       3.062   2.584  18.100  0.00  0.00    +0.000 C 
ATOM      3  C   UNL     1       1.586   2.952  18.053  0.00  0.00    +0.000 C 
ATOM      4  C   UNL     1       1.579   4.470  17.979  0.00  0.00    +0.000 C 
ATOM      5  N   UNL     1       2.880   4.902  18.460  0.00  0.00    +0.000 N 
ATOM      6  C   UNL     1       3.242   6.224  18.657  0.00  0.00    +0.000 C 
ATOM      7  O   UNL     1       4.315   6.524  19.185  0.00  0.00    +0.000 OA
ENDROOT
BRANCH   1   8
ATOM      8  C   UNL     1       5.236   3.807  18.743  0.00  0.00    +0.000 C 
BRANCH   8  14
ATOM      9  C   UNL     1       5.928   3.996  13.963  0.00  0.00    +0.000 C 
ATOM     10  C   UNL     1       6.160   4.293  15.394  0.00  0.00    +0.000 A 
ATOM     11  C   UNL     1       7.141   5.120  15.971  0.00  0.00    +0.000 A 
ATOM     12  C   UNL     1       6.915   5.055  17.331  0.00  0.00    +0.000 A 
ATOM     13  C   UNL     1       7.618   5.719  18.453  0.00  0.00    +0.000 C 
ATOM     14  N   UNL     1       5.833   4.213  17.488  0.00  0.00    +0.000 N 
ATOM     15  N   UNL     1       5.372   3.740  16.317  0.00  0.00    +0.000 NA
ENDBRANCH   8  14
ENDBRANCH   1   8
BRANCH   6  16
ATOM     16  C   UNL     1       2.263   7.287  18.139  0.00  0.00    +0.000 C 
BRANCH  16  17
ATOM     17  C   UNL     1       1.800   8.163  19.248  0.00  0.00    +0.000 A 
ATOM     18  C   UNL     1       1.631   7.846  20.593  0.00  0.00    +0.000 A 
ATOM     19  N   UNL     1       0.924   8.896  21.089  0.00  0.00    +0.000 N 
ATOM     20  C   UNL     1       0.237   9.180  22.245  0.00  0.00    +0.000 A 
ATOM     21  C   UNL     1      -0.437  10.339  22.142  0.00  0.00    +0.000 A 
ATOM     22  S   UNL     1      -0.177  11.158  20.591  0.00  0.00    +0.000 S 
ATOM     23  C   UNL     1       0.823   9.826  20.100  0.00  0.00    +0.000 A 
ATOM     24  N   UNL     1       1.359   9.452  18.971  0.00  0.00    +0.000 NA
ENDBRANCH  16  17
ENDBRANCH   6  16
TORSDOF 4
ENDMDL
MODEL 2
REMARK VINA RESULT:      -7.2      1.534      1.827
REMARK  Name = 
REMARK  6 active torsions:
REMARK  status: ('A' for Active; 'I' for Inactive)
REMARK    1  A    between atoms: C_1  and  C_2
REMARK    2  A    between atoms: C_4  and  C_5
REMARK    3  A    between atoms: N_6  and  C_7
REMARK    4  A    between atoms: C_7  and  C_8
REMARK    5  A    between atoms: C_13  and  C_15
REMARK    6  A    between atoms: C_15  and  C_16
REMARK                            x       y       z     vdW  Elec       q    Type
REMARK                         _______ _______ _______ _____ _____    ______ ____
ROOT
ATOM      1  C   UNL     1       4.176   3.230  18.569  0.00  0.00    +0.000 C 
ATOM      2  C   UNL     1       3.552   2.354  17.474  0.00  0.00    +0.000 C 
ATOM      3  C   UNL     1       2.202   1.966  18.059  0.00  0.00    +0.000 C 
ATOM      4  C   UNL     1       1.795   3.168  18.895  0.00  0.00    +0.000 C 
ATOM      5  N   UNL     1       3.017   3.907  19.158  0.00  0.00    +0.000 N 
ATOM      6  C   UNL     1       3.098   5.016  19.983  0.00  0.00    +0.000 C 
ATOM      7  O   UNL     1       4.185   5.527  20.267  0.00  0.00    +0.000 OA
ENDROOT
BRANCH   1   8
ATOM      8  C   UNL     1       5.395   4.046  18.084  0.00  0.00    +0.000 C 
BRANCH   8  14
ATOM      9  C   UNL     1       6.251   3.733  13.336  0.00  0.00    +0.000 C 
ATOM     10  C   UNL     1       5.846   4.353  14.618  0.00  0.00    +0.000 A 
ATOM     11  C   UNL     1       5.388   5.661  14.854  0.00  0.00    +0.000 A 
ATOM     12  C   UNL     1       5.143   5.720  16.211  0.00  0.00    +0.000 A 
ATOM     13  C   UNL     1       4.638   6.833  17.047  0.00  0.00    +0.000 C 
ATOM     14  N   UNL     1       5.459   4.468  16.700  0.00  0.00    +0.000 N 
ATOM     15  N   UNL     1       5.893   3.633  15.740  0.00  0.00    +0.000 NA
ENDBRANCH   8  14
ENDBRANCH   1   8
BRANCH   6  16
ATOM     16  C   UNL     1       1.769   5.600  20.482  0.00  0.00    +0.000 C 
BRANCH  16  17
ATOM     17  C   UNL     1       1.734   7.073  20.290  0.00  0.00    +0.000 A 
ATOM     18  C   UNL     1       1.276   8.052  21.167  0.00  0.00    +0.000 A 
ATOM     19  N   UNL     1       1.198   9.171  20.397  0.00  0.00    +0.000 N 
ATOM     20  C   UNL     1       0.652  10.426  20.512  0.00  0.00    +0.000 A 
ATOM     21  C   UNL     1       0.725  11.100  19.351  0.00  0.00    +0.000 A 
ATOM     22  S   UNL     1       1.552  10.192  18.071  0.00  0.00    +0.000 S 
ATOM     23  C   UNL     1       1.722   8.864  19.178  0.00  0.00    +0.000 A 
ATOM     24  N   UNL     1       2.090   7.619  19.063  0.00  0.00    +0.000 NA
ENDBRANCH  16  17
ENDBRANCH   6  16
TORSDOF 4
ENDMDL
MODEL 3
REMARK VINA RESULT:      -7.2      1.263      2.255
REMARK  Name = 
REMARK  6 active torsions:
REMARK  status: ('A' for Active; 'I' for Inactive)
REMARK    1  A    between atoms: C_1  and  C_2
REMARK    2  A    between atoms: C_4  and  C_5
REMARK    3  A    between atoms: N_6  and  C_7
REMARK    4  A    between atoms: C_7  and  C_8
REMARK    5  A    between atoms: C_13  and  C_15
REMARK    6  A    between atoms: C_15  and  C_16
REMARK                            x       y       z     vdW  Elec       q    Type
REMARK                         _______ _______ _______ _____ _____    ______ ____
ROOT
ATOM      1  C   UNL     1       3.091   3.825  18.422  0.00  0.00    +0.000 C 
ATOM      2  C   UNL     1       2.218   2.701  17.847  0.00  0.00    +0.000 C 
ATOM      3  C   UNL     1       1.290   2.349  19.001  0.00  0.00    +0.000 C 
ATOM      4  C   UNL     1       1.079   3.666  19.729  0.00  0.00    +0.000 C 
ATOM      5  N   UNL     1       2.179   4.527  19.330  0.00  0.00    +0.000 N 
ATOM      6  C   UNL     1       2.419   5.785  19.858  0.00  0.00    +0.000 C 
ATOM      7  O   UNL     1       3.439   6.417  19.571  0.00  0.00    +0.000 OA
ENDROOT
BRANCH   1   8
ATOM      8  C   UNL     1       3.877   4.606  17.345  0.00  0.00    +0.000 C 
BRANCH   8  14
ATOM      9  C   UNL     1       8.146   5.665  19.350  0.00  0.00    +0.000 C 
ATOM     10  C   UNL     1       7.196   5.191  18.318  0.00  0.00    +0.000 A 
ATOM     11  C   UNL     1       7.474   4.691  17.033  0.00  0.00    +0.000 A 
ATOM     12  C   UNL     1       6.241   4.389  16.489  0.00  0.00    +0.000 A 
ATOM     13  C   UNL     1       5.891   3.821  15.167  0.00  0.00    +0.000 C 
ATOM     14  N   UNL     1       5.316   4.717  17.459  0.00  0.00    +0.000 N 
ATOM     15  N   UNL     1       5.887   5.211  18.571  0.00  0.00    +0.000 NA
ENDBRANCH   8  14
ENDBRANCH   1   8
BRANCH   6  16
ATOM     16  C   UNL     1       1.331   6.364  20.772  0.00  0.00    +0.000 C 
BRANCH  16  17
ATOM     17  C   UNL     1       1.319   7.849  20.703  0.00  0.00    +0.000 A 
ATOM     18  C   UNL     1       1.179   8.766  21.741  0.00  0.00    +0.000 A 
ATOM     19  N   UNL     1       0.944   9.945  21.106  0.00  0.00    +0.000 N 
ATOM     20  C   UNL     1       0.518  11.202  21.461  0.00  0.00    +0.000 A 
ATOM     21  C   UNL     1       0.293  11.967  20.378  0.00  0.00    +0.000 A 
ATOM     22  S   UNL     1       0.676  11.143  18.854  0.00  0.00    +0.000 S 
ATOM     23  C   UNL     1       1.084   9.725  19.770  0.00  0.00    +0.000 A 
ATOM     24  N   UNL     1       1.340   8.483  19.466  0.00  0.00    +0.000 NA
ENDBRANCH  16  17
ENDBRANCH   6  16
TORSDOF 4
ENDMDL
MODEL 4
REMARK VINA RESULT:      -7.1      1.027      1.173
REMARK  Name = 
REMARK  6 active torsions:
REMARK  status: ('A' for Active; 'I' for Inactive)
REMARK    1  A    between atoms: C_1  and  C_2
REMARK    2  A    between atoms: C_4  and  C_5
REMARK    3  A    between atoms: N_6  and  C_7
REMARK    4  A    between atoms: C_7  and  C_8
REMARK    5  A    between atoms: C_13  and  C_15
REMARK    6  A    between atoms: C_15  and  C_16
REMARK                            x       y       z     vdW  Elec       q    Type
REMARK                         _______ _______ _______ _____ _____    ______ ____
ROOT
ATOM      1  C   UNL     1       3.636   3.859  19.045  0.00  0.00    +0.000 C 
ATOM      2  C   UNL     1       3.124   2.555  18.417  0.00  0.00    +0.000 C 
ATOM      3  C   UNL     1       1.640   2.821  18.210  0.00  0.00    +0.000 C 
ATOM      4  C   UNL     1       1.562   4.309  17.913  0.00  0.00    +0.000 C 
ATOM      5  N   UNL     1       2.797   4.885  18.417  0.00  0.00    +0.000 N 
ATOM      6  C   UNL     1       3.075   6.241  18.442  0.00  0.00    +0.000 C 
ATOM      7  O   UNL     1       4.086   6.679  18.995  0.00  0.00    +0.000 OA
ENDROOT
BRANCH   1   8
ATOM      8  C   UNL     1       5.175   3.989  19.026  0.00  0.00    +0.000 C 
BRANCH   8  14
ATOM      9  C   UNL     1       6.049   3.947  14.272  0.00  0.00    +0.000 C 
ATOM     10  C   UNL     1       6.251   4.281  15.700  0.00  0.00    +0.000 A 
ATOM     11  C   UNL     1       7.268   5.057  16.284  0.00  0.00    +0.000 A 
ATOM     12  C   UNL     1       6.990   5.059  17.636  0.00  0.00    +0.000 A 
ATOM     13  C   UNL     1       7.699   5.714  18.760  0.00  0.00    +0.000 C 
ATOM     14  N   UNL     1       5.845   4.303  17.781  0.00  0.00    +0.000 N 
ATOM     15  N   UNL     1       5.393   3.820  16.611  0.00  0.00    +0.000 NA
ENDBRANCH   8  14
ENDBRANCH   1   8
BRANCH   6  16
ATOM     16  C   UNL     1       2.088   7.157  17.705  0.00  0.00    +0.000 C 
BRANCH  16  17
ATOM     17  C   UNL     1       1.904   8.436  18.440  0.00  0.00    +0.000 A 
ATOM     18  C   UNL     1       1.402   8.635  19.723  0.00  0.00    +0.000 A 
ATOM     19  N   UNL     1       1.178   9.976  19.781  0.00  0.00    +0.000 N 
ATOM     20  C   UNL     1       0.522  10.842  20.622  0.00  0.00    +0.000 A 
ATOM     21  C   UNL     1       0.470  12.082  20.103  0.00  0.00    +0.000 A 
ATOM     22  S   UNL     1       1.312  12.220  18.547  0.00  0.00    +0.000 S 
ATOM     23  C   UNL     1       1.664  10.521  18.632  0.00  0.00    +0.000 A 
ATOM     24  N   UNL     1       2.142   9.644  17.795  0.00  0.00    +0.000 NA
ENDBRANCH  16  17
ENDBRANCH   6  16
TORSDOF 4
ENDMDL
MODEL 5
REMARK VINA RESULT:      -7.0      3.505      8.095
REMARK  Name = 
REMARK  6 active torsions:
REMARK  status: ('A' for Active; 'I' for Inactive)
REMARK    1  A    between atoms: C_1  and  C_2
REMARK    2  A    between atoms: C_4  and  C_5
REMARK    3  A    between atoms: N_6  and  C_7
REMARK    4  A    between atoms: C_7  and  C_8
REMARK    5  A    between atoms: C_13  and  C_15
REMARK    6  A    between atoms: C_15  and  C_16
REMARK                            x       y       z     vdW  Elec       q    Type
REMARK                         _______ _______ _______ _____ _____    ______ ____
ROOT
ATOM      1  C   UNL     1      -0.203   9.959  20.196  0.00  0.00    +0.000 C 
ATOM      2  C   UNL     1      -0.216  10.571  21.604  0.00  0.00    +0.000 C 
ATOM      3  C   UNL     1       0.287   9.438  22.486  0.00  0.00    +0.000 C 
ATOM      4  C   UNL     1       1.269   8.683  21.605  0.00  0.00    +0.000 C 
ATOM      5  N   UNL     1       0.944   9.048  20.237  0.00  0.00    +0.000 N 
ATOM      6  C   UNL     1       1.536   8.489  19.117  0.00  0.00    +0.000 C 
ATOM      7  O   UNL     1       1.132   8.748  17.981  0.00  0.00    +0.000 OA
ENDROOT
BRANCH   1   8
ATOM      8  C   UNL     1      -0.329  11.008  19.068  0.00  0.00    +0.000 C 
BRANCH   8  14
ATOM      9  C   UNL     1      -3.135  10.050  15.250  0.00  0.00    +0.000 C 
ATOM     10  C   UNL     1      -2.753  10.619  16.562  0.00  0.00    +0.000 A 
ATOM     11  C   UNL     1      -3.520  11.419  17.428  0.00  0.00    +0.000 A 
ATOM     12  C   UNL     1      -2.700  11.669  18.511  0.00  0.00    +0.000 A 
ATOM     13  C   UNL     1      -2.954  12.445  19.746  0.00  0.00    +0.000 C 
ATOM     14  N   UNL     1      -1.516  11.016  18.238  0.00  0.00    +0.000 N 
ATOM     15  N   UNL     1      -1.536  10.381  17.053  0.00  0.00    +0.000 NA
ENDBRANCH   8  14
ENDBRANCH   1   8
BRANCH   6  16
ATOM     16  C   UNL     1       2.745   7.576  19.363  0.00  0.00    +0.000 C 
BRANCH  16  17
ATOM     17  C   UNL     1       2.358   6.145  19.257  0.00  0.00    +0.000 A 
ATOM     18  C   UNL     1       1.911   5.290  20.261  0.00  0.00    +0.000 A 
ATOM     19  N   UNL     1       1.985   4.055  19.695  0.00  0.00    +0.000 N 
ATOM     20  C   UNL     1       1.909   2.754  20.127  0.00  0.00    +0.000 A 
ATOM     21  C   UNL     1       2.226   1.893  19.144  0.00  0.00    +0.000 A 
ATOM     22  S   UNL     1       2.573   2.696  17.601  0.00  0.00    +0.000 S 
ATOM     23  C   UNL     1       2.325   4.225  18.388  0.00  0.00    +0.000 A 
ATOM     24  N   UNL     1       2.535   5.468  18.057  0.00  0.00    +0.000 NA
ENDBRANCH  16  17
ENDBRANCH   6  16
TORSDOF 4
ENDMDL
MODEL 6
REMARK VINA RESULT:      -7.0      0.944      1.227
REMARK  Name = 
REMARK  6 active torsions:
REMARK  status: ('A' for Active; 'I' for Inactive)
REMARK    1  A    between atoms: C_1  and  C_2
REMARK    2  A    between atoms: C_4  and  C_5
REMARK    3  A    between atoms: N_6  and  C_7
REMARK    4  A    between atoms: C_7  and  C_8
REMARK    5  A    between atoms: C_13  and  C_15
REMARK    6  A    between atoms: C_15  and  C_16
REMARK                            x       y       z     vdW  Elec       q    Type
REMARK                         _______ _______ _______ _____ _____    ______ ____
ROOT
ATOM      1  C   UNL     1       3.581   4.067  18.991  0.00  0.00    +0.000 C 
ATOM      2  C   UNL     1       2.890   2.835  18.389  0.00  0.00    +0.000 C 
ATOM      3  C   UNL     1       1.458   3.302  18.174  0.00  0.00    +0.000 C 
ATOM      4  C   UNL     1       1.591   4.780  17.846  0.00  0.00    +0.000 C 
ATOM      5  N   UNL     1       2.894   5.187  18.341  0.00  0.00    +0.000 N 
ATOM      6  C   UNL     1       3.360   6.491  18.338  0.00  0.00    +0.000 C 
ATOM      7  O   UNL     1       4.423   6.794  18.885  0.00  0.00    +0.000 OA
ENDROOT
BRANCH   1   8
ATOM      8  C   UNL     1       5.123   3.978  18.974  0.00  0.00    +0.000 C 
BRANCH   8  14
ATOM      9  C   UNL     1       6.103   3.885  14.241  0.00  0.00    +0.000 C 
ATOM     10  C   UNL     1       6.288   4.212  15.673  0.00  0.00    +0.000 A 
ATOM     11  C   UNL     1       7.326   4.942  16.279  0.00  0.00    +0.000 A 
ATOM     12  C   UNL     1       7.016   4.961  17.625  0.00  0.00    +0.000 A 
ATOM     13  C   UNL     1       7.729   5.585  18.763  0.00  0.00    +0.000 C 
ATOM     14  N   UNL     1       5.835   4.258  17.744  0.00  0.00    +0.000 N 
ATOM     15  N   UNL     1       5.388   3.794  16.564  0.00  0.00    +0.000 NA
ENDBRANCH   8  14
ENDBRANCH   1   8
BRANCH   6  16
ATOM     16  C   UNL     1       2.511   7.521  17.580  0.00  0.00    +0.000 C 
BRANCH  16  17
ATOM     17  C   UNL     1       1.773   8.397  18.527  0.00  0.00    +0.000 A 
ATOM     18  C   UNL     1       1.310   9.695  18.330  0.00  0.00    +0.000 A 
ATOM     19  N   UNL     1       0.980  10.118  19.579  0.00  0.00    +0.000 N 
ATOM     20  C   UNL     1       0.664  11.314  20.177  0.00  0.00    +0.000 A 
ATOM     21  C   UNL     1       0.586  11.188  21.513  0.00  0.00    +0.000 A 
ATOM     22  S   UNL     1       0.848   9.525  22.071  0.00  0.00    +0.000 S 
ATOM     23  C   UNL     1       1.121   9.057  20.421  0.00  0.00    +0.000 A 
ATOM     24  N   UNL     1       1.569   7.981  19.838  0.00  0.00    +0.000 NA
ENDBRANCH  16  17
ENDBRANCH   6  16
TORSDOF 4
ENDMDL
MODEL 7
REMARK VINA RESULT:      -7.0      2.990      7.905
REMARK  Name = 
REMARK  6 active torsions:
REMARK  status: ('A' for Active; 'I' for Inactive)
REMARK    1  A    between atoms: C_1  and  C_2
REMARK    2  A    between atoms: C_4  and  C_5
REMARK    3  A    between atoms: N_6  and  C_7
REMARK    4  A    between atoms: C_7  and  C_8
REMARK    5  A    between atoms: C_13  and  C_15
REMARK    6  A    between atoms: C_15  and  C_16
REMARK                            x       y       z     vdW  Elec       q    Type
REMARK                         _______ _______ _______ _____ _____    ______ ____
ROOT
ATOM      1  C   UNL     1       2.367   6.119  19.344  0.00  0.00    +0.000 C 
ATOM      2  C   UNL     1       1.796   5.306  20.515  0.00  0.00    +0.000 C 
ATOM      3  C   UNL     1       1.975   3.864  20.065  0.00  0.00    +0.000 C 
ATOM      4  C   UNL     1       3.248   3.884  19.235  0.00  0.00    +0.000 C 
ATOM      5  N   UNL     1       3.450   5.268  18.843  0.00  0.00    +0.000 N 
ATOM      6  C   UNL     1       4.445   5.699  17.982  0.00  0.00    +0.000 C 
ATOM      7  O   UNL     1       4.491   6.867  17.588  0.00  0.00    +0.000 OA
ENDROOT
BRANCH   1   8
ATOM      8  C   UNL     1       2.633   7.600  19.694  0.00  0.00    +0.000 C 
BRANCH   8  14
ATOM      9  C   UNL     1      -0.535   9.395  22.874  0.00  0.00    +0.000 C 
ATOM     10  C   UNL     1       0.138   9.202  21.570  0.00  0.00    +0.000 A 
ATOM     11  C   UNL     1      -0.148   9.812  20.335  0.00  0.00    +0.000 A 
ATOM     12  C   UNL     1       0.775   9.290  19.451  0.00  0.00    +0.000 A 
ATOM     13  C   UNL     1       0.978   9.558  18.009  0.00  0.00    +0.000 C 
ATOM     14  N   UNL     1       1.546   8.417  20.191  0.00  0.00    +0.000 N 
ATOM     15  N   UNL     1       1.162   8.352  21.478  0.00  0.00    +0.000 NA
ENDBRANCH   8  14
ENDBRANCH   1   8
BRANCH   6  16
ATOM     16  C   UNL     1       5.508   4.665  17.588  0.00  0.00    +0.000 C 
BRANCH  16  17
ATOM     17  C   UNL     1       5.734   4.671  16.119  0.00  0.00    +0.000 A 
ATOM     18  C   UNL     1       5.079   3.933  15.137  0.00  0.00    +0.000 A 
ATOM     19  N   UNL     1       5.856   4.096  14.033  0.00  0.00    +0.000 N 
ATOM     20  C   UNL     1       5.955   3.522  12.789  0.00  0.00    +0.000 A 
ATOM     21  C   UNL     1       7.043   3.962  12.132  0.00  0.00    +0.000 A 
ATOM     22  S   UNL     1       7.958   5.179  13.041  0.00  0.00    +0.000 S 
ATOM     23  C   UNL     1       6.828   4.997  14.347  0.00  0.00    +0.000 A 
ATOM     24  N   UNL     1       6.788   5.403  15.585  0.00  0.00    +0.000 NA
ENDBRANCH  16  17
ENDBRANCH   6  16
TORSDOF 4
ENDMDL
MODEL 8
REMARK VINA RESULT:      -6.9      3.007      4.734
REMARK  Name = 
REMARK  6 active torsions:
REMARK  status: ('A' for Active; 'I' for Inactive)
REMARK    1  A    between atoms: C_1  and  C_2
REMARK    2  A    between atoms: C_4  and  C_5
REMARK    3  A    between atoms: N_6  and  C_7
REMARK    4  A    between atoms: C_7  and  C_8
REMARK    5  A    between atoms: C_13  and  C_15
REMARK    6  A    between atoms: C_15  and  C_16
REMARK                            x       y       z     vdW  Elec       q    Type
REMARK                         _______ _______ _______ _____ _____    ______ ____
ROOT
ATOM      1  C   UNL     1       2.215   7.734  19.333  0.00  0.00    +0.000 C 
ATOM      2  C   UNL     1       1.610   6.855  20.438  0.00  0.00    +0.000 C 
ATOM      3  C   UNL     1       1.273   7.851  21.537  0.00  0.00    +0.000 C 
ATOM      4  C   UNL     1       0.901   9.122  20.792  0.00  0.00    +0.000 C 
ATOM      5  N   UNL     1       1.474   8.992  19.464  0.00  0.00    +0.000 N 
ATOM      6  C   UNL     1       1.457   9.989  18.503  0.00  0.00    +0.000 C 
ATOM      7  O   UNL     1       2.068   9.866  17.439  0.00  0.00    +0.000 OA
ENDROOT
BRANCH   1   8
ATOM      8  C   UNL     1       2.313   7.022  17.966  0.00  0.00    +0.000 C 
BRANCH   8  14
ATOM      9  C   UNL     1       6.522   4.711  17.400  0.00  0.00    +0.000 C 
ATOM     10  C   UNL     1       5.058   4.877  17.547  0.00  0.00    +0.000 A 
ATOM     11  C   UNL     1       4.059   3.887  17.556  0.00  0.00    +0.000 A 
ATOM     12  C   UNL     1       2.873   4.572  17.728  0.00  0.00    +0.000 A 
ATOM     13  C   UNL     1       1.483   4.071  17.826  0.00  0.00    +0.000 C 
ATOM     14  N   UNL     1       3.222   5.904  17.812  0.00  0.00    +0.000 N 
ATOM     15  N   UNL     1       4.547   6.100  17.697  0.00  0.00    +0.000 NA
ENDBRANCH   8  14
ENDBRANCH   1   8
BRANCH   6  16
ATOM     16  C   UNL     1       0.601  11.225  18.812  0.00  0.00    +0.000 C 
BRANCH  16  17
ATOM     17  C   UNL     1      -0.821  10.986  18.452  0.00  0.00    +0.000 A 
ATOM     18  C   UNL     1      -1.337  10.344  17.330  0.00  0.00    +0.000 A 
ATOM     19  N   UNL     1      -2.660  10.659  17.353  0.00  0.00    +0.000 N 
ATOM     20  C   UNL     1      -3.724  10.563  16.489  0.00  0.00    +0.000 A 
ATOM     21  C   UNL     1      -4.806  11.199  16.972  0.00  0.00    +0.000 A 
ATOM     22  S   UNL     1      -4.541  11.897  18.581  0.00  0.00    +0.000 S 
ATOM     23  C   UNL     1      -2.900  11.332  18.512  0.00  0.00    +0.000 A 
ATOM     24  N   UNL     1      -1.832  11.535  19.232  0.00  0.00    +0.000 NA
ENDBRANCH  16  17
ENDBRANCH   6  16
TORSDOF 4
ENDMDL
MODEL 9
REMARK VINA RESULT:      -6.8      3.344      7.872
REMARK  Name = 
REMARK  6 active torsions:
REMARK  status: ('A' for Active; 'I' for Inactive)
REMARK    1  A    between atoms: C_1  and  C_2
REMARK    2  A    between atoms: C_4  and  C_5
REMARK    3  A    between atoms: N_6  and  C_7
REMARK    4  A    between atoms: C_7  and  C_8
REMARK    5  A    between atoms: C_13  and  C_15
REMARK    6  A    between atoms: C_15  and  C_16
REMARK                            x       y       z     vdW  Elec       q    Type
REMARK                         _______ _______ _______ _____ _____    ______ ____
ROOT
ATOM      1  C   UNL     1       0.105   9.543  19.703  0.00  0.00    +0.000 C 
ATOM      2  C   UNL     1       0.070   9.903  21.195  0.00  0.00    +0.000 C 
ATOM      3  C   UNL     1       0.702   8.692  21.866  0.00  0.00    +0.000 C 
ATOM      4  C   UNL     1       1.729   8.199  20.860  0.00  0.00    +0.000 C 
ATOM      5  N   UNL     1       1.336   8.756  19.577  0.00  0.00    +0.000 N 
ATOM      6  C   UNL     1       1.949   8.456  18.373  0.00  0.00    +0.000 C 
ATOM      7  O   UNL     1       1.493   8.862  17.301  0.00  0.00    +0.000 OA
ENDROOT
BRANCH   1   8
ATOM      8  C   UNL     1      -0.150  10.749  18.772  0.00  0.00    +0.000 C 
BRANCH   8  14
ATOM      9  C   UNL     1      -3.401  10.047  15.265  0.00  0.00    +0.000 C 
ATOM     10  C   UNL     1      -2.846  10.565  16.535  0.00  0.00    +0.000 A 
ATOM     11  C   UNL     1      -3.462  11.398  17.487  0.00  0.00    +0.000 A 
ATOM     12  C   UNL     1      -2.517  11.574  18.478  0.00  0.00    +0.000 A 
ATOM     13  C   UNL     1      -2.587  12.342  19.743  0.00  0.00    +0.000 C 
ATOM     14  N   UNL     1      -1.414  10.850  18.074  0.00  0.00    +0.000 N 
ATOM     15  N   UNL     1      -1.602  10.240  16.891  0.00  0.00    +0.000 NA
ENDBRANCH   8  14
ENDBRANCH   1   8
BRANCH   6  16
ATOM     16  C   UNL     1       3.247   7.639  18.448  0.00  0.00    +0.000 C 
BRANCH  16  17
ATOM     17  C   UNL     1       2.951   6.188  18.580  0.00  0.00    +0.000 A 
ATOM     18  C   UNL     1       1.973   5.439  17.932  0.00  0.00    +0.000 A 
ATOM     19  N   UNL     1       1.948   4.267  18.623  0.00  0.00    +0.000 N 
ATOM     20  C   UNL     1       1.127   3.168  18.694  0.00  0.00    +0.000 A 
ATOM     21  C   UNL     1       1.492   2.349  19.696  0.00  0.00    +0.000 A 
ATOM     22  S   UNL     1       2.939   2.906  20.557  0.00  0.00    +0.000 S 
ATOM     23  C   UNL     1       2.963   4.306  19.530  0.00  0.00    +0.000 A 
ATOM     24  N   UNL     1       3.623   5.430  19.531  0.00  0.00    +0.000 NA
ENDBRANCH  16  17
ENDBRANCH   6  16
TORSDOF 4
ENDMDL
