MODEL 1
REMARK VINA RESULT:      -7.1      0.000      0.000
REMARK  Name = 
REMARK  6 active torsions:
REMARK  status: ('A' for Active; 'I' for Inactive)
REMARK    1  A    between atoms: C_1  and  C_2
REMARK    2  A    between atoms: C_2  and  C_3
REMARK    3  A    between atoms: C_2  and  C_4
REMARK    4  A    between atoms: C_2  and  O_5
REMARK    5  A    between atoms: O_5  and  C_6
REMARK    6  A    between atoms: N_14  and  C_15
REMARK                            x       y       z     vdW  Elec       q    Type
REMARK                         _______ _______ _______ _____ _____    ______ ____
ROOT
ATOM      1  C   UNL     1       4.934   4.299  18.477  0.00  0.00    +0.000 C 
ATOM      2  O   UNL     1       5.866   4.248  17.676  0.00  0.00    +0.000 OA
ATOM      3  N   UNL     1       4.228   5.462  18.690  0.00  0.00    +0.000 N 
ATOM      4  C   UNL     1       4.598   6.642  17.909  0.00  0.00    +0.000 C 
ATOM      5  C   UNL     1       3.353   7.378  17.424  0.00  0.00    +0.000 C 
ATOM      6  N   UNL     1       2.493   7.720  18.558  0.00  0.00    +0.000 N 
ATOM      7  C   UNL     1       1.855   8.950  18.514  0.00  0.00    +0.000 C 
ATOM      8  O   UNL     1       1.949   9.691  17.537  0.00  0.00    +0.000 OA
ATOM      9  N   UNL     1       1.207   9.308  19.677  0.00  0.00    +0.000 N 
ATOM     10  C   UNL     1       2.101   6.567  19.392  0.00  0.00    +0.000 C 
ATOM     11  C   UNL     1       3.315   5.709  19.810  0.00  0.00    +0.000 C 
ATOM     12  H   UNL     1       1.674   8.977  20.508  0.00  0.00    +0.000 HD
ENDROOT
BRANCH   9  13
ATOM     13  C   UNL     1       0.540  10.549  19.801  0.00  0.00    +0.000 A 
ATOM     14  C   UNL     1      -0.604  10.844  19.050  0.00  0.00    +0.000 A 
ATOM     15  C   UNL     1      -1.259  12.068  19.216  0.00  0.00    +0.000 A 
ATOM     16  C   UNL     1      -0.755  13.012  20.113  0.00  0.00    +0.000 A 
ATOM     17  C   UNL     1       0.395  12.722  20.851  0.00  0.00    +0.000 A 
ATOM     18  C   UNL     1       1.034  11.488  20.707  0.00  0.00    +0.000 A 
ATOM     19  O   UNL     1       0.962  13.605  21.733  0.00  0.00    +0.000 OA
ATOM     20  C   UNL     1       0.033  14.626  22.112  0.00  0.00    +0.000 C 
ATOM     21  C   UNL     1      -0.692  15.193  20.901  0.00  0.00    +0.000 C 
ATOM     22  O   UNL     1      -1.451  14.185  20.224  0.00  0.00    +0.000 OA
ENDBRANCH   9  13
BRANCH   1  23
ATOM     23  O   UNL     1       4.487   3.232  19.193  0.00  0.00    +0.000 OA
BRANCH  23  25
ATOM     24  C   UNL     1       2.914   3.051  17.308  0.00  0.00    +0.000 C 
ATOM     25  C   UNL     1       3.366   2.469  18.655  0.00  0.00    +0.000 C 
ATOM     26  C   UNL     1       2.213   2.359  19.666  0.00  0.00    +0.000 C 
ATOM     27  C   UNL     1       3.886   1.043  18.395  0.00  0.00    +0.000 C 
ENDBRANCH  23  25
ENDBRANCH   1  23
TORSDOF 3
ENDMDL
MODEL 2
REMARK VINA RESULT:      -7.0      2.599      4.022
REMARK  Name = 
REMARK  6 active torsions:
REMARK  status: ('A' for Active; 'I' for Inactive)
REMARK    1  A    between atoms: C_1  and  C_2
REMARK    2  A    between atoms: C_2  and  C_3
REMARK    3  A    between atoms: C_2  and  C_4
REMARK    4  A    between atoms: C_2  and  O_5
REMARK    5  A    between atoms: O_5  and  C_6
REMARK    6  A    between atoms: N_14  and  C_15
REMARK                            x       y       z     vdW  Elec       q    Type
REMARK                         _______ _______ _______ _____ _____    ______ ____
ROOT
ATOM      1  C   UNL     1       4.351   5.845  18.691  0.00  0.00    +0.000 C 
ATOM      2  O   UNL     1       4.537   4.931  19.493  0.00  0.00    +0.000 OA
ATOM      3  N   UNL     1       3.246   6.665  18.775  0.00  0.00    +0.000 N 
ATOM      4  C   UNL     1       2.306   6.437  19.872  0.00  0.00    +0.000 C 
ATOM      5  C   UNL     1       1.856   7.763  20.478  0.00  0.00    +0.000 C 
ATOM      6  N   UNL     1       1.291   8.629  19.442  0.00  0.00    +0.000 N 
ATOM      7  C   UNL     1       0.189   9.392  19.794  0.00  0.00    +0.000 C 
ATOM      8  O   UNL     1      -0.252   9.398  20.942  0.00  0.00    +0.000 OA
ATOM      9  N   UNL     1      -0.419  10.048  18.745  0.00  0.00    +0.000 N 
ATOM     10  C   UNL     1       2.194   8.879  18.302  0.00  0.00    +0.000 C 
ATOM     11  C   UNL     1       2.781   7.573  17.723  0.00  0.00    +0.000 C 
ATOM     12  H   UNL     1      -0.381   9.531  17.880  0.00  0.00    +0.000 HD
ENDROOT
BRANCH   9  13
ATOM     13  C   UNL     1      -1.576  10.838  18.937  0.00  0.00    +0.000 A 
ATOM     14  C   UNL     1      -1.626  11.840  19.914  0.00  0.00    +0.000 A 
ATOM     15  C   UNL     1      -2.773  12.625  20.061  0.00  0.00    +0.000 A 
ATOM     16  C   UNL     1      -3.885  12.392  19.250  0.00  0.00    +0.000 A 
ATOM     17  C   UNL     1      -3.840  11.381  18.286  0.00  0.00    +0.000 A 
ATOM     18  C   UNL     1      -2.684  10.615  18.119  0.00  0.00    +0.000 A 
ATOM     19  O   UNL     1      -4.898  11.077  17.469  0.00  0.00    +0.000 OA
ATOM     20  C   UNL     1      -5.843  12.152  17.425  0.00  0.00    +0.000 C 
ATOM     21  C   UNL     1      -6.146  12.681  18.818  0.00  0.00    +0.000 C 
ATOM     22  O   UNL     1      -4.971  13.200  19.450  0.00  0.00    +0.000 OA
ENDBRANCH   9  13
BRANCH   1  23
ATOM     23  O   UNL     1       5.210   6.162  17.686  0.00  0.00    +0.000 OA
BRANCH  23  25
ATOM     24  C   UNL     1       4.418   4.053  16.693  0.00  0.00    +0.000 C 
ATOM     25  C   UNL     1       5.504   5.138  16.690  0.00  0.00    +0.000 C 
ATOM     26  C   UNL     1       6.917   4.557  16.870  0.00  0.00    +0.000 C 
ATOM     27  C   UNL     1       5.465   5.833  15.316  0.00  0.00    +0.000 C 
ENDBRANCH  23  25
ENDBRANCH   1  23
TORSDOF 3
ENDMDL
MODEL 3
REMARK VINA RESULT:      -7.0      1.756      1.981
REMARK  Name = 
REMARK  6 active torsions:
REMARK  status: ('A' for Active; 'I' for Inactive)
REMARK    1  A    between atoms: C_1  and  C_2
REMARK    2  A    between atoms: C_2  and  C_3
REMARK    3  A    between atoms: C_2  and  C_4
REMARK    4  A    between atoms: C_2  and  O_5
REMARK    5  A    between atoms: O_5  and  C_6
REMARK    6  A    between atoms: N_14  and  C_15
REMARK                            x       y       z     vdW  Elec       q    Type
REMARK                         _______ _______ _______ _____ _____    ______ ____
ROOT
ATOM      1  C   UNL     1       4.249   4.795  18.024  0.00  0.00    +0.000 C 
ATOM      2  O   UNL     1       4.788   4.834  16.919  0.00  0.00    +0.000 OA
ATOM      3  N   UNL     1       3.635   5.902  18.567  0.00  0.00    +0.000 N 
ATOM      4  C   UNL     1       3.613   7.132  17.775  0.00  0.00    +0.000 C 
ATOM      5  C   UNL     1       2.248   7.805  17.866  0.00  0.00    +0.000 C 
ATOM      6  N   UNL     1       1.894   8.048  19.266  0.00  0.00    +0.000 N 
ATOM      7  C   UNL     1       1.238   9.235  19.551  0.00  0.00    +0.000 C 
ATOM      8  O   UNL     1       0.904  10.018  18.662  0.00  0.00    +0.000 OA
ATOM      9  N   UNL     1       1.090   9.507  20.894  0.00  0.00    +0.000 N 
ATOM     10  C   UNL     1       1.916   6.842  20.115  0.00  0.00    +0.000 C 
ATOM     11  C   UNL     1       3.232   6.048  19.969  0.00  0.00    +0.000 C 
ATOM     12  H   UNL     1       1.862   9.175  21.452  0.00  0.00    +0.000 HD
ENDROOT
BRANCH   9  13
ATOM     13  C   UNL     1       0.474  10.697  21.345  0.00  0.00    +0.000 A 
ATOM     14  C   UNL     1       0.958  11.958  20.979  0.00  0.00    +0.000 A 
ATOM     15  C   UNL     1       0.310  13.116  21.417  0.00  0.00    +0.000 A 
ATOM     16  C   UNL     1      -0.808  13.018  22.247  0.00  0.00    +0.000 A 
ATOM     17  C   UNL     1      -1.282  11.759  22.624  0.00  0.00    +0.000 A 
ATOM     18  C   UNL     1      -0.652  10.600  22.163  0.00  0.00    +0.000 A 
ATOM     19  O   UNL     1      -2.359  11.581  23.454  0.00  0.00    +0.000 OA
ATOM     20  C   UNL     1      -3.161  12.765  23.521  0.00  0.00    +0.000 C 
ATOM     21  C   UNL     1      -2.303  14.004  23.721  0.00  0.00    +0.000 C 
ATOM     22  O   UNL     1      -1.391  14.194  22.634  0.00  0.00    +0.000 OA
ENDBRANCH   9  13
BRANCH   1  23
ATOM     23  O   UNL     1       4.170   3.676  18.792  0.00  0.00    +0.000 OA
BRANCH  23  25
ATOM     24  C   UNL     1       2.202   3.245  17.377  0.00  0.00    +0.000 C 
ATOM     25  C   UNL     1       3.053   2.766  18.561  0.00  0.00    +0.000 C 
ATOM     26  C   UNL     1       2.220   2.551  19.837  0.00  0.00    +0.000 C 
ATOM     27  C   UNL     1       3.663   1.405  18.177  0.00  0.00    +0.000 C 
ENDBRANCH  23  25
ENDBRANCH   1  23
TORSDOF 3
ENDMDL
MODEL 4
REMARK VINA RESULT:      -6.8      2.020      9.526
REMARK  Name = 
REMARK  6 active torsions:
REMARK  status: ('A' for Active; 'I' for Inactive)
REMARK    1  A    between atoms: C_1  and  C_2
REMARK    2  A    between atoms: C_2  and  C_3
REMARK    3  A    between atoms: C_2  and  C_4
REMARK    4  A    between atoms: C_2  and  O_5
REMARK    5  A    between atoms: O_5  and  C_6
REMARK    6  A    between atoms: N_14  and  C_15
REMARK                            x       y       z     vdW  Elec       q    Type
REMARK                         _______ _______ _______ _____ _____    ______ ____
ROOT
ATOM      1  C   UNL     1      -0.687  12.102  22.054  0.00  0.00    +0.000 C 
ATOM      2  O   UNL     1      -0.748  12.142  23.282  0.00  0.00    +0.000 OA
ATOM      3  N   UNL     1       0.049  11.138  21.400  0.00  0.00    +0.000 N 
ATOM      4  C   UNL     1       0.739  10.135  22.209  0.00  0.00    +0.000 C 
ATOM      5  C   UNL     1       0.592   8.749  21.589  0.00  0.00    +0.000 C 
ATOM      6  N   UNL     1       1.070   8.759  20.205  0.00  0.00    +0.000 N 
ATOM      7  C   UNL     1       1.760   7.639  19.770  0.00  0.00    +0.000 C 
ATOM      8  O   UNL     1       1.905   6.651  20.489  0.00  0.00    +0.000 OA
ATOM      9  N   UNL     1       2.348   7.767  18.530  0.00  0.00    +0.000 N 
ATOM     10  C   UNL     1       0.417   9.766  19.346  0.00  0.00    +0.000 C 
ATOM     11  C   UNL     1       0.425  11.173  19.983  0.00  0.00    +0.000 C 
ATOM     12  H   UNL     1       2.674   8.702  18.341  0.00  0.00    +0.000 HD
ENDROOT
BRANCH   9  13
ATOM     13  C   UNL     1       3.116   6.723  17.964  0.00  0.00    +0.000 A 
ATOM     14  C   UNL     1       2.697   5.388  18.023  0.00  0.00    +0.000 A 
ATOM     15  C   UNL     1       3.463   4.382  17.429  0.00  0.00    +0.000 A 
ATOM     16  C   UNL     1       4.667   4.703  16.798  0.00  0.00    +0.000 A 
ATOM     17  C   UNL     1       5.092   6.033  16.753  0.00  0.00    +0.000 A 
ATOM     18  C   UNL     1       4.312   7.044  17.321  0.00  0.00    +0.000 A 
ATOM     19  O   UNL     1       6.271   6.424  16.172  0.00  0.00    +0.000 OA
ATOM     20  C   UNL     1       6.766   5.419  15.281  0.00  0.00    +0.000 C 
ATOM     21  C   UNL     1       6.705   4.038  15.915  0.00  0.00    +0.000 C 
ATOM     22  O   UNL     1       5.361   3.666  16.238  0.00  0.00    +0.000 OA
ENDBRANCH   9  13
BRANCH   1  23
ATOM     23  O   UNL     1      -1.351  12.956  21.231  0.00  0.00    +0.000 OA
BRANCH  23  25
ATOM     24  C   UNL     1       0.488  14.483  21.824  0.00  0.00    +0.000 C 
ATOM     25  C   UNL     1      -0.893  14.340  21.168  0.00  0.00    +0.000 C 
ATOM     26  C   UNL     1      -1.929  15.311  21.760  0.00  0.00    +0.000 C 
ATOM     27  C   UNL     1      -0.738  14.687  19.676  0.00  0.00    +0.000 C 
ENDBRANCH  23  25
ENDBRANCH   1  23
TORSDOF 3
ENDMDL
MODEL 5
REMARK VINA RESULT:      -6.8      2.095      2.565
REMARK  Name = 
REMARK  6 active torsions:
REMARK  status: ('A' for Active; 'I' for Inactive)
REMARK    1  A    between atoms: C_1  and  C_2
REMARK    2  A    between atoms: C_2  and  C_3
REMARK    3  A    between atoms: C_2  and  C_4
REMARK    4  A    between atoms: C_2  and  O_5
REMARK    5  A    between atoms: O_5  and  C_6
REMARK    6  A    between atoms: N_14  and  C_15
REMARK                            x       y       z     vdW  Elec       q    Type
REMARK                         _______ _______ _______ _____ _____    ______ ____
ROOT
ATOM      1  C   UNL     1       3.688   5.387  18.230  0.00  0.00    +0.000 C 
ATOM      2  O   UNL     1       4.208   5.449  17.116  0.00  0.00    +0.000 OA
ATOM      3  N   UNL     1       3.085   6.484  18.806  0.00  0.00    +0.000 N 
ATOM      4  C   UNL     1       3.052   7.729  18.041  0.00  0.00    +0.000 C 
ATOM      5  C   UNL     1       1.690   8.403  18.168  0.00  0.00    +0.000 C 
ATOM      6  N   UNL     1       1.360   8.617  19.578  0.00  0.00    +0.000 N 
ATOM      7  C   UNL     1       0.711   9.799  19.899  0.00  0.00    +0.000 C 
ATOM      8  O   UNL     1       0.364  10.600  19.032  0.00  0.00    +0.000 OA
ATOM      9  N   UNL     1       0.586  10.042  21.250  0.00  0.00    +0.000 N 
ATOM     10  C   UNL     1       1.394   7.393  20.402  0.00  0.00    +0.000 C 
ATOM     11  C   UNL     1       2.706   6.600  20.217  0.00  0.00    +0.000 C 
ATOM     12  H   UNL     1       1.367   9.698  21.788  0.00  0.00    +0.000 HD
ENDROOT
BRANCH   9  13
ATOM     13  C   UNL     1      -0.020  11.224  21.736  0.00  0.00    +0.000 A 
ATOM     14  C   UNL     1       0.495  12.490  21.436  0.00  0.00    +0.000 A 
ATOM     15  C   UNL     1      -0.143  13.641  21.907  0.00  0.00    +0.000 A 
ATOM     16  C   UNL     1      -1.284  13.528  22.704  0.00  0.00    +0.000 A 
ATOM     17  C   UNL     1      -1.789  12.264  23.016  0.00  0.00    +0.000 A 
ATOM     18  C   UNL     1      -1.168  11.113  22.521  0.00  0.00    +0.000 A 
ATOM     19  O   UNL     1      -2.890  12.071  23.810  0.00  0.00    +0.000 OA
ATOM     20  C   UNL     1      -3.672  13.266  23.908  0.00  0.00    +0.000 C 
ATOM     21  C   UNL     1      -2.797  14.479  24.182  0.00  0.00    +0.000 C 
ATOM     22  O   UNL     1      -1.856  14.697  23.126  0.00  0.00    +0.000 OA
ENDBRANCH   9  13
BRANCH   1  23
ATOM     23  O   UNL     1       3.620   4.252  18.975  0.00  0.00    +0.000 OA
BRANCH  23  25
ATOM     24  C   UNL     1       3.312   2.096  17.826  0.00  0.00    +0.000 C 
ATOM     25  C   UNL     1       2.639   3.242  18.595  0.00  0.00    +0.000 C 
ATOM     26  C   UNL     1       1.458   3.856  17.823  0.00  0.00    +0.000 C 
ATOM     27  C   UNL     1       2.076   2.657  19.904  0.00  0.00    +0.000 C 
ENDBRANCH  23  25
ENDBRANCH   1  23
TORSDOF 3
ENDMDL
MODEL 6
REMARK VINA RESULT:      -6.8      2.954      4.086
REMARK  Name = 
REMARK  6 active torsions:
REMARK  status: ('A' for Active; 'I' for Inactive)
REMARK    1  A    between atoms: C_1  and  C_2
REMARK    2  A    between atoms: C_2  and  C_3
REMARK    3  A    between atoms: C_2  and  C_4
REMARK    4  A    between atoms: C_2  and  O_5
REMARK    5  A    between atoms: O_5  and  C_6
REMARK    6  A    between atoms: N_14  and  C_15
REMARK                            x       y       z     vdW  Elec       q    Type
REMARK                         _______ _______ _______ _____ _____    ______ ____
ROOT
ATOM      1  C   UNL     1       2.497   7.102  19.167  0.00  0.00    +0.000 C 
ATOM      2  O   UNL     1       2.896   7.239  18.011  0.00  0.00    +0.000 OA
ATOM      3  N   UNL     1       1.793   8.097  19.809  0.00  0.00    +0.000 N 
ATOM      4  C   UNL     1       1.503   9.322  19.065  0.00  0.00    +0.000 C 
ATOM      5  C   UNL     1       0.073   9.784  19.326  0.00  0.00    +0.000 C 
ATOM      6  N   UNL     1      -0.153   9.950  20.763  0.00  0.00    +0.000 N 
ATOM      7  C   UNL     1      -0.938  11.022  21.156  0.00  0.00    +0.000 C 
ATOM      8  O   UNL     1      -1.480  11.760  20.334  0.00  0.00    +0.000 OA
ATOM      9  N   UNL     1      -0.973  11.246  22.515  0.00  0.00    +0.000 N 
ATOM     10  C   UNL     1       0.140   8.746  21.565  0.00  0.00    +0.000 C 
ATOM     11  C   UNL     1       1.533   8.159  21.251  0.00  0.00    +0.000 C 
ATOM     12  H   UNL     1      -0.103  11.024  22.975  0.00  0.00    +0.000 HD
ENDROOT
BRANCH   9  13
ATOM     13  C   UNL     1      -1.701  12.324  23.070  0.00  0.00    +0.000 A 
ATOM     14  C   UNL     1      -3.048  12.191  23.429  0.00  0.00    +0.000 A 
ATOM     15  C   UNL     1      -3.734  13.265  24.001  0.00  0.00    +0.000 A 
ATOM     16  C   UNL     1      -3.084  14.486  24.191  0.00  0.00    +0.000 A 
ATOM     17  C   UNL     1      -1.744  14.623  23.818  0.00  0.00    +0.000 A 
ATOM     18  C   UNL     1      -1.049  13.541  23.272  0.00  0.00    +0.000 A 
ATOM     19  O   UNL     1      -1.044  15.794  23.951  0.00  0.00    +0.000 OA
ATOM     20  C   UNL     1      -1.688  16.678  24.876  0.00  0.00    +0.000 C 
ATOM     21  C   UNL     1      -3.183  16.765  24.610  0.00  0.00    +0.000 C 
ATOM     22  O   UNL     1      -3.818  15.491  24.759  0.00  0.00    +0.000 OA
ENDBRANCH   9  13
BRANCH   1  23
ATOM     23  O   UNL     1       2.668   5.971  19.902  0.00  0.00    +0.000 OA
BRANCH  23  25
ATOM     24  C   UNL     1       1.593   4.928  17.948  0.00  0.00    +0.000 C 
ATOM     25  C   UNL     1       2.132   4.723  19.371  0.00  0.00    +0.000 C 
ATOM     26  C   UNL     1       1.086   4.105  20.313  0.00  0.00    +0.000 C 
ATOM     27  C   UNL     1       3.312   3.737  19.285  0.00  0.00    +0.000 C 
ENDBRANCH  23  25
ENDBRANCH   1  23
TORSDOF 3
ENDMDL
MODEL 7
REMARK VINA RESULT:      -6.7      1.885      9.735
REMARK  Name = 
REMARK  6 active torsions:
REMARK  status: ('A' for Active; 'I' for Inactive)
REMARK    1  A    between atoms: C_1  and  C_2
REMARK    2  A    between atoms: C_2  and  C_3
REMARK    3  A    between atoms: C_2  and  C_4
REMARK    4  A    between atoms: C_2  and  O_5
REMARK    5  A    between atoms: O_5  and  C_6
REMARK    6  A    between atoms: N_14  and  C_15
REMARK                            x       y       z     vdW  Elec       q    Type
REMARK                         _______ _______ _______ _____ _____    ______ ____
ROOT
ATOM      1  C   UNL     1      -1.999  13.519  21.122  0.00  0.00    +0.000 C 
ATOM      2  O   UNL     1      -2.971  13.920  20.483  0.00  0.00    +0.000 OA
ATOM      3  N   UNL     1      -1.297  12.397  20.739  0.00  0.00    +0.000 N 
ATOM      4  C   UNL     1      -1.722  11.703  19.524  0.00  0.00    +0.000 C 
ATOM      5  C   UNL     1      -0.514  11.287  18.691  0.00  0.00    +0.000 C 
ATOM      6  N   UNL     1       0.401  10.475  19.495  0.00  0.00    +0.000 N 
ATOM      7  C   UNL     1       1.020   9.410  18.858  0.00  0.00    +0.000 C 
ATOM      8  O   UNL     1       0.864   9.199  17.656  0.00  0.00    +0.000 OA
ATOM      9  N   UNL     1       1.723   8.568  19.691  0.00  0.00    +0.000 N 
ATOM     10  C   UNL     1       0.850  11.122  20.743  0.00  0.00    +0.000 C 
ATOM     11  C   UNL     1      -0.329  11.676  21.571  0.00  0.00    +0.000 C 
ATOM     12  H   UNL     1       1.305   8.474  20.604  0.00  0.00    +0.000 HD
ENDROOT
BRANCH   9  13
ATOM     13  C   UNL     1       2.380   7.417  19.197  0.00  0.00    +0.000 A 
ATOM     14  C   UNL     1       3.186   7.467  18.052  0.00  0.00    +0.000 A 
ATOM     15  C   UNL     1       3.846   6.320  17.605  0.00  0.00    +0.000 A 
ATOM     16  C   UNL     1       3.681   5.111  18.283  0.00  0.00    +0.000 A 
ATOM     17  C   UNL     1       2.865   5.058  19.416  0.00  0.00    +0.000 A 
ATOM     18  C   UNL     1       2.227   6.211  19.882  0.00  0.00    +0.000 A 
ATOM     19  O   UNL     1       2.635   3.906  20.122  0.00  0.00    +0.000 OA
ATOM     20  C   UNL     1       3.630   2.917  19.833  0.00  0.00    +0.000 C 
ATOM     21  C   UNL     1       3.878   2.801  18.337  0.00  0.00    +0.000 C 
ATOM     22  O   UNL     1       4.360   4.031  17.788  0.00  0.00    +0.000 OA
ENDBRANCH   9  13
BRANCH   1  23
ATOM     23  O   UNL     1      -1.501  14.145  22.222  0.00  0.00    +0.000 OA
BRANCH  23  25
ATOM     24  C   UNL     1      -3.067  13.003  23.742  0.00  0.00    +0.000 C 
ATOM     25  C   UNL     1      -2.390  14.329  23.364  0.00  0.00    +0.000 C 
ATOM     26  C   UNL     1      -3.404  15.459  23.121  0.00  0.00    +0.000 C 
ATOM     27  C   UNL     1      -1.504  14.754  24.549  0.00  0.00    +0.000 C 
ENDBRANCH  23  25
ENDBRANCH   1  23
TORSDOF 3
ENDMDL
MODEL 8
REMARK VINA RESULT:      -6.7      2.722      3.683
REMARK  Name = 
REMARK  6 active torsions:
REMARK  status: ('A' for Active; 'I' for Inactive)
REMARK    1  A    between atoms: C_1  and  C_2
REMARK    2  A    between atoms: C_2  and  C_3
REMARK    3  A    between atoms: C_2  and  C_4
REMARK    4  A    between atoms: C_2  and  O_5
REMARK    5  A    between atoms: O_5  and  C_6
REMARK    6  A    between atoms: N_14  and  C_15
REMARK                            x       y       z     vdW  Elec       q    Type
REMARK                         _______ _______ _______ _____ _____    ______ ____
ROOT
ATOM      1  C   UNL     1       2.777   6.553  18.865  0.00  0.00    +0.000 C 
ATOM      2  O   UNL     1       3.259   6.601  17.734  0.00  0.00    +0.000 OA
ATOM      3  N   UNL     1       2.146   7.641  19.427  0.00  0.00    +0.000 N 
ATOM      4  C   UNL     1       2.034   8.859  18.625  0.00  0.00    +0.000 C 
ATOM      5  C   UNL     1       0.648   9.477  18.776  0.00  0.00    +0.000 C 
ATOM      6  N   UNL     1       0.354   9.723  20.189  0.00  0.00    +0.000 N 
ATOM      7  C   UNL     1      -0.335  10.886  20.494  0.00  0.00    +0.000 C 
ATOM      8  O   UNL     1      -0.744  11.644  19.615  0.00  0.00    +0.000 OA
ATOM      9  N   UNL     1      -0.428  11.168  21.840  0.00  0.00    +0.000 N 
ATOM     10  C   UNL     1       0.468   8.529  21.049  0.00  0.00    +0.000 C 
ATOM     11  C   UNL     1       1.807   7.788  20.845  0.00  0.00    +0.000 C 
ATOM     12  H   UNL     1       0.384  10.875  22.362  0.00  0.00    +0.000 HD
ENDROOT
BRANCH   9  13
ATOM     13  C   UNL     1      -1.070  12.338  22.309  0.00  0.00    +0.000 A 
ATOM     14  C   UNL     1      -0.422  13.579  22.313  0.00  0.00    +0.000 A 
ATOM     15  C   UNL     1      -1.092  14.722  22.755  0.00  0.00    +0.000 A 
ATOM     16  C   UNL     1      -2.404  14.625  23.223  0.00  0.00    +0.000 A 
ATOM     17  C   UNL     1      -3.044  13.383  23.233  0.00  0.00    +0.000 A 
ATOM     18  C   UNL     1      -2.385  12.244  22.764  0.00  0.00    +0.000 A 
ATOM     19  O   UNL     1      -4.322  13.202  23.697  0.00  0.00    +0.000 OA
ATOM     20  C   UNL     1      -5.032  14.444  23.752  0.00  0.00    +0.000 C 
ATOM     21  C   UNL     1      -4.189  15.537  24.389  0.00  0.00    +0.000 C 
ATOM     22  O   UNL     1      -2.996  15.786  23.637  0.00  0.00    +0.000 OA
ENDBRANCH   9  13
BRANCH   1  23
ATOM     23  O   UNL     1       2.782   5.441  19.648  0.00  0.00    +0.000 OA
BRANCH  23  25
ATOM     24  C   UNL     1       1.488   4.508  17.772  0.00  0.00    +0.000 C 
ATOM     25  C   UNL     1       2.017   4.284  19.197  0.00  0.00    +0.000 C 
ATOM     26  C   UNL     1       0.900   3.917  20.188  0.00  0.00    +0.000 C 
ATOM     27  C   UNL     1       2.997   3.097  19.149  0.00  0.00    +0.000 C 
ENDBRANCH  23  25
ENDBRANCH   1  23
TORSDOF 3
ENDMDL
MODEL 9
REMARK VINA RESULT:      -6.7      0.993      1.381
REMARK  Name = 
REMARK  6 active torsions:
REMARK  status: ('A' for Active; 'I' for Inactive)
REMARK    1  A    between atoms: C_1  and  C_2
REMARK    2  A    between atoms: C_2  and  C_3
REMARK    3  A    between atoms: C_2  and  C_4
REMARK    4  A    between atoms: C_2  and  O_5
REMARK    5  A    between atoms: O_5  and  C_6
REMARK    6  A    between atoms: N_14  and  C_15
REMARK                            x       y       z     vdW  Elec       q    Type
REMARK                         _______ _______ _______ _____ _____    ______ ____
ROOT
ATOM      1  C   UNL     1       4.706   4.341  18.470  0.00  0.00    +0.000 C 
ATOM      2  O   UNL     1       5.585   4.208  17.620  0.00  0.00    +0.000 OA
ATOM      3  N   UNL     1       4.068   5.547  18.666  0.00  0.00    +0.000 N 
ATOM      4  C   UNL     1       4.446   6.670  17.809  0.00  0.00    +0.000 C 
ATOM      5  C   UNL     1       3.210   7.444  17.362  0.00  0.00    +0.000 C 
ATOM      6  N   UNL     1       2.436   7.879  18.525  0.00  0.00    +0.000 N 
ATOM      7  C   UNL     1       1.855   9.136  18.459  0.00  0.00    +0.000 C 
ATOM      8  O   UNL     1       1.925   9.826  17.443  0.00  0.00    +0.000 OA
ATOM      9  N   UNL     1       1.295   9.578  19.638  0.00  0.00    +0.000 N 
ATOM     10  C   UNL     1       2.041   6.786  19.435  0.00  0.00    +0.000 C 
ATOM     11  C   UNL     1       3.237   5.889  19.824  0.00  0.00    +0.000 C 
ATOM     12  H   UNL     1       1.794   9.262  20.456  0.00  0.00    +0.000 HD
ENDROOT
BRANCH   9  13
ATOM     13  C   UNL     1       0.695  10.854  19.740  0.00  0.00    +0.000 A 
ATOM     14  C   UNL     1       1.362  12.013  19.327  0.00  0.00    +0.000 A 
ATOM     15  C   UNL     1       0.732  13.258  19.413  0.00  0.00    +0.000 A 
ATOM     16  C   UNL     1      -0.557  13.352  19.940  0.00  0.00    +0.000 A 
ATOM     17  C   UNL     1      -1.217  12.196  20.366  0.00  0.00    +0.000 A 
ATOM     18  C   UNL     1      -0.599  10.948  20.254  0.00  0.00    +0.000 A 
ATOM     19  O   UNL     1      -2.473  12.209  20.915  0.00  0.00    +0.000 OA
ATOM     20  C   UNL     1      -3.160  13.426  20.604  0.00  0.00    +0.000 C 
ATOM     21  C   UNL     1      -2.270  14.638  20.830  0.00  0.00    +0.000 C 
ATOM     22  O   UNL     1      -1.111  14.602  19.991  0.00  0.00    +0.000 OA
ENDBRANCH   9  13
BRANCH   1  23
ATOM     23  O   UNL     1       4.253   3.332  19.261  0.00  0.00    +0.000 OA
BRANCH  23  25
ATOM     24  C   UNL     1       2.621   3.071  17.436  0.00  0.00    +0.000 C 
ATOM     25  C   UNL     1       3.164   2.503  18.755  0.00  0.00    +0.000 C 
ATOM     26  C   UNL     1       2.061   2.306  19.809  0.00  0.00    +0.000 C 
ATOM     27  C   UNL     1       3.765   1.118  18.454  0.00  0.00    +0.000 C 
ENDBRANCH  23  25
ENDBRANCH   1  23
TORSDOF 3
ENDMDL
