MODEL 1
REMARK VINA RESULT:      -7.0      0.000      0.000
REMARK  Name = 
REMARK  3 active torsions:
REMARK  status: ('A' for Active; 'I' for Inactive)
REMARK    1  A    between atoms: C_2  and  C_4
REMARK    2  A    between atoms: C_10  and  C_11
REMARK    3  A    between atoms: C_19  and  N_20
REMARK                            x       y       z     vdW  Elec       q    Type
REMARK                         _______ _______ _______ _____ _____    ______ ____
ROOT
ATOM      1  C   UNL     1       6.218   5.519  16.575  0.00  0.00    +0.000 A 
ATOM      2  S   UNL     1       5.971   3.840  16.635  0.00  0.00    +0.000 S 
ATOM      3  C   UNL     1       4.557   4.010  17.558  0.00  0.00    +0.000 A 
ATOM      4  N   UNL     1       3.923   2.885  17.908  0.00  0.00    +0.000 NA
ATOM      5  C   UNL     1       2.780   3.046  18.585  0.00  0.00    +0.000 A 
ATOM      6  C   UNL     1       2.244   4.295  18.942  0.00  0.00    +0.000 A 
ATOM      7  C   UNL     1       2.950   5.497  18.562  0.00  0.00    +0.000 A 
ATOM      8  C   UNL     1       4.195   5.324  17.841  0.00  0.00    +0.000 A 
ATOM      9  C   UNL     1       5.240   6.191  17.291  0.00  0.00    +0.000 A 
ATOM     10  C   UNL     1       0.867   4.310  19.592  0.00  0.00    +0.000 C 
ATOM     11  C   UNL     1       0.482   3.009  20.294  0.00  0.00    +0.000 C 
ATOM     12  C   UNL     1       0.664   1.846  19.345  0.00  0.00    +0.000 C 
ATOM     13  C   UNL     1       2.134   1.736  18.978  0.00  0.00    +0.000 C 
ENDROOT
BRANCH   7  14
ATOM     14  C   UNL     1       2.413   6.868  18.833  0.00  0.00    +0.000 A 
ATOM     15  C   UNL     1       2.144   7.320  20.139  0.00  0.00    +0.000 A 
ATOM     16  C   UNL     1       1.515   8.546  20.394  0.00  0.00    +0.000 A 
ATOM     17  C   UNL     1       1.285   9.430  19.352  0.00  0.00    +0.000 A 
ATOM     18 CL   UNL     1       0.596  10.972  19.666  0.00  0.00    +0.000 Cl
ATOM     19  C   UNL     1       1.626   9.066  18.055  0.00  0.00    +0.000 A 
ATOM     20  C   UNL     1       2.117   7.776  17.799  0.00  0.00    +0.000 A 
ENDBRANCH   7  14
BRANCH   1  22
ATOM     21  N   UNL     1       7.689   5.539  14.659  0.00  0.00    +0.000 N 
ATOM     22  C   UNL     1       7.364   6.082  15.867  0.00  0.00    +0.000 C 
ATOM     23  O   UNL     1       8.037   7.032  16.286  0.00  0.00    +0.000 OA
ATOM     24  H   UNL     1       8.482   5.917  14.163  0.00  0.00    +0.000 HD
ATOM     25  H   UNL     1       7.179   4.753  14.271  0.00  0.00    +0.000 HD
ENDBRANCH   1  22
BRANCH   9  26
ATOM     26  N   UNL     1       5.288   7.543  17.416  0.00  0.00    +0.000 N 
ATOM     27  H   UNL     1       5.945   8.002  18.037  0.00  0.00    +0.000 HD
ATOM     28  H   UNL     1       5.003   8.134  16.631  0.00  0.00    +0.000 HD
ENDBRANCH   9  26
TORSDOF 3
ENDMDL
MODEL 2
REMARK VINA RESULT:      -6.8      3.665      5.536
REMARK  Name = 
REMARK  3 active torsions:
REMARK  status: ('A' for Active; 'I' for Inactive)
REMARK    1  A    between atoms: C_2  and  C_4
REMARK    2  A    between atoms: C_10  and  C_11
REMARK    3  A    between atoms: C_19  and  N_20
REMARK                            x       y       z     vdW  Elec       q    Type
REMARK                         _______ _______ _______ _____ _____    ______ ____
ROOT
ATOM      1  C   UNL     1       1.768   8.963  18.948  0.00  0.00    +0.000 A 
ATOM      2  S   UNL     1       1.085   8.226  20.317  0.00  0.00    +0.000 S 
ATOM      3  C   UNL     1       1.868   6.753  20.002  0.00  0.00    +0.000 A 
ATOM      4  N   UNL     1       1.638   5.750  20.858  0.00  0.00    +0.000 NA
ATOM      5  C   UNL     1       2.311   4.617  20.622  0.00  0.00    +0.000 A 
ATOM      6  C   UNL     1       3.202   4.438  19.550  0.00  0.00    +0.000 A 
ATOM      7  C   UNL     1       3.427   5.530  18.633  0.00  0.00    +0.000 A 
ATOM      8  C   UNL     1       2.689   6.754  18.878  0.00  0.00    +0.000 A 
ATOM      9  C   UNL     1       2.557   8.067  18.243  0.00  0.00    +0.000 A 
ATOM     10  C   UNL     1       3.989   3.135  19.502  0.00  0.00    +0.000 C 
ATOM     11  C   UNL     1       3.338   1.970  20.247  0.00  0.00    +0.000 C 
ATOM     12  C   UNL     1       3.002   2.394  21.659  0.00  0.00    +0.000 C 
ATOM     13  C   UNL     1       1.980   3.517  21.606  0.00  0.00    +0.000 C 
ENDROOT
BRANCH   7  14
ATOM     14  C   UNL     1       4.415   5.452  17.511  0.00  0.00    +0.000 A 
ATOM     15  C   UNL     1       4.199   4.639  16.381  0.00  0.00    +0.000 A 
ATOM     16  C   UNL     1       5.176   4.451  15.393  0.00  0.00    +0.000 A 
ATOM     17  C   UNL     1       6.338   5.205  15.427  0.00  0.00    +0.000 A 
ATOM     18 CL   UNL     1       7.501   5.048  14.172  0.00  0.00    +0.000 Cl
ATOM     19  C   UNL     1       6.551   6.095  16.472  0.00  0.00    +0.000 A 
ATOM     20  C   UNL     1       5.631   6.159  17.531  0.00  0.00    +0.000 A 
ENDBRANCH   7  14
BRANCH   1  22
ATOM     21  N   UNL     1       0.228  10.824  18.925  0.00  0.00    +0.000 N 
ATOM     22  C   UNL     1       1.472  10.354  18.620  0.00  0.00    +0.000 C 
ATOM     23  O   UNL     1       2.285  11.131  18.105  0.00  0.00    +0.000 OA
ATOM     24  H   UNL     1       0.011  11.783  18.698  0.00  0.00    +0.000 HD
ATOM     25  H   UNL     1      -0.481  10.229  19.339  0.00  0.00    +0.000 HD
ENDBRANCH   1  22
BRANCH   9  26
ATOM     26  N   UNL     1       3.151   8.442  17.081  0.00  0.00    +0.000 N 
ATOM     27  H   UNL     1       4.070   8.108  16.814  0.00  0.00    +0.000 HD
ATOM     28  H   UNL     1       2.572   8.698  16.277  0.00  0.00    +0.000 HD
ENDBRANCH   9  26
TORSDOF 3
ENDMDL
MODEL 3
REMARK VINA RESULT:      -6.8      3.817      6.221
REMARK  Name = 
REMARK  3 active torsions:
REMARK  status: ('A' for Active; 'I' for Inactive)
REMARK    1  A    between atoms: C_2  and  C_4
REMARK    2  A    between atoms: C_10  and  C_11
REMARK    3  A    between atoms: C_19  and  N_20
REMARK                            x       y       z     vdW  Elec       q    Type
REMARK                         _______ _______ _______ _____ _____    ______ ____
ROOT
ATOM      1  C   UNL     1       1.334   9.365  19.317  0.00  0.00    +0.000 A 
ATOM      2  S   UNL     1       2.242   9.754  17.935  0.00  0.00    +0.000 S 
ATOM      3  C   UNL     1       2.894   8.190  17.837  0.00  0.00    +0.000 A 
ATOM      4  N   UNL     1       3.752   7.954  16.838  0.00  0.00    +0.000 NA
ATOM      5  C   UNL     1       4.208   6.699  16.746  0.00  0.00    +0.000 A 
ATOM      6  C   UNL     1       3.850   5.663  17.626  0.00  0.00    +0.000 A 
ATOM      7  C   UNL     1       2.931   5.944  18.703  0.00  0.00    +0.000 A 
ATOM      8  C   UNL     1       2.446   7.305  18.814  0.00  0.00    +0.000 A 
ATOM      9  C   UNL     1       1.566   8.057  19.711  0.00  0.00    +0.000 A 
ATOM     10  C   UNL     1       4.351   4.262  17.303  0.00  0.00    +0.000 C 
ATOM     11  C   UNL     1       5.609   4.220  16.436  0.00  0.00    +0.000 C 
ATOM     12  C   UNL     1       5.402   5.063  15.199  0.00  0.00    +0.000 C 
ATOM     13  C   UNL     1       5.196   6.509  15.616  0.00  0.00    +0.000 C 
ENDROOT
BRANCH   7  14
ATOM     14  C   UNL     1       2.437   4.885  19.640  0.00  0.00    +0.000 A 
ATOM     15  C   UNL     1       1.319   4.083  19.339  0.00  0.00    +0.000 A 
ATOM     16  C   UNL     1       0.767   3.186  20.264  0.00  0.00    +0.000 A 
ATOM     17  C   UNL     1       1.421   2.948  21.462  0.00  0.00    +0.000 A 
ATOM     18 CL   UNL     1       0.801   1.784  22.564  0.00  0.00    +0.000 Cl
ATOM     19  C   UNL     1       2.585   3.644  21.760  0.00  0.00    +0.000 A 
ATOM     20  C   UNL     1       3.041   4.647  20.889  0.00  0.00    +0.000 A 
ENDBRANCH   7  14
BRANCH   1  22
ATOM     21  N   UNL     1       0.961  11.631  20.066  0.00  0.00    +0.000 N 
ATOM     22  C   UNL     1       0.478  10.360  19.955  0.00  0.00    +0.000 C 
ATOM     23  O   UNL     1      -0.660  10.124  20.378  0.00  0.00    +0.000 OA
ATOM     24  H   UNL     1       0.380  12.326  20.510  0.00  0.00    +0.000 HD
ATOM     25  H   UNL     1       1.890  11.880  19.746  0.00  0.00    +0.000 HD
ENDBRANCH   1  22
BRANCH   9  26
ATOM     26  N   UNL     1       0.978   7.564  20.832  0.00  0.00    +0.000 N 
ATOM     27  H   UNL     1       0.593   8.170  21.548  0.00  0.00    +0.000 HD
ATOM     28  H   UNL     1       0.528   6.645  20.804  0.00  0.00    +0.000 HD
ENDBRANCH   9  26
TORSDOF 3
ENDMDL
MODEL 4
REMARK VINA RESULT:      -6.7      9.817     11.227
REMARK  Name = 
REMARK  3 active torsions:
REMARK  status: ('A' for Active; 'I' for Inactive)
REMARK    1  A    between atoms: C_2  and  C_4
REMARK    2  A    between atoms: C_10  and  C_11
REMARK    3  A    between atoms: C_19  and  N_20
REMARK                            x       y       z     vdW  Elec       q    Type
REMARK                         _______ _______ _______ _____ _____    ______ ____
ROOT
ATOM      1  C   UNL     1       6.101  15.840  19.233  0.00  0.00    +0.000 A 
ATOM      2  S   UNL     1       7.053  15.582  17.850  0.00  0.00    +0.000 S 
ATOM      3  C   UNL     1       8.160  14.621  18.705  0.00  0.00    +0.000 A 
ATOM      4  N   UNL     1       9.196  14.131  18.014  0.00  0.00    +0.000 NA
ATOM      5  C   UNL     1      10.023  13.329  18.695  0.00  0.00    +0.000 A 
ATOM      6  C   UNL     1       9.867  13.004  20.053  0.00  0.00    +0.000 A 
ATOM      7  C   UNL     1       8.747  13.553  20.782  0.00  0.00    +0.000 A 
ATOM      8  C   UNL     1       7.857  14.432  20.050  0.00  0.00    +0.000 A 
ATOM      9  C   UNL     1       6.658  15.222  20.341  0.00  0.00    +0.000 A 
ATOM     10  C   UNL     1      10.818  11.972  20.643  0.00  0.00    +0.000 C 
ATOM     11  C   UNL     1      12.148  11.837  19.904  0.00  0.00    +0.000 C 
ATOM     12  C   UNL     1      11.891  11.615  18.431  0.00  0.00    +0.000 C 
ATOM     13  C   UNL     1      11.188  12.837  17.864  0.00  0.00    +0.000 C 
ENDROOT
BRANCH   7  14
ATOM     14  C   UNL     1       8.461  13.200  22.209  0.00  0.00    +0.000 A 
ATOM     15  C   UNL     1       7.838  11.989  22.568  0.00  0.00    +0.000 A 
ATOM     16  C   UNL     1       7.442  11.710  23.883  0.00  0.00    +0.000 A 
ATOM     17  C   UNL     1       7.809  12.569  24.907  0.00  0.00    +0.000 A 
ATOM     18 CL   UNL     1       7.406  12.190  26.534  0.00  0.00    +0.000 Cl
ATOM     19  C   UNL     1       8.513  13.729  24.611  0.00  0.00    +0.000 A 
ATOM     20  C   UNL     1       8.769  14.067  23.273  0.00  0.00    +0.000 A 
ENDBRANCH   7  14
BRANCH   1  22
ATOM     21  N   UNL     1       3.888  16.230  18.348  0.00  0.00    +0.000 N 
ATOM     22  C   UNL     1       4.891  16.654  19.168  0.00  0.00    +0.000 C 
ATOM     23  O   UNL     1       4.717  17.687  19.826  0.00  0.00    +0.000 OA
ATOM     24  H   UNL     1       3.049  16.787  18.292  0.00  0.00    +0.000 HD
ATOM     25  H   UNL     1       3.979  15.396  17.778  0.00  0.00    +0.000 HD
ENDBRANCH   1  22
BRANCH   9  26
ATOM     26  N   UNL     1       6.081  15.355  21.563  0.00  0.00    +0.000 N 
ATOM     27  H   UNL     1       5.702  14.561  22.068  0.00  0.00    +0.000 HD
ATOM     28  H   UNL     1       6.374  16.116  22.181  0.00  0.00    +0.000 HD
ENDBRANCH   9  26
TORSDOF 3
ENDMDL
MODEL 5
REMARK VINA RESULT:      -6.6      2.474      4.837
REMARK  Name = 
REMARK  3 active torsions:
REMARK  status: ('A' for Active; 'I' for Inactive)
REMARK    1  A    between atoms: C_2  and  C_4
REMARK    2  A    between atoms: C_10  and  C_11
REMARK    3  A    between atoms: C_19  and  N_20
REMARK                            x       y       z     vdW  Elec       q    Type
REMARK                         _______ _______ _______ _____ _____    ______ ____
ROOT
ATOM      1  C   UNL     1       5.578   5.154  16.421  0.00  0.00    +0.000 A 
ATOM      2  S   UNL     1       5.446   6.789  15.978  0.00  0.00    +0.000 S 
ATOM      3  C   UNL     1       4.144   7.043  17.037  0.00  0.00    +0.000 A 
ATOM      4  N   UNL     1       3.620   8.274  17.067  0.00  0.00    +0.000 NA
ATOM      5  C   UNL     1       2.633   8.466  17.951  0.00  0.00    +0.000 A 
ATOM      6  C   UNL     1       2.134   7.468  18.804  0.00  0.00    +0.000 A 
ATOM      7  C   UNL     1       2.708   6.144  18.748  0.00  0.00    +0.000 A 
ATOM      8  C   UNL     1       3.767   5.930  17.782  0.00  0.00    +0.000 A 
ATOM      9  C   UNL     1       4.604   4.810  17.345  0.00  0.00    +0.000 A 
ATOM     10  C   UNL     1       1.103   7.884  19.845  0.00  0.00    +0.000 C 
ATOM     11  C   UNL     1       0.317   9.146  19.492  0.00  0.00    +0.000 C 
ATOM     12  C   UNL     1       1.276  10.262  19.146  0.00  0.00    +0.000 C 
ATOM     13  C   UNL     1       2.065   9.867  17.909  0.00  0.00    +0.000 C 
ENDROOT
BRANCH   7  14
ATOM     14  C   UNL     1       2.290   5.043  19.673  0.00  0.00    +0.000 A 
ATOM     15  C   UNL     1       1.293   4.111  19.323  0.00  0.00    +0.000 A 
ATOM     16  C   UNL     1       0.799   3.165  20.231  0.00  0.00    +0.000 A 
ATOM     17  C   UNL     1       1.407   3.017  21.468  0.00  0.00    +0.000 A 
ATOM     18 CL   UNL     1       0.866   1.799  22.553  0.00  0.00    +0.000 Cl
ATOM     19  C   UNL     1       2.461   3.850  21.818  0.00  0.00    +0.000 A 
ATOM     20  C   UNL     1       2.845   4.891  20.957  0.00  0.00    +0.000 A 
ENDBRANCH   7  14
BRANCH   1  22
ATOM     21  N   UNL     1       6.231   3.539  14.748  0.00  0.00    +0.000 N 
ATOM     22  C   UNL     1       6.596   4.296  15.822  0.00  0.00    +0.000 C 
ATOM     23  O   UNL     1       7.767   4.233  16.216  0.00  0.00    +0.000 OA
ATOM     24  H   UNL     1       6.925   2.939  14.329  0.00  0.00    +0.000 HD
ATOM     25  H   UNL     1       5.283   3.544  14.387  0.00  0.00    +0.000 HD
ENDBRANCH   1  22
BRANCH   9  26
ATOM     26  N   UNL     1       4.500   3.530  17.787  0.00  0.00    +0.000 N 
ATOM     27  H   UNL     1       3.674   3.193  18.271  0.00  0.00    +0.000 HD
ATOM     28  H   UNL     1       5.009   2.785  17.304  0.00  0.00    +0.000 HD
ENDBRANCH   9  26
TORSDOF 3
ENDMDL
MODEL 6
REMARK VINA RESULT:      -6.4      7.336     10.159
REMARK  Name = 
REMARK  3 active torsions:
REMARK  status: ('A' for Active; 'I' for Inactive)
REMARK    1  A    between atoms: C_2  and  C_4
REMARK    2  A    between atoms: C_10  and  C_11
REMARK    3  A    between atoms: C_19  and  N_20
REMARK                            x       y       z     vdW  Elec       q    Type
REMARK                         _______ _______ _______ _____ _____    ______ ____
ROOT
ATOM      1  C   UNL     1      -0.733  10.774  18.882  0.00  0.00    +0.000 A 
ATOM      2  S   UNL     1      -1.791  10.549  17.573  0.00  0.00    +0.000 S 
ATOM      3  C   UNL     1      -3.055  11.360  18.363  0.00  0.00    +0.000 A 
ATOM      4  N   UNL     1      -4.215  11.461  17.704  0.00  0.00    +0.000 NA
ATOM      5  C   UNL     1      -5.178  12.156  18.323  0.00  0.00    +0.000 A 
ATOM      6  C   UNL     1      -5.034  12.747  19.590  0.00  0.00    +0.000 A 
ATOM      7  C   UNL     1      -3.776  12.616  20.287  0.00  0.00    +0.000 A 
ATOM      8  C   UNL     1      -2.736  11.854  19.625  0.00  0.00    +0.000 A 
ATOM      9  C   UNL     1      -1.366  11.433  19.924  0.00  0.00    +0.000 A 
ATOM     10  C   UNL     1      -6.178  13.617  20.093  0.00  0.00    +0.000 C 
ATOM     11  C   UNL     1      -7.538  13.300  19.473  0.00  0.00    +0.000 C 
ATOM     12  C   UNL     1      -7.423  13.307  17.965  0.00  0.00    +0.000 C 
ATOM     13  C   UNL     1      -6.470  12.203  17.539  0.00  0.00    +0.000 C 
ENDROOT
BRANCH   7  14
ATOM     14  C   UNL     1      -3.511  13.278  21.604  0.00  0.00    +0.000 A 
ATOM     15  C   UNL     1      -2.928  14.557  21.694  0.00  0.00    +0.000 A 
ATOM     16  C   UNL     1      -2.550  15.126  22.918  0.00  0.00    +0.000 A 
ATOM     17  C   UNL     1      -2.896  14.496  24.102  0.00  0.00    +0.000 A 
ATOM     18 CL   UNL     1      -2.517  15.229  25.610  0.00  0.00    +0.000 Cl
ATOM     19  C   UNL     1      -3.561  13.277  24.064  0.00  0.00    +0.000 A 
ATOM     20  C   UNL     1      -3.798  12.651  22.830  0.00  0.00    +0.000 A 
ENDBRANCH   7  14
BRANCH   1  22
ATOM     21  N   UNL     1       1.442  10.722  17.831  0.00  0.00    +0.000 N 
ATOM     22  C   UNL     1       0.636  10.268  18.835  0.00  0.00    +0.000 C 
ATOM     23  O   UNL     1       1.110   9.477  19.658  0.00  0.00    +0.000 OA
ATOM     24  H   UNL     1       2.388  10.375  17.786  0.00  0.00    +0.000 HD
ATOM     25  H   UNL     1       1.105  11.364  17.123  0.00  0.00    +0.000 HD
ENDBRANCH   1  22
BRANCH   9  26
ATOM     26  N   UNL     1      -0.709  11.662  21.091  0.00  0.00    +0.000 N 
ATOM     27  H   UNL     1       0.267  11.937  21.113  0.00  0.00    +0.000 HD
ATOM     28  H   UNL     1      -1.231  11.980  21.911  0.00  0.00    +0.000 HD
ENDBRANCH   9  26
TORSDOF 3
ENDMDL
MODEL 7
REMARK VINA RESULT:      -6.2      9.412     10.758
REMARK  Name = 
REMARK  3 active torsions:
REMARK  status: ('A' for Active; 'I' for Inactive)
REMARK    1  A    between atoms: C_2  and  C_4
REMARK    2  A    between atoms: C_10  and  C_11
REMARK    3  A    between atoms: C_19  and  N_20
REMARK                            x       y       z     vdW  Elec       q    Type
REMARK                         _______ _______ _______ _____ _____    ______ ____
ROOT
ATOM      1  C   UNL     1      10.421  12.793  19.391  0.00  0.00    +0.000 A 
ATOM      2  S   UNL     1       9.836  13.971  18.316  0.00  0.00    +0.000 S 
ATOM      3  C   UNL     1       8.562  14.390  19.357  0.00  0.00    +0.000 A 
ATOM      4  N   UNL     1       7.730  15.350  18.938  0.00  0.00    +0.000 NA
ATOM      5  C   UNL     1       6.768  15.704  19.800  0.00  0.00    +0.000 A 
ATOM      6  C   UNL     1       6.592  15.123  21.067  0.00  0.00    +0.000 A 
ATOM      7  C   UNL     1       7.497  14.080  21.493  0.00  0.00    +0.000 A 
ATOM      8  C   UNL     1       8.530  13.687  20.557  0.00  0.00    +0.000 A 
ATOM      9  C   UNL     1       9.616  12.704  20.516  0.00  0.00    +0.000 A 
ATOM     10  C   UNL     1       5.535  15.732  21.978  0.00  0.00    +0.000 C 
ATOM     11  C   UNL     1       4.426  16.488  21.249  0.00  0.00    +0.000 C 
ATOM     12  C   UNL     1       5.035  17.502  20.308  0.00  0.00    +0.000 C 
ATOM     13  C   UNL     1       5.845  16.769  19.251  0.00  0.00    +0.000 C 
ENDROOT
BRANCH   7  14
ATOM     14  C   UNL     1       7.430  13.462  22.855  0.00  0.00    +0.000 A 
ATOM     15  C   UNL     1       6.592  12.366  23.138  0.00  0.00    +0.000 A 
ATOM     16  C   UNL     1       6.418  11.868  24.436  0.00  0.00    +0.000 A 
ATOM     17  C   UNL     1       7.208  12.352  25.467  0.00  0.00    +0.000 A 
ATOM     18 CL   UNL     1       7.067  11.685  27.045  0.00  0.00    +0.000 Cl
ATOM     19  C   UNL     1       8.122  13.367  25.215  0.00  0.00    +0.000 A 
ATOM     20  C   UNL     1       8.175  13.956  23.942  0.00  0.00    +0.000 A 
ENDBRANCH   7  14
BRANCH   1  22
ATOM     21  N   UNL     1      11.930  11.869  17.746  0.00  0.00    +0.000 N 
ATOM     22  C   UNL     1      11.603  12.001  19.064  0.00  0.00    +0.000 C 
ATOM     23  O   UNL     1      12.332  11.467  19.908  0.00  0.00    +0.000 OA
ATOM     24  H   UNL     1      12.743  11.320  17.509  0.00  0.00    +0.000 HD
ATOM     25  H   UNL     1      11.364  12.277  17.011  0.00  0.00    +0.000 HD
ENDBRANCH   1  22
BRANCH   9  26
ATOM     26  N   UNL     1       9.877  11.779  21.475  0.00  0.00    +0.000 N 
ATOM     27  H   UNL     1      10.016  10.799  21.254  0.00  0.00    +0.000 HD
ATOM     28  H   UNL     1      10.353  12.063  22.336  0.00  0.00    +0.000 HD
ENDBRANCH   9  26
TORSDOF 3
ENDMDL
MODEL 8
REMARK VINA RESULT:      -6.2      3.142      4.393
REMARK  Name = 
REMARK  3 active torsions:
REMARK  status: ('A' for Active; 'I' for Inactive)
REMARK    1  A    between atoms: C_2  and  C_4
REMARK    2  A    between atoms: C_10  and  C_11
REMARK    3  A    between atoms: C_19  and  N_20
REMARK                            x       y       z     vdW  Elec       q    Type
REMARK                         _______ _______ _______ _____ _____    ______ ____
ROOT
ATOM      1  C   UNL     1       6.287   4.104  13.685  0.00  0.00    +0.000 A 
ATOM      2  S   UNL     1       4.837   3.277  13.998  0.00  0.00    +0.000 S 
ATOM      3  C   UNL     1       4.704   3.953  15.549  0.00  0.00    +0.000 A 
ATOM      4  N   UNL     1       3.645   3.587  16.279  0.00  0.00    +0.000 NA
ATOM      5  C   UNL     1       3.530   4.177  17.476  0.00  0.00    +0.000 A 
ATOM      6  C   UNL     1       4.444   5.116  17.983  0.00  0.00    +0.000 A 
ATOM      7  C   UNL     1       5.586   5.488  17.181  0.00  0.00    +0.000 A 
ATOM      8  C   UNL     1       5.720   4.841  15.891  0.00  0.00    +0.000 A 
ATOM      9  C   UNL     1       6.675   4.859  14.781  0.00  0.00    +0.000 A 
ATOM     10  C   UNL     1       4.096   5.794  19.301  0.00  0.00    +0.000 C 
ATOM     11  C   UNL     1       3.137   5.002  20.190  0.00  0.00    +0.000 C 
ATOM     12  C   UNL     1       1.911   4.614  19.395  0.00  0.00    +0.000 C 
ATOM     13  C   UNL     1       2.330   3.694  18.261  0.00  0.00    +0.000 C 
ENDROOT
BRANCH   7  14
ATOM     14  C   UNL     1       6.566   6.535  17.610  0.00  0.00    +0.000 A 
ATOM     15  C   UNL     1       7.618   6.253  18.502  0.00  0.00    +0.000 A 
ATOM     16  C   UNL     1       8.455   7.252  19.017  0.00  0.00    +0.000 A 
ATOM     17  C   UNL     1       8.365   8.544  18.523  0.00  0.00    +0.000 A 
ATOM     18 CL   UNL     1       9.447   9.757  19.081  0.00  0.00    +0.000 Cl
ATOM     19  C   UNL     1       7.406   8.848  17.566  0.00  0.00    +0.000 A 
ATOM     20  C   UNL     1       6.478   7.870  17.173  0.00  0.00    +0.000 A 
ENDBRANCH   7  14
BRANCH   1  22
ATOM     21  N   UNL     1       6.927   2.722  11.810  0.00  0.00    +0.000 N 
ATOM     22  C   UNL     1       6.980   3.946  12.410  0.00  0.00    +0.000 C 
ATOM     23  O   UNL     1       7.589   4.857  11.836  0.00  0.00    +0.000 OA
ATOM     24  H   UNL     1       7.406   2.600  10.930  0.00  0.00    +0.000 HD
ATOM     25  H   UNL     1       6.450   1.936  12.239  0.00  0.00    +0.000 HD
ENDBRANCH   1  22
BRANCH   9  26
ATOM     26  N   UNL     1       7.841   5.554  14.757  0.00  0.00    +0.000 N 
ATOM     27  H   UNL     1       8.744   5.091  14.775  0.00  0.00    +0.000 HD
ATOM     28  H   UNL     1       7.874   6.472  14.307  0.00  0.00    +0.000 HD
ENDBRANCH   9  26
TORSDOF 3
ENDMDL
MODEL 9
REMARK VINA RESULT:      -6.2      8.575     10.346
REMARK  Name = 
REMARK  3 active torsions:
REMARK  status: ('A' for Active; 'I' for Inactive)
REMARK    1  A    between atoms: C_2  and  C_4
REMARK    2  A    between atoms: C_10  and  C_11
REMARK    3  A    between atoms: C_19  and  N_20
REMARK                            x       y       z     vdW  Elec       q    Type
REMARK                         _______ _______ _______ _____ _____    ______ ____
ROOT
ATOM      1  C   UNL     1      -3.683  11.099  16.785  0.00  0.00    +0.000 A 
ATOM      2  S   UNL     1      -5.240  11.198  17.456  0.00  0.00    +0.000 S 
ATOM      3  C   UNL     1      -4.647  11.815  18.921  0.00  0.00    +0.000 A 
ATOM      4  N   UNL     1      -5.547  12.080  19.875  0.00  0.00    +0.000 NA
ATOM      5  C   UNL     1      -5.062  12.620  21.000  0.00  0.00    +0.000 A 
ATOM      6  C   UNL     1      -3.702  12.896  21.220  0.00  0.00    +0.000 A 
ATOM      7  C   UNL     1      -2.747  12.593  20.180  0.00  0.00    +0.000 A 
ATOM      8  C   UNL     1      -3.267  11.996  18.966  0.00  0.00    +0.000 A 
ATOM      9  C   UNL     1      -2.722  11.503  17.699  0.00  0.00    +0.000 A 
ATOM     10  C   UNL     1      -3.333  13.635  22.499  0.00  0.00    +0.000 C 
ATOM     11  C   UNL     1      -4.345  13.487  23.634  0.00  0.00    +0.000 C 
ATOM     12  C   UNL     1      -5.726  13.846  23.133  0.00  0.00    +0.000 C 
ATOM     13  C   UNL     1      -6.127  12.863  22.046  0.00  0.00    +0.000 C 
ENDROOT
BRANCH   7  14
ATOM     14  C   UNL     1      -1.291  12.925  20.299  0.00  0.00    +0.000 A 
ATOM     15  C   UNL     1      -0.766  14.152  19.851  0.00  0.00    +0.000 A 
ATOM     16  C   UNL     1       0.611  14.417  19.831  0.00  0.00    +0.000 A 
ATOM     17  C   UNL     1       1.490  13.519  20.415  0.00  0.00    +0.000 A 
ATOM     18 CL   UNL     1       3.170  13.876  20.476  0.00  0.00    +0.000 Cl
ATOM     19  C   UNL     1       1.005  12.337  20.960  0.00  0.00    +0.000 A 
ATOM     20  C   UNL     1      -0.357  12.019  20.836  0.00  0.00    +0.000 A 
ENDBRANCH   7  14
BRANCH   1  22
ATOM     21  N   UNL     1      -4.592  10.292  14.698  0.00  0.00    +0.000 N 
ATOM     22  C   UNL     1      -3.482  10.605  15.426  0.00  0.00    +0.000 C 
ATOM     23  O   UNL     1      -2.373  10.476  14.894  0.00  0.00    +0.000 OA
ATOM     24  H   UNL     1      -4.465   9.945  13.759  0.00  0.00    +0.000 HD
ATOM     25  H   UNL     1      -5.526  10.369  15.086  0.00  0.00    +0.000 HD
ENDBRANCH   1  22
BRANCH   9  26
ATOM     26  N   UNL     1      -1.403  11.445  17.379  0.00  0.00    +0.000 N 
ATOM     27  H   UNL     1      -1.074  11.577  16.429  0.00  0.00    +0.000 HD
ATOM     28  H   UNL     1      -0.701  11.692  18.081  0.00  0.00    +0.000 HD
ENDBRANCH   9  26
TORSDOF 3
ENDMDL
