MODEL 1
REMARK VINA RESULT:      -8.0      0.000      0.000
REMARK  Name = 
REMARK  4 active torsions:
REMARK  status: ('A' for Active; 'I' for Inactive)
REMARK    1  A    between atoms: C_2  and  C_16
REMARK    2  A    between atoms: N_3  and  O_4
REMARK    3  A    between atoms: O_4  and  C_5
REMARK    4  A    between atoms: C_5  and  C_7
REMARK                            x       y       z     vdW  Elec       q    Type
REMARK                         _______ _______ _______ _____ _____    ______ ____
ROOT
ATOM      1  N   UNL     1       6.689   4.189  16.863  0.00  0.00    +0.000 NA
ATOM      2  C   UNL     1       6.349   5.049  15.951  0.00  0.00    +0.000 C 
ATOM      3  N   UNL     1       5.721   6.231  16.273  0.00  0.00    +0.000 N 
ATOM      4  H   UNL     1       6.390   4.580  17.762  0.00  0.00    +0.000 HD
ATOM      5  H   UNL     1       4.983   6.565  15.647  0.00  0.00    +0.000 HD
ENDROOT
BRANCH   2   6
ATOM      6  C   UNL     1       6.688   4.749  14.519  0.00  0.00    +0.000 A 
ATOM      7  C   UNL     1       7.675   5.508  13.872  0.00  0.00    +0.000 A 
ATOM      8  C   UNL     1       7.969   5.289  12.524  0.00  0.00    +0.000 A 
ATOM      9  C   UNL     1       7.283   4.308  11.811  0.00  0.00    +0.000 A 
ATOM     10  C   UNL     1       6.305   3.549  12.453  0.00  0.00    +0.000 A 
ATOM     11 BR   UNL     1       5.361   2.228  11.483  0.00  0.00    +0.000 Br
ATOM     12  C   UNL     1       6.001   3.762  13.800  0.00  0.00    +0.000 A 
ENDBRANCH   2   6
BRANCH   3  13
ATOM     13  O   UNL     1       5.379   6.355  17.630  0.00  0.00    +0.000 OA
BRANCH  13  14
ATOM     14  C   UNL     1       4.046   6.591  17.795  0.00  0.00    +0.000 C 
ATOM     15  O   UNL     1       3.488   7.641  17.509  0.00  0.00    +0.000 OA
BRANCH  14  16
ATOM     16  C   UNL     1       3.362   5.397  18.361  0.00  0.00    +0.000 A 
ATOM     17  C   UNL     1       2.895   4.339  17.546  0.00  0.00    +0.000 A 
ATOM     18  C   UNL     1       2.251   3.234  18.112  0.00  0.00    +0.000 A 
ATOM     19  C   UNL     1       2.089   3.216  19.480  0.00  0.00    +0.000 A 
ATOM     20  C   UNL     1       2.547   4.238  20.277  0.00  0.00    +0.000 A 
ATOM     21  C   UNL     1       3.191   5.339  19.753  0.00  0.00    +0.000 A 
ATOM     22  O   UNL     1       2.286   4.022  21.594  0.00  0.00    +0.000 OA
ATOM     23  C   UNL     1       1.570   2.771  21.530  0.00  0.00    +0.000 C 
ATOM     24  O   UNL     1       1.480   2.233  20.194  0.00  0.00    +0.000 OA
ENDBRANCH  14  16
ENDBRANCH  13  14
ENDBRANCH   3  13
TORSDOF 4
ENDMDL
MODEL 2
REMARK VINA RESULT:      -7.7      0.901      1.567
REMARK  Name = 
REMARK  4 active torsions:
REMARK  status: ('A' for Active; 'I' for Inactive)
REMARK    1  A    between atoms: C_2  and  C_16
REMARK    2  A    between atoms: N_3  and  O_4
REMARK    3  A    between atoms: O_4  and  C_5
REMARK    4  A    between atoms: C_5  and  C_7
REMARK                            x       y       z     vdW  Elec       q    Type
REMARK                         _______ _______ _______ _____ _____    ______ ____
ROOT
ATOM      1  N   UNL     1       5.926   3.949  16.754  0.00  0.00    +0.000 NA
ATOM      2  C   UNL     1       6.041   4.948  15.932  0.00  0.00    +0.000 C 
ATOM      3  N   UNL     1       5.798   6.243  16.332  0.00  0.00    +0.000 N 
ATOM      4  H   UNL     1       5.632   4.341  17.654  0.00  0.00    +0.000 HD
ATOM      5  H   UNL     1       5.324   6.864  15.671  0.00  0.00    +0.000 HD
ENDROOT
BRANCH   2   6
ATOM      6  C   UNL     1       6.488   4.672  14.525  0.00  0.00    +0.000 A 
ATOM      7  C   UNL     1       7.503   5.457  13.958  0.00  0.00    +0.000 A 
ATOM      8  C   UNL     1       7.896   5.261  12.632  0.00  0.00    +0.000 A 
ATOM      9  C   UNL     1       7.283   4.275  11.862  0.00  0.00    +0.000 A 
ATOM     10  C   UNL     1       6.277   3.490  12.424  0.00  0.00    +0.000 A 
ATOM     11 BR   UNL     1       5.431   2.163  11.374  0.00  0.00    +0.000 Br
ATOM     12  C   UNL     1       5.874   3.681  13.748  0.00  0.00    +0.000 A 
ENDBRANCH   2   6
BRANCH   3  13
ATOM     13  O   UNL     1       5.303   6.361  17.641  0.00  0.00    +0.000 OA
BRANCH  13  14
ATOM     14  C   UNL     1       4.020   6.825  17.656  0.00  0.00    +0.000 C 
ATOM     15  O   UNL     1       3.653   7.866  17.131  0.00  0.00    +0.000 OA
BRANCH  14  16
ATOM     16  C   UNL     1       3.126   5.887  18.387  0.00  0.00    +0.000 A 
ATOM     17  C   UNL     1       2.726   6.114  19.724  0.00  0.00    +0.000 A 
ATOM     18  C   UNL     1       1.889   5.208  20.383  0.00  0.00    +0.000 A 
ATOM     19  C   UNL     1       1.474   4.094  19.687  0.00  0.00    +0.000 A 
ATOM     20  C   UNL     1       1.853   3.872  18.384  0.00  0.00    +0.000 A 
ATOM     21  C   UNL     1       2.673   4.748  17.703  0.00  0.00    +0.000 A 
ATOM     22  O   UNL     1       1.334   2.719  17.885  0.00  0.00    +0.000 OA
ATOM     23  C   UNL     1       0.622   2.218  19.036  0.00  0.00    +0.000 C 
ATOM     24  O   UNL     1       0.672   3.108  20.170  0.00  0.00    +0.000 OA
ENDBRANCH  14  16
ENDBRANCH  13  14
ENDBRANCH   3  13
TORSDOF 4
ENDMDL
MODEL 3
REMARK VINA RESULT:      -7.7      4.392      7.711
REMARK  Name = 
REMARK  4 active torsions:
REMARK  status: ('A' for Active; 'I' for Inactive)
REMARK    1  A    between atoms: C_2  and  C_16
REMARK    2  A    between atoms: N_3  and  O_4
REMARK    3  A    between atoms: O_4  and  C_5
REMARK    4  A    between atoms: C_5  and  C_7
REMARK                            x       y       z     vdW  Elec       q    Type
REMARK                         _______ _______ _______ _____ _____    ______ ____
ROOT
ATOM      1  N   UNL     1       1.993   5.141  19.545  0.00  0.00    +0.000 NA
ATOM      2  C   UNL     1       2.666   6.244  19.670  0.00  0.00    +0.000 C 
ATOM      3  N   UNL     1       4.043   6.255  19.647  0.00  0.00    +0.000 N 
ATOM      4  H   UNL     1       2.679   4.386  19.449  0.00  0.00    +0.000 HD
ATOM      5  H   UNL     1       4.524   6.894  20.285  0.00  0.00    +0.000 HD
ENDROOT
BRANCH   2   6
ATOM      6  C   UNL     1       1.910   7.535  19.805  0.00  0.00    +0.000 A 
ATOM      7  C   UNL     1       1.867   8.424  18.720  0.00  0.00    +0.000 A 
ATOM      8  C   UNL     1       1.222   9.657  18.838  0.00  0.00    +0.000 A 
ATOM      9  C   UNL     1       0.609  10.012  20.038  0.00  0.00    +0.000 A 
ATOM     10  C   UNL     1       0.646   9.128  21.117  0.00  0.00    +0.000 A 
ATOM     11 BR   UNL     1      -0.169   9.615  22.752  0.00  0.00    +0.000 Br
ATOM     12  C   UNL     1       1.293   7.894  21.010  0.00  0.00    +0.000 A 
ENDBRANCH   2   6
BRANCH   3  13
ATOM     13  O   UNL     1       4.632   4.981  19.605  0.00  0.00    +0.000 OA
BRANCH  13  14
ATOM     14  C   UNL     1       5.902   5.027  19.109  0.00  0.00    +0.000 C 
ATOM     15  O   UNL     1       6.899   5.257  19.778  0.00  0.00    +0.000 OA
BRANCH  14  16
ATOM     16  C   UNL     1       5.910   4.750  17.648  0.00  0.00    +0.000 A 
ATOM     17  C   UNL     1       4.918   3.959  17.024  0.00  0.00    +0.000 A 
ATOM     18  C   UNL     1       4.961   3.714  15.648  0.00  0.00    +0.000 A 
ATOM     19  C   UNL     1       5.997   4.268  14.929  0.00  0.00    +0.000 A 
ATOM     20  C   UNL     1       6.960   5.045  15.529  0.00  0.00    +0.000 A 
ATOM     21  C   UNL     1       6.945   5.310  16.882  0.00  0.00    +0.000 A 
ATOM     22  O   UNL     1       7.889   5.491  14.642  0.00  0.00    +0.000 OA
ATOM     23  C   UNL     1       7.427   4.870  13.424  0.00  0.00    +0.000 C 
ATOM     24  O   UNL     1       6.202   4.127  13.593  0.00  0.00    +0.000 OA
ENDBRANCH  14  16
ENDBRANCH  13  14
ENDBRANCH   3  13
TORSDOF 4
ENDMDL
MODEL 4
REMARK VINA RESULT:      -7.6      4.166      7.452
REMARK  Name = 
REMARK  4 active torsions:
REMARK  status: ('A' for Active; 'I' for Inactive)
REMARK    1  A    between atoms: C_2  and  C_16
REMARK    2  A    between atoms: N_3  and  O_4
REMARK    3  A    between atoms: O_4  and  C_5
REMARK    4  A    between atoms: C_5  and  C_7
REMARK                            x       y       z     vdW  Elec       q    Type
REMARK                         _______ _______ _______ _____ _____    ______ ____
ROOT
ATOM      1  N   UNL     1       2.639   5.129  20.601  0.00  0.00    +0.000 NA
ATOM      2  C   UNL     1       2.569   5.691  19.433  0.00  0.00    +0.000 C 
ATOM      3  N   UNL     1       2.892   5.006  18.282  0.00  0.00    +0.000 N 
ATOM      4  H   UNL     1       2.968   4.170  20.448  0.00  0.00    +0.000 HD
ATOM      5  H   UNL     1       3.391   5.517  17.549  0.00  0.00    +0.000 HD
ENDROOT
BRANCH   2   6
ATOM      6  C   UNL     1       2.085   7.110  19.347  0.00  0.00    +0.000 A 
ATOM      7  C   UNL     1       2.262   7.827  18.154  0.00  0.00    +0.000 A 
ATOM      8  C   UNL     1       1.876   9.166  18.065  0.00  0.00    +0.000 A 
ATOM      9  C   UNL     1       1.305   9.801  19.167  0.00  0.00    +0.000 A 
ATOM     10  C   UNL     1       1.124   9.090  20.353  0.00  0.00    +0.000 A 
ATOM     11 BR   UNL     1       0.367   9.956  21.854  0.00  0.00    +0.000 Br
ATOM     12  C   UNL     1       1.511   7.751  20.452  0.00  0.00    +0.000 A 
ENDBRANCH   2   6
BRANCH   3  13
ATOM     13  O   UNL     1       3.413   3.720  18.501  0.00  0.00    +0.000 OA
BRANCH  13  14
ATOM     14  C   UNL     1       4.738   3.760  18.821  0.00  0.00    +0.000 C 
ATOM     15  O   UNL     1       5.204   3.401  19.892  0.00  0.00    +0.000 OA
BRANCH  14  16
ATOM     16  C   UNL     1       5.541   4.290  17.685  0.00  0.00    +0.000 A 
ATOM     17  C   UNL     1       6.425   5.384  17.833  0.00  0.00    +0.000 A 
ATOM     18  C   UNL     1       7.160   5.859  16.742  0.00  0.00    +0.000 A 
ATOM     19  C   UNL     1       6.991   5.228  15.529  0.00  0.00    +0.000 A 
ATOM     20  C   UNL     1       6.138   4.160  15.382  0.00  0.00    +0.000 A 
ATOM     21  C   UNL     1       5.403   3.662  16.438  0.00  0.00    +0.000 A 
ATOM     22  O   UNL     1       6.120   3.686  14.108  0.00  0.00    +0.000 OA
ATOM     23  C   UNL     1       7.023   4.607  13.460  0.00  0.00    +0.000 C 
ATOM     24  O   UNL     1       7.611   5.561  14.367  0.00  0.00    +0.000 OA
ENDBRANCH  14  16
ENDBRANCH  13  14
ENDBRANCH   3  13
TORSDOF 4
ENDMDL
MODEL 5
REMARK VINA RESULT:      -7.5      5.147      6.070
REMARK  Name = 
REMARK  4 active torsions:
REMARK  status: ('A' for Active; 'I' for Inactive)
REMARK    1  A    between atoms: C_2  and  C_16
REMARK    2  A    between atoms: N_3  and  O_4
REMARK    3  A    between atoms: O_4  and  C_5
REMARK    4  A    between atoms: C_5  and  C_7
REMARK                            x       y       z     vdW  Elec       q    Type
REMARK                         _______ _______ _______ _____ _____    ______ ____
ROOT
ATOM      1  N   UNL     1       8.585   7.616  18.972  0.00  0.00    +0.000 NA
ATOM      2  C   UNL     1       8.189   8.475  18.082  0.00  0.00    +0.000 C 
ATOM      3  N   UNL     1       7.377   8.104  17.034  0.00  0.00    +0.000 N 
ATOM      4  H   UNL     1       8.187   6.710  18.705  0.00  0.00    +0.000 HD
ATOM      5  H   UNL     1       7.554   8.531  16.121  0.00  0.00    +0.000 HD
ENDROOT
BRANCH   2   6
ATOM      6  C   UNL     1       8.604   9.910  18.235  0.00  0.00    +0.000 A 
ATOM      7  C   UNL     1       7.927  10.904  17.511  0.00  0.00    +0.000 A 
ATOM      8  C   UNL     1       8.331  12.239  17.589  0.00  0.00    +0.000 A 
ATOM      9  C   UNL     1       9.411  12.594  18.394  0.00  0.00    +0.000 A 
ATOM     10  C   UNL     1      10.083  11.610  19.118  0.00  0.00    +0.000 A 
ATOM     11 BR   UNL     1      11.560  12.089  20.197  0.00  0.00    +0.000 Br
ATOM     12  C   UNL     1       9.689  10.271  19.044  0.00  0.00    +0.000 A 
ENDBRANCH   2   6
BRANCH   3  13
ATOM     13  O   UNL     1       7.132   6.724  16.951  0.00  0.00    +0.000 OA
BRANCH  13  14
ATOM     14  C   UNL     1       5.855   6.460  16.548  0.00  0.00    +0.000 C 
ATOM     15  O   UNL     1       5.403   6.747  15.449  0.00  0.00    +0.000 OA
BRANCH  14  16
ATOM     16  C   UNL     1       5.092   5.769  17.622  0.00  0.00    +0.000 A 
ATOM     17  C   UNL     1       5.481   4.509  18.132  0.00  0.00    +0.000 A 
ATOM     18  C   UNL     1       4.736   3.885  19.138  0.00  0.00    +0.000 A 
ATOM     19  C   UNL     1       3.618   4.539  19.608  0.00  0.00    +0.000 A 
ATOM     20  C   UNL     1       3.240   5.768  19.121  0.00  0.00    +0.000 A 
ATOM     21  C   UNL     1       3.954   6.413  18.133  0.00  0.00    +0.000 A 
ATOM     22  O   UNL     1       2.112   6.235  19.720  0.00  0.00    +0.000 OA
ATOM     23  C   UNL     1       1.798   5.140  20.606  0.00  0.00    +0.000 C 
ATOM     24  O   UNL     1       2.775   4.080  20.570  0.00  0.00    +0.000 OA
ENDBRANCH  14  16
ENDBRANCH  13  14
ENDBRANCH   3  13
TORSDOF 4
ENDMDL
MODEL 6
REMARK VINA RESULT:      -7.4      5.948      6.842
REMARK  Name = 
REMARK  4 active torsions:
REMARK  status: ('A' for Active; 'I' for Inactive)
REMARK    1  A    between atoms: C_2  and  C_16
REMARK    2  A    between atoms: N_3  and  O_4
REMARK    3  A    between atoms: O_4  and  C_5
REMARK    4  A    between atoms: C_5  and  C_7
REMARK                            x       y       z     vdW  Elec       q    Type
REMARK                         _______ _______ _______ _____ _____    ______ ____
ROOT
ATOM      1  N   UNL     1       9.202   9.588  19.826  0.00  0.00    +0.000 NA
ATOM      2  C   UNL     1       8.919   9.966  18.616  0.00  0.00    +0.000 C 
ATOM      3  N   UNL     1       8.162   9.183  17.774  0.00  0.00    +0.000 N 
ATOM      4  H   UNL     1       8.771   8.666  19.955  0.00  0.00    +0.000 HD
ATOM      5  H   UNL     1       8.427   9.153  16.786  0.00  0.00    +0.000 HD
ENDROOT
BRANCH   2   6
ATOM      6  C   UNL     1       9.406  11.309  18.153  0.00  0.00    +0.000 A 
ATOM      7  C   UNL     1      10.719  11.439  17.676  0.00  0.00    +0.000 A 
ATOM      8  C   UNL     1      11.217  12.687  17.295  0.00  0.00    +0.000 A 
ATOM      9  C   UNL     1      10.406  13.817  17.381  0.00  0.00    +0.000 A 
ATOM     10  C   UNL     1       9.098  13.690  17.851  0.00  0.00    +0.000 A 
ATOM     11 BR   UNL     1       8.002  15.225  17.985  0.00  0.00    +0.000 Br
ATOM     12  C   UNL     1       8.593  12.447  18.238  0.00  0.00    +0.000 A 
ENDBRANCH   2   6
BRANCH   3  13
ATOM     13  O   UNL     1       7.843   7.917  18.291  0.00  0.00    +0.000 OA
BRANCH  13  14
ATOM     14  C   UNL     1       7.421   7.064  17.314  0.00  0.00    +0.000 C 
ATOM     15  O   UNL     1       7.976   6.918  16.234  0.00  0.00    +0.000 OA
BRANCH  14  16
ATOM     16  C   UNL     1       6.200   6.329  17.743  0.00  0.00    +0.000 A 
ATOM     17  C   UNL     1       4.898   6.781  17.427  0.00  0.00    +0.000 A 
ATOM     18  C   UNL     1       3.772   6.067  17.852  0.00  0.00    +0.000 A 
ATOM     19  C   UNL     1       3.979   4.919  18.585  0.00  0.00    +0.000 A 
ATOM     20  C   UNL     1       5.243   4.472  18.889  0.00  0.00    +0.000 A 
ATOM     21  C   UNL     1       6.374   5.148  18.481  0.00  0.00    +0.000 A 
ATOM     22  O   UNL     1       5.223   3.324  19.617  0.00  0.00    +0.000 OA
ATOM     23  C   UNL     1       3.803   3.125  19.776  0.00  0.00    +0.000 C 
ATOM     24  O   UNL     1       3.008   4.111  19.087  0.00  0.00    +0.000 OA
ENDBRANCH  14  16
ENDBRANCH  13  14
ENDBRANCH   3  13
TORSDOF 4
ENDMDL
MODEL 7
REMARK VINA RESULT:      -7.4      4.474      5.753
REMARK  Name = 
REMARK  4 active torsions:
REMARK  status: ('A' for Active; 'I' for Inactive)
REMARK    1  A    between atoms: C_2  and  C_16
REMARK    2  A    between atoms: N_3  and  O_4
REMARK    3  A    between atoms: O_4  and  C_5
REMARK    4  A    between atoms: C_5  and  C_7
REMARK                            x       y       z     vdW  Elec       q    Type
REMARK                         _______ _______ _______ _____ _____    ______ ____
ROOT
ATOM      1  N   UNL     1       3.584   5.584  19.869  0.00  0.00    +0.000 NA
ATOM      2  C   UNL     1       3.889   6.009  18.680  0.00  0.00    +0.000 C 
ATOM      3  N   UNL     1       3.144   6.978  18.048  0.00  0.00    +0.000 N 
ATOM      4  H   UNL     1       2.744   6.094  20.158  0.00  0.00    +0.000 HD
ATOM      5  H   UNL     1       2.991   6.880  17.041  0.00  0.00    +0.000 HD
ENDROOT
BRANCH   2   6
ATOM      6  C   UNL     1       5.109   5.446  18.008  0.00  0.00    +0.000 A 
ATOM      7  C   UNL     1       6.317   5.377  18.718  0.00  0.00    +0.000 A 
ATOM      8  C   UNL     1       7.480   4.914  18.099  0.00  0.00    +0.000 A 
ATOM      9  C   UNL     1       7.446   4.511  16.765  0.00  0.00    +0.000 A 
ATOM     10  C   UNL     1       6.245   4.575  16.058  0.00  0.00    +0.000 A 
ATOM     11 BR   UNL     1       6.202   4.045  14.243  0.00  0.00    +0.000 Br
ATOM     12  C   UNL     1       5.078   5.040  16.667  0.00  0.00    +0.000 A 
ENDBRANCH   2   6
BRANCH   3  13
ATOM     13  O   UNL     1       1.982   7.359  18.740  0.00  0.00    +0.000 OA
BRANCH  13  14
ATOM     14  C   UNL     1       1.734   8.694  18.613  0.00  0.00    +0.000 C 
ATOM     15  O   UNL     1       1.942   9.345  17.599  0.00  0.00    +0.000 OA
BRANCH  14  16
ATOM     16  C   UNL     1       1.165   9.249  19.871  0.00  0.00    +0.000 A 
ATOM     17  C   UNL     1       1.171   8.524  21.085  0.00  0.00    +0.000 A 
ATOM     18  C   UNL     1       0.622   9.076  22.248  0.00  0.00    +0.000 A 
ATOM     19  C   UNL     1       0.080  10.339  22.166  0.00  0.00    +0.000 A 
ATOM     20  C   UNL     1       0.078  11.051  20.989  0.00  0.00    +0.000 A 
ATOM     21  C   UNL     1       0.615  10.540  19.826  0.00  0.00    +0.000 A 
ATOM     22  O   UNL     1      -0.504  12.272  21.126  0.00  0.00    +0.000 OA
ATOM     23  C   UNL     1      -0.909  12.229  22.511  0.00  0.00    +0.000 C 
ATOM     24  O   UNL     1      -0.503  11.021  23.187  0.00  0.00    +0.000 OA
ENDBRANCH  14  16
ENDBRANCH  13  14
ENDBRANCH   3  13
TORSDOF 4
ENDMDL
MODEL 8
REMARK VINA RESULT:      -7.3      1.478      2.097
REMARK  Name = 
REMARK  4 active torsions:
REMARK  status: ('A' for Active; 'I' for Inactive)
REMARK    1  A    between atoms: C_2  and  C_16
REMARK    2  A    between atoms: N_3  and  O_4
REMARK    3  A    between atoms: O_4  and  C_5
REMARK    4  A    between atoms: C_5  and  C_7
REMARK                            x       y       z     vdW  Elec       q    Type
REMARK                         _______ _______ _______ _____ _____    ______ ____
ROOT
ATOM      1  N   UNL     1       4.905   6.423  15.889  0.00  0.00    +0.000 NA
ATOM      2  C   UNL     1       5.971   5.686  15.806  0.00  0.00    +0.000 C 
ATOM      3  N   UNL     1       6.772   5.450  16.901  0.00  0.00    +0.000 N 
ATOM      4  H   UNL     1       4.843   6.743  16.861  0.00  0.00    +0.000 HD
ATOM      5  H   UNL     1       7.784   5.427  16.754  0.00  0.00    +0.000 HD
ENDROOT
BRANCH   2   6
ATOM      6  C   UNL     1       6.304   5.052  14.486  0.00  0.00    +0.000 A 
ATOM      7  C   UNL     1       7.576   5.251  13.927  0.00  0.00    +0.000 A 
ATOM      8  C   UNL     1       7.892   4.723  12.674  0.00  0.00    +0.000 A 
ATOM      9  C   UNL     1       6.943   3.987  11.968  0.00  0.00    +0.000 A 
ATOM     10  C   UNL     1       5.679   3.784  12.522  0.00  0.00    +0.000 A 
ATOM     11 BR   UNL     1       4.383   2.800  11.558  0.00  0.00    +0.000 Br
ATOM     12  C   UNL     1       5.352   4.311  13.774  0.00  0.00    +0.000 A 
ENDBRANCH   2   6
BRANCH   3  13
ATOM     13  O   UNL     1       6.406   6.168  18.052  0.00  0.00    +0.000 OA
BRANCH  13  14
ATOM     14  C   UNL     1       6.196   5.341  19.116  0.00  0.00    +0.000 C 
ATOM     15  O   UNL     1       7.052   5.031  19.932  0.00  0.00    +0.000 OA
BRANCH  14  16
ATOM     16  C   UNL     1       4.782   4.878  19.157  0.00  0.00    +0.000 A 
ATOM     17  C   UNL     1       3.705   5.764  19.392  0.00  0.00    +0.000 A 
ATOM     18  C   UNL     1       2.389   5.292  19.430  0.00  0.00    +0.000 A 
ATOM     19  C   UNL     1       2.184   3.944  19.232  0.00  0.00    +0.000 A 
ATOM     20  C   UNL     1       3.227   3.080  18.996  0.00  0.00    +0.000 A 
ATOM     21  C   UNL     1       4.536   3.512  18.947  0.00  0.00    +0.000 A 
ATOM     22  O   UNL     1       2.807   1.798  18.828  0.00  0.00    +0.000 OA
ATOM     23  C   UNL     1       1.386   1.946  19.031  0.00  0.00    +0.000 C 
ATOM     24  O   UNL     1       0.980   3.313  19.246  0.00  0.00    +0.000 OA
ENDBRANCH  14  16
ENDBRANCH  13  14
ENDBRANCH   3  13
TORSDOF 4
ENDMDL
MODEL 9
REMARK VINA RESULT:      -7.3      4.505      7.485
REMARK  Name = 
REMARK  4 active torsions:
REMARK  status: ('A' for Active; 'I' for Inactive)
REMARK    1  A    between atoms: C_2  and  C_16
REMARK    2  A    between atoms: N_3  and  O_4
REMARK    3  A    between atoms: O_4  and  C_5
REMARK    4  A    between atoms: C_5  and  C_7
REMARK                            x       y       z     vdW  Elec       q    Type
REMARK                         _______ _______ _______ _____ _____    ______ ____
ROOT
ATOM      1  N   UNL     1       2.453   5.280  21.293  0.00  0.00    +0.000 NA
ATOM      2  C   UNL     1       1.932   5.802  20.224  0.00  0.00    +0.000 C 
ATOM      3  N   UNL     1       1.737   5.061  19.081  0.00  0.00    +0.000 N 
ATOM      4  H   UNL     1       2.659   4.301  21.072  0.00  0.00    +0.000 HD
ATOM      5  H   UNL     1       1.911   5.517  18.182  0.00  0.00    +0.000 HD
ENDROOT
BRANCH   2   6
ATOM      6  C   UNL     1       1.503   7.241  20.264  0.00  0.00    +0.000 A 
ATOM      7  C   UNL     1       1.800   8.079  19.179  0.00  0.00    +0.000 A 
ATOM      8  C   UNL     1       1.465   9.434  19.215  0.00  0.00    +0.000 A 
ATOM      9  C   UNL     1       0.826   9.965  20.334  0.00  0.00    +0.000 A 
ATOM     10  C   UNL     1       0.526   9.133  21.413  0.00  0.00    +0.000 A 
ATOM     11 BR   UNL     1      -0.325   9.856  22.940  0.00  0.00    +0.000 Br
ATOM     12  C   UNL     1       0.860   7.777  21.388  0.00  0.00    +0.000 A 
ENDBRANCH   2   6
BRANCH   3  13
ATOM     13  O   UNL     1       2.259   3.758  19.140  0.00  0.00    +0.000 OA
BRANCH  13  14
ATOM     14  C   UNL     1       2.844   3.394  17.962  0.00  0.00    +0.000 C 
ATOM     15  O   UNL     1       2.348   2.625  17.151  0.00  0.00    +0.000 OA
BRANCH  14  16
ATOM     16  C   UNL     1       4.159   4.068  17.793  0.00  0.00    +0.000 A 
ATOM     17  C   UNL     1       4.672   4.413  16.520  0.00  0.00    +0.000 A 
ATOM     18  C   UNL     1       5.916   5.041  16.399  0.00  0.00    +0.000 A 
ATOM     19  C   UNL     1       6.617   5.307  17.554  0.00  0.00    +0.000 A 
ATOM     20  C   UNL     1       6.120   4.980  18.794  0.00  0.00    +0.000 A 
ATOM     21  C   UNL     1       4.895   4.366  18.951  0.00  0.00    +0.000 A 
ATOM     22  O   UNL     1       6.968   5.329  19.798  0.00  0.00    +0.000 OA
ATOM     23  C   UNL     1       8.075   5.870  19.046  0.00  0.00    +0.000 C 
ATOM     24  O   UNL     1       7.839   5.898  17.624  0.00  0.00    +0.000 OA
ENDBRANCH  14  16
ENDBRANCH  13  14
ENDBRANCH   3  13
TORSDOF 4
ENDMDL
