MODEL 1
REMARK VINA RESULT:      -8.3      0.000      0.000
REMARK  Name = 
REMARK  7 active torsions:
REMARK  status: ('A' for Active; 'I' for Inactive)
REMARK    1  A    between atoms: C_1  and  C_2
REMARK    2  A    between atoms: C_2  and  C_3
REMARK    3  A    between atoms: C_2  and  N_4
REMARK    4  A    between atoms: N_7  and  S_8
REMARK    5  A    between atoms: S_8  and  C_11
REMARK    6  A    between atoms: C_16  and  N_17
REMARK    7  A    between atoms: N_17  and  C_18
REMARK                            x       y       z     vdW  Elec       q    Type
REMARK                         _______ _______ _______ _____ _____    ______ ____
ROOT
ATOM      1  C   UNL     1       5.198   5.761  17.377  0.00  0.00    +0.000 A 
ATOM      2  C   UNL     1       5.244   7.154  17.207  0.00  0.00    +0.000 A 
ATOM      3  N   UNL     1       4.187   7.983  17.315  0.00  0.00    +0.000 NA
ATOM      4  C   UNL     1       3.023   7.391  17.596  0.00  0.00    +0.000 A 
ATOM      5  C   UNL     1       2.872   6.019  17.761  0.00  0.00    +0.000 A 
ATOM      6  C   UNL     1       3.965   5.135  17.699  0.00  0.00    +0.000 A 
ENDROOT
BRANCH   1   7
ATOM      7  S   UNL     1       6.779   4.994  17.151  0.00  0.00    +0.000 S 
ATOM      8  O   UNL     1       7.148   4.306  18.374  0.00  0.00    +0.000 OA
ATOM      9  O   UNL     1       7.687   5.977  16.580  0.00  0.00    +0.000 OA
BRANCH   7  13
ATOM     10  N   UNL     1       6.072   3.262  13.758  0.00  0.00    +0.000 N 
ATOM     11  C   UNL     1       6.381   4.293  14.585  0.00  0.00    +0.000 C 
ATOM     12  O   UNL     1       6.517   5.449  14.199  0.00  0.00    +0.000 OA
ATOM     13  N   UNL     1       6.586   3.916  15.896  0.00  0.00    +0.000 N 
ATOM     14  H   UNL     1       6.147   2.324  14.116  0.00  0.00    +0.000 HD
ATOM     15  H   UNL     1       6.323   2.993  16.218  0.00  0.00    +0.000 HD
BRANCH  10  17
ATOM     16  C   UNL     1       6.988   2.451  11.641  0.00  0.00    +0.000 C 
ATOM     17  C   UNL     1       6.066   3.464  12.315  0.00  0.00    +0.000 C 
ATOM     18  C   UNL     1       4.649   3.372  11.766  0.00  0.00    +0.000 C 
ENDBRANCH  10  17
ENDBRANCH   7  13
ENDBRANCH   1   7
BRANCH   6  19
ATOM     19  N   UNL     1       3.797   3.800  18.083  0.00  0.00    +0.000 N 
ATOM     20  H   UNL     1       3.368   3.204  17.363  0.00  0.00    +0.000 HD
BRANCH  19  21
ATOM     21  C   UNL     1       3.533   3.251  19.452  0.00  0.00    +0.000 C 
ATOM     22  C   UNL     1       2.731   1.926  19.495  0.00  0.00    +0.000 C 
ATOM     23  C   UNL     1       1.363   2.307  20.089  0.00  0.00    +0.000 C 
ATOM     24  C   UNL     1       1.505   2.490  21.601  0.00  0.00    +0.000 C 
ATOM     25  C   UNL     1       2.326   3.782  21.689  0.00  0.00    +0.000 C 
ATOM     26  C   UNL     1       2.534   4.194  20.205  0.00  0.00    +0.000 C 
ATOM     27  C   UNL     1       1.197   3.746  19.609  0.00  0.00    +0.000 C 
ENDBRANCH  19  21
ENDBRANCH   6  19
TORSDOF 5
ENDMDL
MODEL 2
REMARK VINA RESULT:      -7.9      1.450      1.875
REMARK  Name = 
REMARK  7 active torsions:
REMARK  status: ('A' for Active; 'I' for Inactive)
REMARK    1  A    between atoms: C_1  and  C_2
REMARK    2  A    between atoms: C_2  and  C_3
REMARK    3  A    between atoms: C_2  and  N_4
REMARK    4  A    between atoms: N_7  and  S_8
REMARK    5  A    between atoms: S_8  and  C_11
REMARK    6  A    between atoms: C_16  and  N_17
REMARK    7  A    between atoms: N_17  and  C_18
REMARK                            x       y       z     vdW  Elec       q    Type
REMARK                         _______ _______ _______ _____ _____    ______ ____
ROOT
ATOM      1  C   UNL     1       4.155   6.824  17.901  0.00  0.00    +0.000 A 
ATOM      2  C   UNL     1       3.860   7.991  17.178  0.00  0.00    +0.000 A 
ATOM      3  N   UNL     1       2.804   8.796  17.404  0.00  0.00    +0.000 NA
ATOM      4  C   UNL     1       1.993   8.412  18.394  0.00  0.00    +0.000 A 
ATOM      5  C   UNL     1       2.188   7.263  19.152  0.00  0.00    +0.000 A 
ATOM      6  C   UNL     1       3.306   6.429  18.969  0.00  0.00    +0.000 A 
ENDROOT
BRANCH   1   7
ATOM      7  S   UNL     1       5.619   6.014  17.321  0.00  0.00    +0.000 S 
ATOM      8  O   UNL     1       6.015   5.006  18.287  0.00  0.00    +0.000 OA
ATOM      9  O   UNL     1       6.575   7.032  16.914  0.00  0.00    +0.000 OA
BRANCH   7  13
ATOM     10  N   UNL     1       5.587   4.427  13.786  0.00  0.00    +0.000 N 
ATOM     11  C   UNL     1       6.120   4.781  14.983  0.00  0.00    +0.000 C 
ATOM     12  O   UNL     1       7.297   4.600  15.277  0.00  0.00    +0.000 OA
ATOM     13  N   UNL     1       5.205   5.315  15.867  0.00  0.00    +0.000 N 
ATOM     14  H   UNL     1       4.586   4.449  13.684  0.00  0.00    +0.000 HD
ATOM     15  H   UNL     1       4.283   5.593  15.553  0.00  0.00    +0.000 HD
BRANCH  10  17
ATOM     16  C   UNL     1       5.444   2.811  11.956  0.00  0.00    +0.000 C 
ATOM     17  C   UNL     1       6.371   3.633  12.847  0.00  0.00    +0.000 C 
ATOM     18  C   UNL     1       7.283   4.528  12.020  0.00  0.00    +0.000 C 
ENDBRANCH  10  17
ENDBRANCH   7  13
ENDBRANCH   1   7
BRANCH   6  19
ATOM     19  N   UNL     1       3.569   5.412  19.894  0.00  0.00    +0.000 N 
ATOM     20  H   UNL     1       4.566   5.291  20.116  0.00  0.00    +0.000 HD
BRANCH  19  21
ATOM     21  C   UNL     1       2.819   4.133  20.109  0.00  0.00    +0.000 C 
ATOM     22  C   UNL     1       3.648   2.836  19.930  0.00  0.00    +0.000 C 
ATOM     23  C   UNL     1       3.100   2.186  18.646  0.00  0.00    +0.000 C 
ATOM     24  C   UNL     1       1.763   1.512  18.956  0.00  0.00    +0.000 C 
ATOM     25  C   UNL     1       0.845   2.720  19.188  0.00  0.00    +0.000 C 
ATOM     26  C   UNL     1       1.773   3.944  18.958  0.00  0.00    +0.000 C 
ATOM     27  C   UNL     1       2.664   3.403  17.835  0.00  0.00    +0.000 C 
ENDBRANCH  19  21
ENDBRANCH   6  19
TORSDOF 5
ENDMDL
MODEL 3
REMARK VINA RESULT:      -7.8      6.116      9.017
REMARK  Name = 
REMARK  7 active torsions:
REMARK  status: ('A' for Active; 'I' for Inactive)
REMARK    1  A    between atoms: C_1  and  C_2
REMARK    2  A    between atoms: C_2  and  C_3
REMARK    3  A    between atoms: C_2  and  N_4
REMARK    4  A    between atoms: N_7  and  S_8
REMARK    5  A    between atoms: S_8  and  C_11
REMARK    6  A    between atoms: C_16  and  N_17
REMARK    7  A    between atoms: N_17  and  C_18
REMARK                            x       y       z     vdW  Elec       q    Type
REMARK                         _______ _______ _______ _____ _____    ______ ____
ROOT
ATOM      1  C   UNL     1       1.310   8.640  20.125  0.00  0.00    +0.000 A 
ATOM      2  C   UNL     1       1.133   9.612  19.128  0.00  0.00    +0.000 A 
ATOM      3  N   UNL     1       1.644   9.547  17.883  0.00  0.00    +0.000 NA
ATOM      4  C   UNL     1       2.379   8.462  17.623  0.00  0.00    +0.000 A 
ATOM      5  C   UNL     1       2.630   7.456  18.550  0.00  0.00    +0.000 A 
ATOM      6  C   UNL     1       2.071   7.475  19.840  0.00  0.00    +0.000 A 
ENDROOT
BRANCH   1   7
ATOM      7  S   UNL     1       0.499   9.063  21.642  0.00  0.00    +0.000 S 
ATOM      8  O   UNL     1       1.503   9.322  22.658  0.00  0.00    +0.000 OA
ATOM      9  O   UNL     1      -0.540   8.078  21.896  0.00  0.00    +0.000 OA
BRANCH   7  13
ATOM     10  N   UNL     1      -1.875  12.124  21.763  0.00  0.00    +0.000 N 
ATOM     11  C   UNL     1      -1.082  11.147  22.272  0.00  0.00    +0.000 C 
ATOM     12  O   UNL     1      -0.952  10.942  23.475  0.00  0.00    +0.000 OA
ATOM     13  N   UNL     1      -0.385  10.437  21.316  0.00  0.00    +0.000 N 
ATOM     14  H   UNL     1      -1.796  12.340  20.784  0.00  0.00    +0.000 HD
ATOM     15  H   UNL     1      -0.621  10.521  20.334  0.00  0.00    +0.000 HD
BRANCH  10  17
ATOM     16  C   UNL     1      -2.295  14.512  22.084  0.00  0.00    +0.000 C 
ATOM     17  C   UNL     1      -2.479  13.108  22.653  0.00  0.00    +0.000 C 
ATOM     18  C   UNL     1      -3.951  12.793  22.882  0.00  0.00    +0.000 C 
ENDBRANCH  10  17
ENDBRANCH   7  13
ENDBRANCH   1   7
BRANCH   6  19
ATOM     19  N   UNL     1       2.176   6.343  20.656  0.00  0.00    +0.000 N 
ATOM     20  H   UNL     1       3.089   6.237  21.117  0.00  0.00    +0.000 HD
BRANCH  19  21
ATOM     21  C   UNL     1       1.509   5.011  20.491  0.00  0.00    +0.000 C 
ATOM     22  C   UNL     1       2.044   3.879  21.403  0.00  0.00    +0.000 C 
ATOM     23  C   UNL     1       2.768   2.909  20.451  0.00  0.00    +0.000 C 
ATOM     24  C   UNL     1       1.730   2.072  19.703  0.00  0.00    +0.000 C 
ATOM     25  C   UNL     1       1.097   3.111  18.770  0.00  0.00    +0.000 C 
ATOM     26  C   UNL     1       1.872   4.419  19.087  0.00  0.00    +0.000 C 
ATOM     27  C   UNL     1       3.268   3.849  19.359  0.00  0.00    +0.000 C 
ENDBRANCH  19  21
ENDBRANCH   6  19
TORSDOF 5
ENDMDL
MODEL 4
REMARK VINA RESULT:      -7.8      1.311      1.591
REMARK  Name = 
REMARK  7 active torsions:
REMARK  status: ('A' for Active; 'I' for Inactive)
REMARK    1  A    between atoms: C_1  and  C_2
REMARK    2  A    between atoms: C_2  and  C_3
REMARK    3  A    between atoms: C_2  and  N_4
REMARK    4  A    between atoms: N_7  and  S_8
REMARK    5  A    between atoms: S_8  and  C_11
REMARK    6  A    between atoms: C_16  and  N_17
REMARK    7  A    between atoms: N_17  and  C_18
REMARK                            x       y       z     vdW  Elec       q    Type
REMARK                         _______ _______ _______ _____ _____    ______ ____
ROOT
ATOM      1  C   UNL     1       4.134   6.649  17.921  0.00  0.00    +0.000 A 
ATOM      2  C   UNL     1       3.830   7.702  17.045  0.00  0.00    +0.000 A 
ATOM      3  N   UNL     1       2.788   8.546  17.179  0.00  0.00    +0.000 NA
ATOM      4  C   UNL     1       2.002   8.320  18.236  0.00  0.00    +0.000 A 
ATOM      5  C   UNL     1       2.208   7.289  19.147  0.00  0.00    +0.000 A 
ATOM      6  C   UNL     1       3.312   6.423  19.057  0.00  0.00    +0.000 A 
ENDROOT
BRANCH   1   7
ATOM      7  S   UNL     1       5.574   5.744  17.425  0.00  0.00    +0.000 S 
ATOM      8  O   UNL     1       5.876   4.747  18.436  0.00  0.00    +0.000 OA
ATOM      9  O   UNL     1       6.599   6.696  17.028  0.00  0.00    +0.000 OA
BRANCH   7  13
ATOM     10  N   UNL     1       5.560   4.248  13.850  0.00  0.00    +0.000 N 
ATOM     11  C   UNL     1       6.107   4.653  15.024  0.00  0.00    +0.000 C 
ATOM     12  O   UNL     1       7.314   4.647  15.243  0.00  0.00    +0.000 OA
ATOM     13  N   UNL     1       5.180   5.021  15.977  0.00  0.00    +0.000 N 
ATOM     14  H   UNL     1       4.563   4.119  13.808  0.00  0.00    +0.000 HD
ATOM     15  H   UNL     1       4.208   5.162  15.727  0.00  0.00    +0.000 HD
BRANCH  10  17
ATOM     16  C   UNL     1       5.524   2.805  11.875  0.00  0.00    +0.000 C 
ATOM     17  C   UNL     1       6.394   3.603  12.843  0.00  0.00    +0.000 C 
ATOM     18  C   UNL     1       7.237   4.634  12.106  0.00  0.00    +0.000 C 
ENDBRANCH  10  17
ENDBRANCH   7  13
ENDBRANCH   1   7
BRANCH   6  19
ATOM     19  N   UNL     1       3.592   5.547  20.112  0.00  0.00    +0.000 N 
ATOM     20  H   UNL     1       4.481   5.736  20.593  0.00  0.00    +0.000 HD
BRANCH  19  21
ATOM     21  C   UNL     1       3.211   4.105  20.250  0.00  0.00    +0.000 C 
ATOM     22  C   UNL     1       2.582   3.458  18.991  0.00  0.00    +0.000 C 
ATOM     23  C   UNL     1       1.108   3.213  19.363  0.00  0.00    +0.000 C 
ATOM     24  C   UNL     1       1.017   1.985  20.269  0.00  0.00    +0.000 C 
ATOM     25  C   UNL     1       1.652   2.500  21.567  0.00  0.00    +0.000 C 
ATOM     26  C   UNL     1       2.010   3.978  21.247  0.00  0.00    +0.000 C 
ATOM     27  C   UNL     1       0.833   4.352  20.340  0.00  0.00    +0.000 C 
ENDBRANCH  19  21
ENDBRANCH   6  19
TORSDOF 5
ENDMDL
MODEL 5
REMARK VINA RESULT:      -7.8      6.189      9.065
REMARK  Name = 
REMARK  7 active torsions:
REMARK  status: ('A' for Active; 'I' for Inactive)
REMARK    1  A    between atoms: C_1  and  C_2
REMARK    2  A    between atoms: C_2  and  C_3
REMARK    3  A    between atoms: C_2  and  N_4
REMARK    4  A    between atoms: N_7  and  S_8
REMARK    5  A    between atoms: S_8  and  C_11
REMARK    6  A    between atoms: C_16  and  N_17
REMARK    7  A    between atoms: N_17  and  C_18
REMARK                            x       y       z     vdW  Elec       q    Type
REMARK                         _______ _______ _______ _____ _____    ______ ____
ROOT
ATOM      1  C   UNL     1       1.274   8.796  20.107  0.00  0.00    +0.000 A 
ATOM      2  C   UNL     1       1.099   9.832  19.176  0.00  0.00    +0.000 A 
ATOM      3  N   UNL     1       1.606   9.846  17.927  0.00  0.00    +0.000 NA
ATOM      4  C   UNL     1       2.334   8.777  17.595  0.00  0.00    +0.000 A 
ATOM      5  C   UNL     1       2.583   7.711  18.453  0.00  0.00    +0.000 A 
ATOM      6  C   UNL     1       2.029   7.649  19.744  0.00  0.00    +0.000 A 
ENDROOT
BRANCH   1   7
ATOM      7  S   UNL     1       0.470   9.124  21.651  0.00  0.00    +0.000 S 
ATOM      8  O   UNL     1       1.478   9.332  22.673  0.00  0.00    +0.000 OA
ATOM      9  O   UNL     1      -0.560   8.117  21.854  0.00  0.00    +0.000 OA
BRANCH   7  13
ATOM     10  N   UNL     1      -1.952  12.134  21.951  0.00  0.00    +0.000 N 
ATOM     11  C   UNL     1      -1.155  11.132  22.402  0.00  0.00    +0.000 C 
ATOM     12  O   UNL     1      -1.047  10.838  23.588  0.00  0.00    +0.000 OA
ATOM     13  N   UNL     1      -0.428  10.507  21.411  0.00  0.00    +0.000 N 
ATOM     14  H   UNL     1      -1.856  12.426  20.993  0.00  0.00    +0.000 HD
ATOM     15  H   UNL     1      -0.644  10.662  20.433  0.00  0.00    +0.000 HD
BRANCH  10  17
ATOM     16  C   UNL     1      -1.873  14.388  22.899  0.00  0.00    +0.000 C 
ATOM     17  C   UNL     1      -2.588  13.040  22.900  0.00  0.00    +0.000 C 
ATOM     18  C   UNL     1      -4.068  13.200  22.579  0.00  0.00    +0.000 C 
ENDBRANCH  10  17
ENDBRANCH   7  13
ENDBRANCH   1   7
BRANCH   6  19
ATOM     19  N   UNL     1       2.129   6.465  20.484  0.00  0.00    +0.000 N 
ATOM     20  H   UNL     1       2.260   6.609  21.494  0.00  0.00    +0.000 HD
BRANCH  19  21
ATOM     21  C   UNL     1       2.700   5.147  20.059  0.00  0.00    +0.000 C 
ATOM     22  C   UNL     1       2.152   4.582  18.724  0.00  0.00    +0.000 C 
ATOM     23  C   UNL     1       1.311   3.356  19.126  0.00  0.00    +0.000 C 
ATOM     24  C   UNL     1       2.247   2.191  19.451  0.00  0.00    +0.000 C 
ATOM     25  C   UNL     1       2.886   2.656  20.766  0.00  0.00    +0.000 C 
ATOM     26  C   UNL     1       2.215   4.029  21.043  0.00  0.00    +0.000 C 
ATOM     27  C   UNL     1       0.806   3.756  20.509  0.00  0.00    +0.000 C 
ENDBRANCH  19  21
ENDBRANCH   6  19
TORSDOF 5
ENDMDL
MODEL 6
REMARK VINA RESULT:      -7.7      4.096      7.095
REMARK  Name = 
REMARK  7 active torsions:
REMARK  status: ('A' for Active; 'I' for Inactive)
REMARK    1  A    between atoms: C_1  and  C_2
REMARK    2  A    between atoms: C_2  and  C_3
REMARK    3  A    between atoms: C_2  and  N_4
REMARK    4  A    between atoms: N_7  and  S_8
REMARK    5  A    between atoms: S_8  and  C_11
REMARK    6  A    between atoms: C_16  and  N_17
REMARK    7  A    between atoms: N_17  and  C_18
REMARK                            x       y       z     vdW  Elec       q    Type
REMARK                         _______ _______ _______ _____ _____    ______ ____
ROOT
ATOM      1  C   UNL     1       2.860   2.878  19.423  0.00  0.00    +0.000 A 
ATOM      2  C   UNL     1       1.829   2.226  18.728  0.00  0.00    +0.000 A 
ATOM      3  N   UNL     1       1.832   1.963  17.406  0.00  0.00    +0.000 NA
ATOM      4  C   UNL     1       2.912   2.382  16.742  0.00  0.00    +0.000 A 
ATOM      5  C   UNL     1       3.973   3.056  17.336  0.00  0.00    +0.000 A 
ATOM      6  C   UNL     1       4.019   3.303  18.720  0.00  0.00    +0.000 A 
ENDROOT
BRANCH   1   7
ATOM      7  S   UNL     1       2.509   3.058  21.150  0.00  0.00    +0.000 S 
ATOM      8  O   UNL     1       3.530   2.365  21.913  0.00  0.00    +0.000 OA
ATOM      9  O   UNL     1       1.108   2.737  21.369  0.00  0.00    +0.000 OA
BRANCH   7  13
ATOM     10  N   UNL     1       2.072   6.908  21.075  0.00  0.00    +0.000 N 
ATOM     11  C   UNL     1       1.752   5.617  20.805  0.00  0.00    +0.000 C 
ATOM     12  O   UNL     1       0.809   5.291  20.092  0.00  0.00    +0.000 OA
ATOM     13  N   UNL     1       2.550   4.696  21.453  0.00  0.00    +0.000 N 
ATOM     14  H   UNL     1       2.746   7.091  21.800  0.00  0.00    +0.000 HD
ATOM     15  H   UNL     1       3.407   4.983  21.910  0.00  0.00    +0.000 HD
BRANCH  10  17
ATOM     16  C   UNL     1       1.029   9.002  21.786  0.00  0.00    +0.000 C 
ATOM     17  C   UNL     1       1.176   7.981  20.662  0.00  0.00    +0.000 C 
ATOM     18  C   UNL     1       1.677   8.636  19.382  0.00  0.00    +0.000 C 
ENDBRANCH  10  17
ENDBRANCH   7  13
ENDBRANCH   1   7
BRANCH   6  19
ATOM     19  N   UNL     1       5.198   3.787  19.298  0.00  0.00    +0.000 N 
ATOM     20  H   UNL     1       5.435   3.353  20.200  0.00  0.00    +0.000 HD
BRANCH  19  21
ATOM     21  C   UNL     1       5.785   5.162  19.202  0.00  0.00    +0.000 C 
ATOM     22  C   UNL     1       5.262   6.030  18.030  0.00  0.00    +0.000 C 
ATOM     23  C   UNL     1       6.454   6.155  17.063  0.00  0.00    +0.000 C 
ATOM     24  C   UNL     1       7.448   7.174  17.621  0.00  0.00    +0.000 C 
ATOM     25  C   UNL     1       8.022   6.427  18.832  0.00  0.00    +0.000 C 
ATOM     26  C   UNL     1       7.296   5.054  18.802  0.00  0.00    +0.000 C 
ATOM     27  C   UNL     1       7.187   4.837  17.290  0.00  0.00    +0.000 C 
ENDBRANCH  19  21
ENDBRANCH   6  19
TORSDOF 5
ENDMDL
MODEL 7
REMARK VINA RESULT:      -7.7      3.497      7.482
REMARK  Name = 
REMARK  7 active torsions:
REMARK  status: ('A' for Active; 'I' for Inactive)
REMARK    1  A    between atoms: C_1  and  C_2
REMARK    2  A    between atoms: C_2  and  C_3
REMARK    3  A    between atoms: C_2  and  N_4
REMARK    4  A    between atoms: N_7  and  S_8
REMARK    5  A    between atoms: S_8  and  C_11
REMARK    6  A    between atoms: C_16  and  N_17
REMARK    7  A    between atoms: N_17  and  C_18
REMARK                            x       y       z     vdW  Elec       q    Type
REMARK                         _______ _______ _______ _____ _____    ______ ____
ROOT
ATOM      1  C   UNL     1       2.794   4.484  18.584  0.00  0.00    +0.000 A 
ATOM      2  C   UNL     1       1.486   4.120  18.937  0.00  0.00    +0.000 A 
ATOM      3  N   UNL     1       0.994   2.866  18.898  0.00  0.00    +0.000 NA
ATOM      4  C   UNL     1       1.847   1.930  18.474  0.00  0.00    +0.000 A 
ATOM      5  C   UNL     1       3.154   2.194  18.081  0.00  0.00    +0.000 A 
ATOM      6  C   UNL     1       3.708   3.485  18.155  0.00  0.00    +0.000 A 
ENDROOT
BRANCH   1   7
ATOM      7  S   UNL     1       3.086   6.223  18.751  0.00  0.00    +0.000 S 
ATOM      8  O   UNL     1       2.596   6.901  17.565  0.00  0.00    +0.000 OA
ATOM      9  O   UNL     1       4.466   6.418  19.168  0.00  0.00    +0.000 OA
BRANCH   7  13
ATOM     10  N   UNL     1       1.292   8.194  21.564  0.00  0.00    +0.000 N 
ATOM     11  C   UNL     1       1.806   7.990  20.324  0.00  0.00    +0.000 C 
ATOM     12  O   UNL     1       1.841   8.858  19.458  0.00  0.00    +0.000 OA
ATOM     13  N   UNL     1       2.236   6.698  20.103  0.00  0.00    +0.000 N 
ATOM     14  H   UNL     1       1.142   7.394  22.156  0.00  0.00    +0.000 HD
ATOM     15  H   UNL     1       2.338   6.046  20.872  0.00  0.00    +0.000 HD
BRANCH  10  17
ATOM     16  C   UNL     1      -0.593   9.604  20.901  0.00  0.00    +0.000 C 
ATOM     17  C   UNL     1       0.580   9.430  21.862  0.00  0.00    +0.000 C 
ATOM     18  C   UNL     1       0.113   9.445  23.311  0.00  0.00    +0.000 C 
ENDBRANCH  10  17
ENDBRANCH   7  13
ENDBRANCH   1   7
BRANCH   6  19
ATOM     19  N   UNL     1       5.083   3.660  17.956  0.00  0.00    +0.000 N 
ATOM     20  H   UNL     1       5.519   4.335  18.598  0.00  0.00    +0.000 HD
BRANCH  19  21
ATOM     21  C   UNL     1       5.857   3.568  16.677  0.00  0.00    +0.000 C 
ATOM     22  C   UNL     1       7.170   4.389  16.631  0.00  0.00    +0.000 C 
ATOM     23  C   UNL     1       6.896   5.525  15.629  0.00  0.00    +0.000 C 
ATOM     24  C   UNL     1       6.974   4.969  14.206  0.00  0.00    +0.000 C 
ATOM     25  C   UNL     1       5.715   4.095  14.138  0.00  0.00    +0.000 C 
ATOM     26  C   UNL     1       5.056   4.279  15.533  0.00  0.00    +0.000 C 
ATOM     27  C   UNL     1       5.397   5.748  15.802  0.00  0.00    +0.000 C 
ENDBRANCH  19  21
ENDBRANCH   6  19
TORSDOF 5
ENDMDL
MODEL 8
REMARK VINA RESULT:      -7.6      0.905      1.158
REMARK  Name = 
REMARK  7 active torsions:
REMARK  status: ('A' for Active; 'I' for Inactive)
REMARK    1  A    between atoms: C_1  and  C_2
REMARK    2  A    between atoms: C_2  and  C_3
REMARK    3  A    between atoms: C_2  and  N_4
REMARK    4  A    between atoms: N_7  and  S_8
REMARK    5  A    between atoms: S_8  and  C_11
REMARK    6  A    between atoms: C_16  and  N_17
REMARK    7  A    between atoms: N_17  and  C_18
REMARK                            x       y       z     vdW  Elec       q    Type
REMARK                         _______ _______ _______ _____ _____    ______ ____
ROOT
ATOM      1  C   UNL     1       4.609   6.299  17.480  0.00  0.00    +0.000 A 
ATOM      2  C   UNL     1       4.440   7.691  17.418  0.00  0.00    +0.000 A 
ATOM      3  N   UNL     1       3.272   8.339  17.596  0.00  0.00    +0.000 NA
ATOM      4  C   UNL     1       2.216   7.557  17.837  0.00  0.00    +0.000 A 
ATOM      5  C   UNL     1       2.278   6.169  17.896  0.00  0.00    +0.000 A 
ATOM      6  C   UNL     1       3.491   5.470  17.760  0.00  0.00    +0.000 A 
ENDROOT
BRANCH   1   7
ATOM      7  S   UNL     1       6.284   5.802  17.188  0.00  0.00    +0.000 S 
ATOM      8  O   UNL     1       6.539   4.563  17.898  0.00  0.00    +0.000 OA
ATOM      9  O   UNL     1       7.148   6.949  17.414  0.00  0.00    +0.000 OA
BRANCH   7  13
ATOM     10  N   UNL     1       6.490   4.377  13.590  0.00  0.00    +0.000 N 
ATOM     11  C   UNL     1       6.153   4.384  14.905  0.00  0.00    +0.000 C 
ATOM     12  O   UNL     1       5.621   3.435  15.470  0.00  0.00    +0.000 OA
ATOM     13  N   UNL     1       6.411   5.581  15.542  0.00  0.00    +0.000 N 
ATOM     14  H   UNL     1       6.761   5.246  13.162  0.00  0.00    +0.000 HD
ATOM     15  H   UNL     1       6.984   6.290  15.100  0.00  0.00    +0.000 HD
BRANCH  10  17
ATOM     16  C   UNL     1       4.717   3.616  12.087  0.00  0.00    +0.000 C 
ATOM     17  C   UNL     1       6.057   3.278  12.735  0.00  0.00    +0.000 C 
ATOM     18  C   UNL     1       7.115   2.966  11.686  0.00  0.00    +0.000 C 
ENDBRANCH  10  17
ENDBRANCH   7  13
ENDBRANCH   1   7
BRANCH   6  19
ATOM     19  N   UNL     1       3.535   4.099  18.041  0.00  0.00    +0.000 N 
ATOM     20  H   UNL     1       3.176   3.502  17.284  0.00  0.00    +0.000 HD
BRANCH  19  21
ATOM     21  C   UNL     1       3.396   3.415  19.366  0.00  0.00    +0.000 C 
ATOM     22  C   UNL     1       2.628   2.070  19.346  0.00  0.00    +0.000 C 
ATOM     23  C   UNL     1       1.306   2.355  20.084  0.00  0.00    +0.000 C 
ATOM     24  C   UNL     1       1.571   2.397  21.589  0.00  0.00    +0.000 C 
ATOM     25  C   UNL     1       2.371   3.697  21.735  0.00  0.00    +0.000 C 
ATOM     26  C   UNL     1       2.446   4.254  20.287  0.00  0.00    +0.000 C 
ATOM     27  C   UNL     1       1.072   3.827  19.760  0.00  0.00    +0.000 C 
ENDBRANCH  19  21
ENDBRANCH   6  19
TORSDOF 5
ENDMDL
MODEL 9
REMARK VINA RESULT:      -7.5      1.995      2.433
REMARK  Name = 
REMARK  7 active torsions:
REMARK  status: ('A' for Active; 'I' for Inactive)
REMARK    1  A    between atoms: C_1  and  C_2
REMARK    2  A    between atoms: C_2  and  C_3
REMARK    3  A    between atoms: C_2  and  N_4
REMARK    4  A    between atoms: N_7  and  S_8
REMARK    5  A    between atoms: S_8  and  C_11
REMARK    6  A    between atoms: C_16  and  N_17
REMARK    7  A    between atoms: N_17  and  C_18
REMARK                            x       y       z     vdW  Elec       q    Type
REMARK                         _______ _______ _______ _____ _____    ______ ____
ROOT
ATOM      1  C   UNL     1       6.150   5.452  17.202  0.00  0.00    +0.000 A 
ATOM      2  C   UNL     1       7.215   6.365  17.166  0.00  0.00    +0.000 A 
ATOM      3  N   UNL     1       8.026   6.651  18.204  0.00  0.00    +0.000 NA
ATOM      4  C   UNL     1       7.753   6.000  19.338  0.00  0.00    +0.000 A 
ATOM      5  C   UNL     1       6.708   5.095  19.479  0.00  0.00    +0.000 A 
ATOM      6  C   UNL     1       5.875   4.743  18.402  0.00  0.00    +0.000 A 
ENDROOT
BRANCH   1   7
ATOM      7  S   UNL     1       5.298   5.338  15.653  0.00  0.00    +0.000 S 
ATOM      8  O   UNL     1       5.104   6.674  15.122  0.00  0.00    +0.000 OA
ATOM      9  O   UNL     1       4.149   4.462  15.826  0.00  0.00    +0.000 OA
BRANCH   7  13
ATOM     10  N   UNL     1       6.781   3.067  12.886  0.00  0.00    +0.000 N 
ATOM     11  C   UNL     1       5.879   3.913  13.447  0.00  0.00    +0.000 C 
ATOM     12  O   UNL     1       4.822   4.225  12.910  0.00  0.00    +0.000 OA
ATOM     13  N   UNL     1       6.284   4.439  14.657  0.00  0.00    +0.000 N 
ATOM     14  H   UNL     1       7.693   2.996  13.304  0.00  0.00    +0.000 HD
ATOM     15  H   UNL     1       7.082   4.054  15.148  0.00  0.00    +0.000 HD
BRANCH  10  17
ATOM     16  C   UNL     1       7.942   2.179  10.925  0.00  0.00    +0.000 C 
ATOM     17  C   UNL     1       6.604   2.628  11.507  0.00  0.00    +0.000 C 
ATOM     18  C   UNL     1       5.566   1.517  11.426  0.00  0.00    +0.000 C 
ENDBRANCH  10  17
ENDBRANCH   7  13
ENDBRANCH   1   7
BRANCH   6  19
ATOM     19  N   UNL     1       4.982   3.674  18.537  0.00  0.00    +0.000 N 
ATOM     20  H   UNL     1       4.664   3.274  17.645  0.00  0.00    +0.000 HD
BRANCH  19  21
ATOM     21  C   UNL     1       3.966   3.440  19.614  0.00  0.00    +0.000 C 
ATOM     22  C   UNL     1       2.972   2.281  19.352  0.00  0.00    +0.000 C 
ATOM     23  C   UNL     1       1.614   2.967  19.117  0.00  0.00    +0.000 C 
ATOM     24  C   UNL     1       1.035   3.410  20.461  0.00  0.00    +0.000 C 
ATOM     25  C   UNL     1       1.975   4.559  20.848  0.00  0.00    +0.000 C 
ATOM     26  C   UNL     1       2.968   4.646  19.657  0.00  0.00    +0.000 C 
ATOM     27  C   UNL     1       2.031   4.296  18.496  0.00  0.00    +0.000 C 
ENDBRANCH  19  21
ENDBRANCH   6  19
TORSDOF 5
ENDMDL
