MODEL 1
REMARK VINA RESULT:      -7.5      0.000      0.000
REMARK  Name = 
REMARK  2 active torsions:
REMARK  status: ('A' for Active; 'I' for Inactive)
REMARK    1  A    between atoms: C_1  and  C_2
REMARK    2  A    between atoms: C_2  and  C_4
REMARK                            x       y       z     vdW  Elec       q    Type
REMARK                         _______ _______ _______ _____ _____    ______ ____
ROOT
ATOM      1  C   UNL     1       5.505   5.261  16.080  0.00  0.00    +0.000 A 
ATOM      2  C   UNL     1       5.404   6.623  15.780  0.00  0.00    +0.000 A 
ATOM      3  C   UNL     1       4.529   7.435  16.491  0.00  0.00    +0.000 A 
ATOM      4  C   UNL     1       3.754   6.925  17.539  0.00  0.00    +0.000 A 
ATOM      5  C   UNL     1       3.825   5.533  17.840  0.00  0.00    +0.000 A 
ATOM      6  C   UNL     1       4.700   4.683  17.093  0.00  0.00    +0.000 A 
ATOM      7  C   UNL     1       4.703   3.192  17.355  0.00  0.00    +0.000 C 
ATOM      8  O   UNL     1       3.515   2.486  16.946  0.00  0.00    +0.000 OA
ATOM      9  C   UNL     1       3.748   2.605  18.357  0.00  0.00    +0.000 C 
ATOM     10  C   UNL     1       2.919   3.561  19.163  0.00  0.00    +0.000 A 
ATOM     11  C   UNL     1       2.097   3.059  20.189  0.00  0.00    +0.000 A 
ATOM     12  C   UNL     1       1.377   3.907  21.020  0.00  0.00    +0.000 A 
ATOM     13  C   UNL     1       1.444   5.279  20.819  0.00  0.00    +0.000 A 
ATOM     14  C   UNL     1       2.210   5.828  19.775  0.00  0.00    +0.000 A 
ATOM     15  C   UNL     1       2.976   4.964  18.943  0.00  0.00    +0.000 A 
ATOM     16  C   UNL     1       2.177   7.311  19.534  0.00  0.00    +0.000 C 
ATOM     17  O   UNL     1       1.483   7.731  18.344  0.00  0.00    +0.000 OA
ATOM     18  C   UNL     1       2.911   7.878  18.346  0.00  0.00    +0.000 C 
ENDROOT
BRANCH   1  20
ATOM     19  C   UNL     1       6.092   3.807  14.034  0.00  0.00    +0.000 C 
ATOM     20  C   UNL     1       6.511   4.449  15.327  0.00  0.00    +0.000 C 
ATOM     21  O   UNL     1       7.669   4.327  15.738  0.00  0.00    +0.000 OA
ENDBRANCH   1  20
TORSDOF 1
ENDMDL
MODEL 2
REMARK VINA RESULT:      -7.0      1.059      1.169
REMARK  Name = 
REMARK  2 active torsions:
REMARK  status: ('A' for Active; 'I' for Inactive)
REMARK    1  A    between atoms: C_1  and  C_2
REMARK    2  A    between atoms: C_2  and  C_4
REMARK                            x       y       z     vdW  Elec       q    Type
REMARK                         _______ _______ _______ _____ _____    ______ ____
ROOT
ATOM      1  C   UNL     1       4.870   5.287  16.207  0.00  0.00    +0.000 A 
ATOM      2  C   UNL     1       4.854   6.683  16.297  0.00  0.00    +0.000 A 
ATOM      3  C   UNL     1       4.132   7.313  17.304  0.00  0.00    +0.000 A 
ATOM      4  C   UNL     1       3.435   6.575  18.267  0.00  0.00    +0.000 A 
ATOM      5  C   UNL     1       3.418   5.153  18.174  0.00  0.00    +0.000 A 
ATOM      6  C   UNL     1       4.131   4.496  17.122  0.00  0.00    +0.000 A 
ATOM      7  C   UNL     1       4.035   2.992  16.974  0.00  0.00    +0.000 C 
ATOM      8  O   UNL     1       2.755   2.490  16.546  0.00  0.00    +0.000 OA
ATOM      9  C   UNL     1       3.147   2.203  17.896  0.00  0.00    +0.000 C 
ATOM     10  C   UNL     1       2.495   2.943  19.026  0.00  0.00    +0.000 A 
ATOM     11  C   UNL     1       1.748   2.222  19.976  0.00  0.00    +0.000 A 
ATOM     12  C   UNL     1       1.196   2.845  21.088  0.00  0.00    +0.000 A 
ATOM     13  C   UNL     1       1.358   4.214  21.253  0.00  0.00    +0.000 A 
ATOM     14  C   UNL     1       2.052   4.988  20.306  0.00  0.00    +0.000 A 
ATOM     15  C   UNL     1       2.647   4.347  19.183  0.00  0.00    +0.000 A 
ATOM     16  C   UNL     1       2.119   6.480  20.475  0.00  0.00    +0.000 C 
ATOM     17  O   UNL     1       1.340   7.248  19.538  0.00  0.00    +0.000 OA
ATOM     18  C   UNL     1       2.767   7.312  19.399  0.00  0.00    +0.000 C 
ENDROOT
BRANCH   1  20
ATOM     19  C   UNL     1       7.182   4.469  15.412  0.00  0.00    +0.000 C 
ATOM     20  C   UNL     1       5.715   4.662  15.143  0.00  0.00    +0.000 C 
ATOM     21  O   UNL     1       5.221   4.283  14.076  0.00  0.00    +0.000 OA
ENDBRANCH   1  20
TORSDOF 1
ENDMDL
MODEL 3
REMARK VINA RESULT:      -7.0      1.602      5.884
REMARK  Name = 
REMARK  2 active torsions:
REMARK  status: ('A' for Active; 'I' for Inactive)
REMARK    1  A    between atoms: C_1  and  C_2
REMARK    2  A    between atoms: C_2  and  C_4
REMARK                            x       y       z     vdW  Elec       q    Type
REMARK                         _______ _______ _______ _____ _____    ______ ____
ROOT
ATOM      1  C   UNL     1       1.716   6.855  20.230  0.00  0.00    +0.000 A 
ATOM      2  C   UNL     1       1.136   5.721  20.807  0.00  0.00    +0.000 A 
ATOM      3  C   UNL     1       1.444   4.454  20.328  0.00  0.00    +0.000 A 
ATOM      4  C   UNL     1       2.360   4.275  19.286  0.00  0.00    +0.000 A 
ATOM      5  C   UNL     1       2.940   5.421  18.667  0.00  0.00    +0.000 A 
ATOM      6  C   UNL     1       2.605   6.732  19.133  0.00  0.00    +0.000 A 
ATOM      7  C   UNL     1       3.152   7.947  18.414  0.00  0.00    +0.000 C 
ATOM      8  O   UNL     1       2.624   8.178  17.094  0.00  0.00    +0.000 OA
ATOM      9  C   UNL     1       3.997   7.772  17.182  0.00  0.00    +0.000 C 
ATOM     10  C   UNL     1       4.378   6.372  16.800  0.00  0.00    +0.000 A 
ATOM     11  C   UNL     1       5.260   6.173  15.722  0.00  0.00    +0.000 A 
ATOM     12  C   UNL     1       5.713   4.905  15.382  0.00  0.00    +0.000 A 
ATOM     13  C   UNL     1       5.263   3.805  16.099  0.00  0.00    +0.000 A 
ATOM     14  C   UNL     1       4.342   3.946  17.153  0.00  0.00    +0.000 A 
ATOM     15  C   UNL     1       3.903   5.247  17.525  0.00  0.00    +0.000 A 
ATOM     16  C   UNL     1       3.809   2.719  17.838  0.00  0.00    +0.000 C 
ATOM     17  O   UNL     1       2.430   2.405  17.567  0.00  0.00    +0.000 OA
ATOM     18  C   UNL     1       2.740   2.872  18.888  0.00  0.00    +0.000 C 
ENDROOT
BRANCH   1  20
ATOM     19  C   UNL     1       0.570   9.155  20.028  0.00  0.00    +0.000 C 
ATOM     20  C   UNL     1       1.398   8.189  20.828  0.00  0.00    +0.000 C 
ATOM     21  O   UNL     1       1.781   8.485  21.964  0.00  0.00    +0.000 OA
ENDBRANCH   1  20
TORSDOF 1
ENDMDL
MODEL 4
REMARK VINA RESULT:      -6.5      1.537      4.765
REMARK  Name = 
REMARK  2 active torsions:
REMARK  status: ('A' for Active; 'I' for Inactive)
REMARK    1  A    between atoms: C_1  and  C_2
REMARK    2  A    between atoms: C_2  and  C_4
REMARK                            x       y       z     vdW  Elec       q    Type
REMARK                         _______ _______ _______ _____ _____    ______ ____
ROOT
ATOM      1  C   UNL     1       2.382   7.823  18.667  0.00  0.00    +0.000 A 
ATOM      2  C   UNL     1       3.323   8.312  17.755  0.00  0.00    +0.000 A 
ATOM      3  C   UNL     1       4.174   7.439  17.088  0.00  0.00    +0.000 A 
ATOM      4  C   UNL     1       4.091   6.055  17.282  0.00  0.00    +0.000 A 
ATOM      5  C   UNL     1       3.157   5.542  18.228  0.00  0.00    +0.000 A 
ATOM      6  C   UNL     1       2.298   6.435  18.944  0.00  0.00    +0.000 A 
ATOM      7  C   UNL     1       1.373   5.893  20.012  0.00  0.00    +0.000 C 
ATOM      8  O   UNL     1       2.017   5.408  21.205  0.00  0.00    +0.000 OA
ATOM      9  C   UNL     1       1.400   4.430  20.356  0.00  0.00    +0.000 C 
ATOM     10  C   UNL     1       2.261   3.539  19.510  0.00  0.00    +0.000 A 
ATOM     11  C   UNL     1       2.228   2.148  19.727  0.00  0.00    +0.000 A 
ATOM     12  C   UNL     1       2.938   1.272  18.916  0.00  0.00    +0.000 A 
ATOM     13  C   UNL     1       3.724   1.778  17.889  0.00  0.00    +0.000 A 
ATOM     14  C   UNL     1       3.831   3.162  17.664  0.00  0.00    +0.000 A 
ATOM     15  C   UNL     1       3.078   4.060  18.471  0.00  0.00    +0.000 A 
ATOM     16  C   UNL     1       4.768   3.668  16.604  0.00  0.00    +0.000 C 
ATOM     17  O   UNL     1       5.950   4.335  17.085  0.00  0.00    +0.000 OA
ATOM     18  C   UNL     1       4.962   5.154  16.445  0.00  0.00    +0.000 C 
ENDROOT
BRANCH   1  20
ATOM     19  C   UNL     1       0.582   9.652  18.421  0.00  0.00    +0.000 C 
ATOM     20  C   UNL     1       1.449   8.802  19.307  0.00  0.00    +0.000 C 
ATOM     21  O   UNL     1       1.367   8.895  20.536  0.00  0.00    +0.000 OA
ENDBRANCH   1  20
TORSDOF 1
ENDMDL
MODEL 5
REMARK VINA RESULT:      -6.5      1.639      5.024
REMARK  Name = 
REMARK  2 active torsions:
REMARK  status: ('A' for Active; 'I' for Inactive)
REMARK    1  A    between atoms: C_1  and  C_2
REMARK    2  A    between atoms: C_2  and  C_4
REMARK                            x       y       z     vdW  Elec       q    Type
REMARK                         _______ _______ _______ _____ _____    ______ ____
ROOT
ATOM      1  C   UNL     1       1.863   4.277  19.809  0.00  0.00    +0.000 A 
ATOM      2  C   UNL     1       1.700   5.602  20.225  0.00  0.00    +0.000 A 
ATOM      3  C   UNL     1       2.392   6.627  19.592  0.00  0.00    +0.000 A 
ATOM      4  C   UNL     1       3.240   6.368  18.509  0.00  0.00    +0.000 A 
ATOM      5  C   UNL     1       3.440   5.021  18.090  0.00  0.00    +0.000 A 
ATOM      6  C   UNL     1       2.756   3.955  18.756  0.00  0.00    +0.000 A 
ATOM      7  C   UNL     1       3.041   2.520  18.368  0.00  0.00    +0.000 C 
ATOM      8  O   UNL     1       4.348   2.028  18.723  0.00  0.00    +0.000 OA
ATOM      9  C   UNL     1       4.082   2.218  17.326  0.00  0.00    +0.000 C 
ATOM     10  C   UNL     1       4.699   3.383  16.610  0.00  0.00    +0.000 A 
ATOM     11  C   UNL     1       5.593   3.140  15.550  0.00  0.00    +0.000 A 
ATOM     12  C   UNL     1       6.125   4.179  14.798  0.00  0.00    +0.000 A 
ATOM     13  C   UNL     1       5.794   5.490  15.116  0.00  0.00    +0.000 A 
ATOM     14  C   UNL     1       4.946   5.788  16.198  0.00  0.00    +0.000 A 
ATOM     15  C   UNL     1       4.372   4.724  16.948  0.00  0.00    +0.000 A 
ATOM     16  C   UNL     1       4.692   7.223  16.565  0.00  0.00    +0.000 C 
ATOM     17  O   UNL     1       5.302   7.668  17.791  0.00  0.00    +0.000 OA
ATOM     18  C   UNL     1       3.873   7.533  17.791  0.00  0.00    +0.000 C 
ENDROOT
BRANCH   1  20
ATOM     19  C   UNL     1       1.500   2.703  21.819  0.00  0.00    +0.000 C 
ATOM     20  C   UNL     1       1.043   3.223  20.484  0.00  0.00    +0.000 C 
ATOM     21  O   UNL     1      -0.001   2.805  19.975  0.00  0.00    +0.000 OA
ENDBRANCH   1  20
TORSDOF 1
ENDMDL
MODEL 6
REMARK VINA RESULT:      -6.4      1.630      3.563
REMARK  Name = 
REMARK  2 active torsions:
REMARK  status: ('A' for Active; 'I' for Inactive)
REMARK    1  A    between atoms: C_1  and  C_2
REMARK    2  A    between atoms: C_2  and  C_4
REMARK                            x       y       z     vdW  Elec       q    Type
REMARK                         _______ _______ _______ _____ _____    ______ ____
ROOT
ATOM      1  C   UNL     1       4.741   3.995  16.438  0.00  0.00    +0.000 A 
ATOM      2  C   UNL     1       4.642   2.663  16.853  0.00  0.00    +0.000 A 
ATOM      3  C   UNL     1       3.901   2.333  17.982  0.00  0.00    +0.000 A 
ATOM      4  C   UNL     1       3.213   3.310  18.709  0.00  0.00    +0.000 A 
ATOM      5  C   UNL     1       3.325   4.675  18.317  0.00  0.00    +0.000 A 
ATOM      6  C   UNL     1       4.112   5.029  17.175  0.00  0.00    +0.000 A 
ATOM      7  C   UNL     1       4.302   6.488  16.816  0.00  0.00    +0.000 C 
ATOM      8  O   UNL     1       5.114   7.251  17.729  0.00  0.00    +0.000 OA
ATOM      9  C   UNL     1       3.714   7.558  17.693  0.00  0.00    +0.000 C 
ATOM     10  C   UNL     1       2.833   7.116  18.824  0.00  0.00    +0.000 A 
ATOM     11  C   UNL     1       2.172   8.089  19.597  0.00  0.00    +0.000 A 
ATOM     12  C   UNL     1       1.278   7.733  20.599  0.00  0.00    +0.000 A 
ATOM     13  C   UNL     1       1.053   6.390  20.866  0.00  0.00    +0.000 A 
ATOM     14  C   UNL     1       1.727   5.380  20.157  0.00  0.00    +0.000 A 
ATOM     15  C   UNL     1       2.617   5.741  19.107  0.00  0.00    +0.000 A 
ATOM     16  C   UNL     1       1.525   3.942  20.545  0.00  0.00    +0.000 C 
ATOM     17  O   UNL     1       2.647   3.308  21.186  0.00  0.00    +0.000 OA
ATOM     18  C   UNL     1       2.335   2.875  19.854  0.00  0.00    +0.000 C 
ENDROOT
BRANCH   1  20
ATOM     19  C   UNL     1       6.963   4.602  15.281  0.00  0.00    +0.000 C 
ATOM     20  C   UNL     1       5.497   4.284  15.180  0.00  0.00    +0.000 C 
ATOM     21  O   UNL     1       4.942   4.236  14.078  0.00  0.00    +0.000 OA
ENDBRANCH   1  20
TORSDOF 1
ENDMDL
MODEL 7
REMARK VINA RESULT:      -6.4      1.829      4.673
REMARK  Name = 
REMARK  2 active torsions:
REMARK  status: ('A' for Active; 'I' for Inactive)
REMARK    1  A    between atoms: C_1  and  C_2
REMARK    2  A    between atoms: C_2  and  C_4
REMARK                            x       y       z     vdW  Elec       q    Type
REMARK                         _______ _______ _______ _____ _____    ______ ____
ROOT
ATOM      1  C   UNL     1       2.701   8.108  17.938  0.00  0.00    +0.000 A 
ATOM      2  C   UNL     1       3.769   8.061  17.036  0.00  0.00    +0.000 A 
ATOM      3  C   UNL     1       4.615   6.959  17.008  0.00  0.00    +0.000 A 
ATOM      4  C   UNL     1       4.405   5.860  17.850  0.00  0.00    +0.000 A 
ATOM      5  C   UNL     1       3.339   5.904  18.794  0.00  0.00    +0.000 A 
ATOM      6  C   UNL     1       2.481   7.048  18.853  0.00  0.00    +0.000 A 
ATOM      7  C   UNL     1       1.408   7.128  19.918  0.00  0.00    +0.000 C 
ATOM      8  O   UNL     1       1.882   7.298  21.267  0.00  0.00    +0.000 OA
ATOM      9  C   UNL     1       1.285   6.035  20.942  0.00  0.00    +0.000 C 
ATOM     10  C   UNL     1       2.159   4.828  20.771  0.00  0.00    +0.000 A 
ATOM     11  C   UNL     1       1.994   3.734  21.641  0.00  0.00    +0.000 A 
ATOM     12  C   UNL     1       2.716   2.560  21.473  0.00  0.00    +0.000 A 
ATOM     13  C   UNL     1       3.643   2.470  20.444  0.00  0.00    +0.000 A 
ATOM     14  C   UNL     1       3.882   3.553  19.578  0.00  0.00    +0.000 A 
ATOM     15  C   UNL     1       3.119   4.745  19.727  0.00  0.00    +0.000 A 
ATOM     16  C   UNL     1       4.962   3.446  18.539  0.00  0.00    +0.000 C 
ATOM     17  O   UNL     1       6.135   4.247  18.777  0.00  0.00    +0.000 OA
ATOM     18  C   UNL     1       5.287   4.648  17.692  0.00  0.00    +0.000 C 
ENDROOT
BRANCH   1  20
ATOM     19  C   UNL     1       2.343  10.647  18.203  0.00  0.00    +0.000 C 
ATOM     20  C   UNL     1       1.785   9.289  17.880  0.00  0.00    +0.000 C 
ATOM     21  O   UNL     1       0.602   9.163  17.547  0.00  0.00    +0.000 OA
ENDBRANCH   1  20
TORSDOF 1
ENDMDL
MODEL 8
REMARK VINA RESULT:      -6.2      7.737     11.313
REMARK  Name = 
REMARK  2 active torsions:
REMARK  status: ('A' for Active; 'I' for Inactive)
REMARK    1  A    between atoms: C_1  and  C_2
REMARK    2  A    between atoms: C_2  and  C_4
REMARK                            x       y       z     vdW  Elec       q    Type
REMARK                         _______ _______ _______ _____ _____    ______ ____
ROOT
ATOM      1  C   UNL     1      -5.556  12.949  19.405  0.00  0.00    +0.000 A 
ATOM      2  C   UNL     1      -6.236  12.732  18.202  0.00  0.00    +0.000 A 
ATOM      3  C   UNL     1      -5.628  12.027  17.170  0.00  0.00    +0.000 A 
ATOM      4  C   UNL     1      -4.343  11.491  17.316  0.00  0.00    +0.000 A 
ATOM      5  C   UNL     1      -3.626  11.727  18.525  0.00  0.00    +0.000 A 
ATOM      6  C   UNL     1      -4.231  12.479  19.581  0.00  0.00    +0.000 A 
ATOM      7  C   UNL     1      -3.432  12.804  20.825  0.00  0.00    +0.000 C 
ATOM      8  O   UNL     1      -2.356  13.746  20.645  0.00  0.00    +0.000 OA
ATOM      9  C   UNL     1      -1.990  12.386  20.921  0.00  0.00    +0.000 C 
ATOM     10  C   UNL     1      -1.446  11.530  19.816  0.00  0.00    +0.000 A 
ATOM     11  C   UNL     1      -0.137  11.024  19.925  0.00  0.00    +0.000 A 
ATOM     12  C   UNL     1       0.385  10.157  18.973  0.00  0.00    +0.000 A 
ATOM     13  C   UNL     1      -0.388   9.804  17.875  0.00  0.00    +0.000 A 
ATOM     14  C   UNL     1      -1.682  10.323  17.695  0.00  0.00    +0.000 A 
ATOM     15  C   UNL     1      -2.232  11.184  18.685  0.00  0.00    +0.000 A 
ATOM     16  C   UNL     1      -2.445   9.990  16.443  0.00  0.00    +0.000 C 
ATOM     17  O   UNL     1      -2.608  11.073  15.508  0.00  0.00    +0.000 OA
ATOM     18  C   UNL     1      -3.784  10.639  16.206  0.00  0.00    +0.000 C 
ENDROOT
BRANCH   1  20
ATOM     19  C   UNL     1      -6.318  15.161  20.490  0.00  0.00    +0.000 C 
ATOM     20  C   UNL     1      -6.283  13.658  20.504  0.00  0.00    +0.000 C 
ATOM     21  O   UNL     1      -6.868  13.028  21.391  0.00  0.00    +0.000 OA
ENDBRANCH   1  20
TORSDOF 1
ENDMDL
MODEL 9
REMARK VINA RESULT:      -6.2      7.053     10.389
REMARK  Name = 
REMARK  2 active torsions:
REMARK  status: ('A' for Active; 'I' for Inactive)
REMARK    1  A    between atoms: C_1  and  C_2
REMARK    2  A    between atoms: C_2  and  C_4
REMARK                            x       y       z     vdW  Elec       q    Type
REMARK                         _______ _______ _______ _____ _____    ______ ____
ROOT
ATOM      1  C   UNL     1      -5.040  12.273  18.939  0.00  0.00    +0.000 A 
ATOM      2  C   UNL     1      -5.211  13.027  20.104  0.00  0.00    +0.000 A 
ATOM      3  C   UNL     1      -4.147  13.222  20.977  0.00  0.00    +0.000 A 
ATOM      4  C   UNL     1      -2.877  12.702  20.701  0.00  0.00    +0.000 A 
ATOM      5  C   UNL     1      -2.692  11.907  19.533  0.00  0.00    +0.000 A 
ATOM      6  C   UNL     1      -3.790  11.673  18.644  0.00  0.00    +0.000 A 
ATOM      7  C   UNL     1      -3.611  10.754  17.454  0.00  0.00    +0.000 C 
ATOM      8  O   UNL     1      -3.446   9.358  17.767  0.00  0.00    +0.000 OA
ATOM      9  C   UNL     1      -2.301  10.046  17.244  0.00  0.00    +0.000 C 
ATOM     10  C   UNL     1      -1.170  10.401  18.163  0.00  0.00    +0.000 A 
ATOM     11  C   UNL     1       0.102   9.846  17.929  0.00  0.00    +0.000 A 
ATOM     12  C   UNL     1       1.202  10.208  18.696  0.00  0.00    +0.000 A 
ATOM     13  C   UNL     1       1.040  11.113  19.737  0.00  0.00    +0.000 A 
ATOM     14  C   UNL     1      -0.220  11.656  20.044  0.00  0.00    +0.000 A 
ATOM     15  C   UNL     1      -1.342  11.314  19.238  0.00  0.00    +0.000 A 
ATOM     16  C   UNL     1      -0.366  12.556  21.239  0.00  0.00    +0.000 C 
ATOM     17  O   UNL     1      -1.083  11.996  22.355  0.00  0.00    +0.000 OA
ATOM     18  C   UNL     1      -1.738  13.044  21.626  0.00  0.00    +0.000 C 
ENDROOT
BRANCH   1  20
ATOM     19  C   UNL     1      -6.411  13.225  16.975  0.00  0.00    +0.000 C 
ATOM     20  C   UNL     1      -6.202  12.150  18.005  0.00  0.00    +0.000 C 
ATOM     21  O   UNL     1      -6.960  11.176  18.055  0.00  0.00    +0.000 OA
ENDBRANCH   1  20
TORSDOF 1
ENDMDL
