MODEL 1
REMARK VINA RESULT:      -7.4      0.000      0.000
REMARK  Name = 
REMARK  14 active torsions:
REMARK  status: ('A' for Active; 'I' for Inactive)
REMARK    1  A    between atoms: C_1  and  C_2
REMARK    2  A    between atoms: C_2  and  C_3
REMARK    3  A    between atoms: C_5  and  O_6
REMARK    4  A    between atoms: C_8  and  C_9
REMARK    5  A    between atoms: C_8  and  C_10
REMARK    6  A    between atoms: N_11  and  C_12
REMARK    7  A    between atoms: C_12  and  C_13
REMARK    8  A    between atoms: C_13  and  O_14
REMARK    9  A    between atoms: C_13  and  C_15
REMARK   10  A    between atoms: C_15  and  O_16
REMARK   11  A    between atoms: O_16  and  C_17
REMARK   12  A    between atoms: C_17  and  C_18
REMARK   13  A    between atoms: C_18  and  O_19
REMARK   14  A    between atoms: O_19  and  C_20
REMARK                            x       y       z     vdW  Elec       q    Type
REMARK                         _______ _______ _______ _____ _____    ______ ____
ROOT
ATOM      1  C   UNL     1       5.666   4.390  17.350  0.00  0.00    +0.000 C 
ENDROOT
BRANCH   1   2
ATOM      2  O   UNL     1       6.229   3.619  16.285  0.00  0.00    +0.000 OA
ATOM      3  H   UNL     1       5.927   4.000  15.443  0.00  0.00    +0.000 HD
ENDBRANCH   1   2
BRANCH   1   4
ATOM      4  C   UNL     1       4.220   3.953  17.755  0.00  0.00    +0.000 C 
BRANCH   4  14
ATOM      5  C   UNL     1       2.986   2.984  21.376  0.00  0.00    +0.000 C 
ATOM      6  C   UNL     1       3.407   2.777  19.892  0.00  0.00    +0.000 C 
ATOM      7  C   UNL     1       4.724   1.970  20.071  0.00  0.00    +0.000 C 
ATOM      8  C   UNL     1       2.348   1.912  19.169  0.00  0.00    +0.000 C 
ATOM      9  C   UNL     1       1.011   2.635  18.989  0.00  0.00    +0.000 C 
ATOM     10  C   UNL     1       1.166   4.014  18.352  0.00  0.00    +0.000 C 
ATOM     11  C   UNL     1       2.278   4.878  18.997  0.00  0.00    +0.000 C 
ATOM     12  C   UNL     1       1.769   5.472  20.341  0.00  0.00    +0.000 C 
ATOM     13  C   UNL     1       2.440   6.158  18.114  0.00  0.00    +0.000 C 
ATOM     14  N   UNL     1       3.578   4.069  19.123  0.00  0.00    +0.000 NA
BRANCH   9  15
ATOM     15  O   UNL     1       0.144   1.836  18.183  0.00  0.00    +0.000 OA
ATOM     16  H   UNL     1      -0.191   1.106  18.730  0.00  0.00    +0.000 HD
ENDBRANCH   9  15
ENDBRANCH   4  14
ENDBRANCH   1   4
BRANCH   1  17
ATOM     17  C   UNL     1       5.673   5.812  16.761  0.00  0.00    +0.000 C 
BRANCH  17  18
ATOM     18  O   UNL     1       6.965   6.342  16.492  0.00  0.00    +0.000 OA
BRANCH  18  19
ATOM     19  C   UNL     1       7.613   6.802  17.686  0.00  0.00    +0.000 C 
BRANCH  19  20
ATOM     20  C   UNL     1       7.864   8.313  17.662  0.00  0.00    +0.000 C 
BRANCH  20  21
ATOM     21  O   UNL     1       8.711   8.703  18.736  0.00  0.00    +0.000 OA
BRANCH  21  22
ATOM     22  C   UNL     1       8.949  10.049  18.839  0.00  0.00    +0.000 A 
ATOM     23  C   UNL     1       8.739  11.002  17.836  0.00  0.00    +0.000 A 
ATOM     24  C   UNL     1       8.987  12.356  18.081  0.00  0.00    +0.000 A 
ATOM     25  C   UNL     1       9.449  12.754  19.330  0.00  0.00    +0.000 A 
ATOM     26 BR   UNL     1       9.757  14.588  19.677  0.00  0.00    +0.000 Br
ATOM     27  C   UNL     1       9.686  11.813  20.329  0.00  0.00    +0.000 A 
ATOM     28  C   UNL     1       9.436  10.462  20.080  0.00  0.00    +0.000 A 
ENDBRANCH  21  22
ENDBRANCH  20  21
ENDBRANCH  19  20
ENDBRANCH  18  19
ENDBRANCH  17  18
ENDBRANCH   1  17
TORSDOF 10
ENDMDL
MODEL 2
REMARK VINA RESULT:      -7.2      0.588      1.078
REMARK  Name = 
REMARK  14 active torsions:
REMARK  status: ('A' for Active; 'I' for Inactive)
REMARK    1  A    between atoms: C_1  and  C_2
REMARK    2  A    between atoms: C_2  and  C_3
REMARK    3  A    between atoms: C_5  and  O_6
REMARK    4  A    between atoms: C_8  and  C_9
REMARK    5  A    between atoms: C_8  and  C_10
REMARK    6  A    between atoms: N_11  and  C_12
REMARK    7  A    between atoms: C_12  and  C_13
REMARK    8  A    between atoms: C_13  and  O_14
REMARK    9  A    between atoms: C_13  and  C_15
REMARK   10  A    between atoms: C_15  and  O_16
REMARK   11  A    between atoms: O_16  and  C_17
REMARK   12  A    between atoms: C_17  and  C_18
REMARK   13  A    between atoms: C_18  and  O_19
REMARK   14  A    between atoms: O_19  and  C_20
REMARK                            x       y       z     vdW  Elec       q    Type
REMARK                         _______ _______ _______ _____ _____    ______ ____
ROOT
ATOM      1  C   UNL     1       5.748   4.753  17.816  0.00  0.00    +0.000 C 
ENDROOT
BRANCH   1   2
ATOM      2  O   UNL     1       6.641   3.849  17.160  0.00  0.00    +0.000 OA
ATOM      3  H   UNL     1       7.484   4.310  17.010  0.00  0.00    +0.000 HD
ENDBRANCH   1   2
BRANCH   1   4
ATOM      4  C   UNL     1       4.327   4.159  18.082  0.00  0.00    +0.000 C 
BRANCH   4  14
ATOM      5  C   UNL     1       2.821   2.899  21.507  0.00  0.00    +0.000 C 
ATOM      6  C   UNL     1       3.375   2.811  20.055  0.00  0.00    +0.000 C 
ATOM      7  C   UNL     1       4.700   2.033  20.295  0.00  0.00    +0.000 C 
ATOM      8  C   UNL     1       2.414   1.968  19.184  0.00  0.00    +0.000 C 
ATOM      9  C   UNL     1       1.073   2.661  18.937  0.00  0.00    +0.000 C 
ATOM     10  C   UNL     1       1.232   4.086  18.410  0.00  0.00    +0.000 C 
ATOM     11  C   UNL     1       2.252   4.935  19.208  0.00  0.00    +0.000 C 
ATOM     12  C   UNL     1       1.609   5.417  20.539  0.00  0.00    +0.000 C 
ATOM     13  C   UNL     1       2.444   6.279  18.431  0.00  0.00    +0.000 C 
ATOM     14  N   UNL     1       3.565   4.158  19.393  0.00  0.00    +0.000 NA
BRANCH   9  15
ATOM     15  O   UNL     1       0.307   1.895  18.004  0.00  0.00    +0.000 OA
ATOM     16  H   UNL     1       0.653   0.988  18.002  0.00  0.00    +0.000 HD
ENDBRANCH   9  15
ENDBRANCH   4  14
ENDBRANCH   1   4
BRANCH   1  17
ATOM     17  C   UNL     1       5.684   5.926  16.822  0.00  0.00    +0.000 C 
BRANCH  17  18
ATOM     18  O   UNL     1       6.931   6.552  16.553  0.00  0.00    +0.000 OA
BRANCH  18  19
ATOM     19  C   UNL     1       7.499   7.140  17.733  0.00  0.00    +0.000 C 
BRANCH  19  20
ATOM     20  C   UNL     1       7.354   8.664  17.746  0.00  0.00    +0.000 C 
BRANCH  20  21
ATOM     21  O   UNL     1       8.608   9.295  17.508  0.00  0.00    +0.000 OA
BRANCH  21  22
ATOM     22  C   UNL     1       8.942  10.291  18.388  0.00  0.00    +0.000 A 
ATOM     23  C   UNL     1       9.331  10.117  19.720  0.00  0.00    +0.000 A 
ATOM     24  C   UNL     1       9.684  11.219  20.505  0.00  0.00    +0.000 A 
ATOM     25  C   UNL     1       9.642  12.495  19.956  0.00  0.00    +0.000 A 
ATOM     26 BR   UNL     1      10.147  13.986  21.004  0.00  0.00    +0.000 Br
ATOM     27  C   UNL     1       9.232  12.684  18.638  0.00  0.00    +0.000 A 
ATOM     28  C   UNL     1       8.882  11.581  17.858  0.00  0.00    +0.000 A 
ENDBRANCH  21  22
ENDBRANCH  20  21
ENDBRANCH  19  20
ENDBRANCH  18  19
ENDBRANCH  17  18
ENDBRANCH   1  17
TORSDOF 10
ENDMDL
MODEL 3
REMARK VINA RESULT:      -7.1      5.550      7.776
REMARK  Name = 
REMARK  14 active torsions:
REMARK  status: ('A' for Active; 'I' for Inactive)
REMARK    1  A    between atoms: C_1  and  C_2
REMARK    2  A    between atoms: C_2  and  C_3
REMARK    3  A    between atoms: C_5  and  O_6
REMARK    4  A    between atoms: C_8  and  C_9
REMARK    5  A    between atoms: C_8  and  C_10
REMARK    6  A    between atoms: N_11  and  C_12
REMARK    7  A    between atoms: C_12  and  C_13
REMARK    8  A    between atoms: C_13  and  O_14
REMARK    9  A    between atoms: C_13  and  C_15
REMARK   10  A    between atoms: C_15  and  O_16
REMARK   11  A    between atoms: O_16  and  C_17
REMARK   12  A    between atoms: C_17  and  C_18
REMARK   13  A    between atoms: C_18  and  O_19
REMARK   14  A    between atoms: O_19  and  C_20
REMARK                            x       y       z     vdW  Elec       q    Type
REMARK                         _______ _______ _______ _____ _____    ______ ____
ROOT
ATOM      1  C   UNL     1       2.589   7.245  19.653  0.00  0.00    +0.000 C 
ENDROOT
BRANCH   1   2
ATOM      2  O   UNL     1       1.945   7.623  18.433  0.00  0.00    +0.000 OA
ATOM      3  H   UNL     1       1.059   7.961  18.650  0.00  0.00    +0.000 HD
ENDBRANCH   1   2
BRANCH   1   4
ATOM      4  C   UNL     1       3.090   5.765  19.674  0.00  0.00    +0.000 C 
BRANCH   4  14
ATOM      5  C   UNL     1       1.180   2.445  18.720  0.00  0.00    +0.000 C 
ATOM      6  C   UNL     1       1.927   3.472  19.620  0.00  0.00    +0.000 C 
ATOM      7  C   UNL     1       0.778   3.919  20.568  0.00  0.00    +0.000 C 
ATOM      8  C   UNL     1       3.030   2.747  20.428  0.00  0.00    +0.000 C 
ATOM      9  C   UNL     1       4.179   2.249  19.549  0.00  0.00    +0.000 C 
ATOM     10  C   UNL     1       4.746   3.339  18.642  0.00  0.00    +0.000 C 
ATOM     11  C   UNL     1       3.663   4.143  17.881  0.00  0.00    +0.000 C 
ATOM     12  C   UNL     1       3.137   3.309  16.678  0.00  0.00    +0.000 C 
ATOM     13  C   UNL     1       4.386   5.331  17.165  0.00  0.00    +0.000 C 
ATOM     14  N   UNL     1       2.564   4.607  18.849  0.00  0.00    +0.000 NA
BRANCH   9  15
ATOM     15  O   UNL     1       5.222   1.734  20.379  0.00  0.00    +0.000 OA
ATOM     16  H   UNL     1       4.921   0.891  20.756  0.00  0.00    +0.000 HD
ENDBRANCH   9  15
ENDBRANCH   4  14
ENDBRANCH   1   4
BRANCH   1  17
ATOM     17  C   UNL     1       1.475   7.470  20.692  0.00  0.00    +0.000 C 
BRANCH  17  18
ATOM     18  O   UNL     1       1.499   8.741  21.328  0.00  0.00    +0.000 OA
BRANCH  18  19
ATOM     19  C   UNL     1       0.325   9.510  21.027  0.00  0.00    +0.000 C 
BRANCH  19  20
ATOM     20  C   UNL     1       0.569  10.523  19.905  0.00  0.00    +0.000 C 
BRANCH  20  21
ATOM     21  O   UNL     1       0.136  10.006  18.652  0.00  0.00    +0.000 OA
BRANCH  21  22
ATOM     22  C   UNL     1      -1.116  10.400  18.255  0.00  0.00    +0.000 A 
ATOM     23  C   UNL     1      -1.839   9.883  17.175  0.00  0.00    +0.000 A 
ATOM     24  C   UNL     1      -3.128  10.348  16.898  0.00  0.00    +0.000 A 
ATOM     25  C   UNL     1      -3.689  11.335  17.700  0.00  0.00    +0.000 A 
ATOM     26 BR   UNL     1      -5.445  11.946  17.347  0.00  0.00    +0.000 Br
ATOM     27  C   UNL     1      -2.970  11.875  18.763  0.00  0.00    +0.000 A 
ATOM     28  C   UNL     1      -1.685  11.407  19.037  0.00  0.00    +0.000 A 
ENDBRANCH  21  22
ENDBRANCH  20  21
ENDBRANCH  19  20
ENDBRANCH  18  19
ENDBRANCH  17  18
ENDBRANCH   1  17
TORSDOF 10
ENDMDL
MODEL 4
REMARK VINA RESULT:      -7.1      1.603      2.802
REMARK  Name = 
REMARK  14 active torsions:
REMARK  status: ('A' for Active; 'I' for Inactive)
REMARK    1  A    between atoms: C_1  and  C_2
REMARK    2  A    between atoms: C_2  and  C_3
REMARK    3  A    between atoms: C_5  and  O_6
REMARK    4  A    between atoms: C_8  and  C_9
REMARK    5  A    between atoms: C_8  and  C_10
REMARK    6  A    between atoms: N_11  and  C_12
REMARK    7  A    between atoms: C_12  and  C_13
REMARK    8  A    between atoms: C_13  and  O_14
REMARK    9  A    between atoms: C_13  and  C_15
REMARK   10  A    between atoms: C_15  and  O_16
REMARK   11  A    between atoms: O_16  and  C_17
REMARK   12  A    between atoms: C_17  and  C_18
REMARK   13  A    between atoms: C_18  and  O_19
REMARK   14  A    between atoms: O_19  and  C_20
REMARK                            x       y       z     vdW  Elec       q    Type
REMARK                         _______ _______ _______ _____ _____    ______ ____
ROOT
ATOM      1  C   UNL     1       6.214   5.344  19.013  0.00  0.00    +0.000 C 
ENDROOT
BRANCH   1   2
ATOM      2  O   UNL     1       7.266   5.317  19.980  0.00  0.00    +0.000 OA
ATOM      3  H   UNL     1       6.895   5.005  20.824  0.00  0.00    +0.000 HD
ENDBRANCH   1   2
BRANCH   1   4
ATOM      4  C   UNL     1       5.251   4.114  19.088  0.00  0.00    +0.000 C 
BRANCH   4  14
ATOM      5  C   UNL     1       1.567   5.041  18.018  0.00  0.00    +0.000 C 
ATOM      6  C   UNL     1       2.873   5.066  18.865  0.00  0.00    +0.000 C 
ATOM      7  C   UNL     1       3.368   6.515  18.595  0.00  0.00    +0.000 C 
ATOM      8  C   UNL     1       2.522   4.894  20.362  0.00  0.00    +0.000 C 
ATOM      9  C   UNL     1       1.994   3.496  20.691  0.00  0.00    +0.000 C 
ATOM     10  C   UNL     1       2.905   2.383  20.178  0.00  0.00    +0.000 C 
ATOM     11  C   UNL     1       3.345   2.567  18.705  0.00  0.00    +0.000 C 
ATOM     12  C   UNL     1       2.183   2.161  17.753  0.00  0.00    +0.000 C 
ATOM     13  C   UNL     1       4.416   1.470  18.401  0.00  0.00    +0.000 C 
ATOM     14  N   UNL     1       3.868   3.994  18.478  0.00  0.00    +0.000 NA
BRANCH   9  15
ATOM     15  O   UNL     1       1.842   3.368  22.107  0.00  0.00    +0.000 OA
ATOM     16  H   UNL     1       2.212   4.163  22.524  0.00  0.00    +0.000 HD
ENDBRANCH   9  15
ENDBRANCH   4  14
ENDBRANCH   1   4
BRANCH   1  17
ATOM     17  C   UNL     1       6.992   5.361  17.685  0.00  0.00    +0.000 C 
BRANCH  17  18
ATOM     18  O   UNL     1       7.870   6.466  17.520  0.00  0.00    +0.000 OA
BRANCH  18  19
ATOM     19  C   UNL     1       7.171   7.718  17.587  0.00  0.00    +0.000 C 
BRANCH  19  20
ATOM     20  C   UNL     1       8.129   8.912  17.638  0.00  0.00    +0.000 C 
BRANCH  20  21
ATOM     21  O   UNL     1       8.721   9.032  18.926  0.00  0.00    +0.000 OA
BRANCH  21  22
ATOM     22  C   UNL     1       9.286  10.250  19.202  0.00  0.00    +0.000 A 
ATOM     23  C   UNL     1       9.572  10.758  20.473  0.00  0.00    +0.000 A 
ATOM     24  C   UNL     1      10.187  12.005  20.617  0.00  0.00    +0.000 A 
ATOM     25  C   UNL     1      10.511  12.745  19.486  0.00  0.00    +0.000 A 
ATOM     26 BR   UNL     1      11.371  14.420  19.674  0.00  0.00    +0.000 Br
ATOM     27  C   UNL     1      10.209  12.262  18.215  0.00  0.00    +0.000 A 
ATOM     28  C   UNL     1       9.597  11.016  18.076  0.00  0.00    +0.000 A 
ENDBRANCH  21  22
ENDBRANCH  20  21
ENDBRANCH  19  20
ENDBRANCH  18  19
ENDBRANCH  17  18
ENDBRANCH   1  17
TORSDOF 10
ENDMDL
MODEL 5
REMARK VINA RESULT:      -7.1      1.172      1.545
REMARK  Name = 
REMARK  14 active torsions:
REMARK  status: ('A' for Active; 'I' for Inactive)
REMARK    1  A    between atoms: C_1  and  C_2
REMARK    2  A    between atoms: C_2  and  C_3
REMARK    3  A    between atoms: C_5  and  O_6
REMARK    4  A    between atoms: C_8  and  C_9
REMARK    5  A    between atoms: C_8  and  C_10
REMARK    6  A    between atoms: N_11  and  C_12
REMARK    7  A    between atoms: C_12  and  C_13
REMARK    8  A    between atoms: C_13  and  O_14
REMARK    9  A    between atoms: C_13  and  C_15
REMARK   10  A    between atoms: C_15  and  O_16
REMARK   11  A    between atoms: O_16  and  C_17
REMARK   12  A    between atoms: C_17  and  C_18
REMARK   13  A    between atoms: C_18  and  O_19
REMARK   14  A    between atoms: O_19  and  C_20
REMARK                            x       y       z     vdW  Elec       q    Type
REMARK                         _______ _______ _______ _____ _____    ______ ____
ROOT
ATOM      1  C   UNL     1       6.162   4.784  18.699  0.00  0.00    +0.000 C 
ENDROOT
BRANCH   1   2
ATOM      2  O   UNL     1       7.096   3.929  18.035  0.00  0.00    +0.000 OA
ATOM      3  H   UNL     1       6.908   3.012  18.300  0.00  0.00    +0.000 HD
ENDBRANCH   1   2
BRANCH   1   4
ATOM      4  C   UNL     1       4.686   4.271  18.650  0.00  0.00    +0.000 C 
BRANCH   4  14
ATOM      5  C   UNL     1       2.611   2.788  21.662  0.00  0.00    +0.000 C 
ATOM      6  C   UNL     1       3.410   2.797  20.326  0.00  0.00    +0.000 C 
ATOM      7  C   UNL     1       4.676   1.993  20.738  0.00  0.00    +0.000 C 
ATOM      8  C   UNL     1       2.619   2.024  19.244  0.00  0.00    +0.000 C 
ATOM      9  C   UNL     1       1.339   2.744  18.816  0.00  0.00    +0.000 C 
ATOM     10  C   UNL     1       1.582   4.201  18.427  0.00  0.00    +0.000 C 
ATOM     11  C   UNL     1       2.444   4.984  19.448  0.00  0.00    +0.000 C 
ATOM     12  C   UNL     1       1.576   5.377  20.677  0.00  0.00    +0.000 C 
ATOM     13  C   UNL     1       2.762   6.377  18.813  0.00  0.00    +0.000 C 
ATOM     14  N   UNL     1       3.707   4.186  19.804  0.00  0.00    +0.000 NA
BRANCH   9  15
ATOM     15  O   UNL     1       0.751   2.052  17.713  0.00  0.00    +0.000 OA
ATOM     16  H   UNL     1       0.233   2.691  17.196  0.00  0.00    +0.000 HD
ENDBRANCH   9  15
ENDBRANCH   4  14
ENDBRANCH   1   4
BRANCH   1  17
ATOM     17  C   UNL     1       6.318   6.103  17.921  0.00  0.00    +0.000 C 
BRANCH  17  18
ATOM     18  O   UNL     1       7.500   6.836  18.217  0.00  0.00    +0.000 OA
BRANCH  18  19
ATOM     19  C   UNL     1       7.510   8.118  17.573  0.00  0.00    +0.000 C 
BRANCH  19  20
ATOM     20  C   UNL     1       8.516   9.079  18.213  0.00  0.00    +0.000 C 
BRANCH  20  21
ATOM     21  O   UNL     1       8.305  10.410  17.757  0.00  0.00    +0.000 OA
BRANCH  21  22
ATOM     22  C   UNL     1       9.154  11.351  18.280  0.00  0.00    +0.000 A 
ATOM     23  C   UNL     1      10.067  11.151  19.320  0.00  0.00    +0.000 A 
ATOM     24  C   UNL     1      10.906  12.189  19.737  0.00  0.00    +0.000 A 
ATOM     25  C   UNL     1      10.826  13.429  19.113  0.00  0.00    +0.000 A 
ATOM     26 BR   UNL     1      11.980  14.827  19.653  0.00  0.00    +0.000 Br
ATOM     27  C   UNL     1       9.905  13.649  18.092  0.00  0.00    +0.000 A 
ATOM     28  C   UNL     1       9.070  12.609  17.679  0.00  0.00    +0.000 A 
ENDBRANCH  21  22
ENDBRANCH  20  21
ENDBRANCH  19  20
ENDBRANCH  18  19
ENDBRANCH  17  18
ENDBRANCH   1  17
TORSDOF 10
ENDMDL
MODEL 6
REMARK VINA RESULT:      -7.0      1.470      2.538
REMARK  Name = 
REMARK  14 active torsions:
REMARK  status: ('A' for Active; 'I' for Inactive)
REMARK    1  A    between atoms: C_1  and  C_2
REMARK    2  A    between atoms: C_2  and  C_3
REMARK    3  A    between atoms: C_5  and  O_6
REMARK    4  A    between atoms: C_8  and  C_9
REMARK    5  A    between atoms: C_8  and  C_10
REMARK    6  A    between atoms: N_11  and  C_12
REMARK    7  A    between atoms: C_12  and  C_13
REMARK    8  A    between atoms: C_13  and  O_14
REMARK    9  A    between atoms: C_13  and  C_15
REMARK   10  A    between atoms: C_15  and  O_16
REMARK   11  A    between atoms: O_16  and  C_17
REMARK   12  A    between atoms: C_17  and  C_18
REMARK   13  A    between atoms: C_18  and  O_19
REMARK   14  A    between atoms: O_19  and  C_20
REMARK                            x       y       z     vdW  Elec       q    Type
REMARK                         _______ _______ _______ _____ _____    ______ ____
ROOT
ATOM      1  C   UNL     1       6.449   5.025  18.176  0.00  0.00    +0.000 C 
ENDROOT
BRANCH   1   2
ATOM      2  O   UNL     1       7.160   3.997  17.482  0.00  0.00    +0.000 OA
ATOM      3  H   UNL     1       6.521   3.489  16.954  0.00  0.00    +0.000 HD
ENDBRANCH   1   2
BRANCH   1   4
ATOM      4  C   UNL     1       5.199   4.510  18.962  0.00  0.00    +0.000 C 
BRANCH   4  14
ATOM      5  C   UNL     1       1.396   5.099  18.084  0.00  0.00    +0.000 C 
ATOM      6  C   UNL     1       2.733   5.234  18.870  0.00  0.00    +0.000 C 
ATOM      7  C   UNL     1       3.075   6.728  18.612  0.00  0.00    +0.000 C 
ATOM      8  C   UNL     1       2.473   5.001  20.378  0.00  0.00    +0.000 C 
ATOM      9  C   UNL     1       2.096   3.553  20.699  0.00  0.00    +0.000 C 
ATOM     10  C   UNL     1       3.083   2.542  20.119  0.00  0.00    +0.000 C 
ATOM     11  C   UNL     1       3.432   2.795  18.632  0.00  0.00    +0.000 C 
ATOM     12  C   UNL     1       2.270   2.297  17.726  0.00  0.00    +0.000 C 
ATOM     13  C   UNL     1       4.587   1.811  18.254  0.00  0.00    +0.000 C 
ATOM     14  N   UNL     1       3.806   4.269  18.414  0.00  0.00    +0.000 NA
BRANCH   9  15
ATOM     15  O   UNL     1       2.025   3.385  22.117  0.00  0.00    +0.000 OA
ATOM     16  H   UNL     1       1.501   2.589  22.301  0.00  0.00    +0.000 HD
ENDBRANCH   9  15
ENDBRANCH   4  14
ENDBRANCH   1   4
BRANCH   1  17
ATOM     17  C   UNL     1       6.035   5.966  17.030  0.00  0.00    +0.000 C 
BRANCH  17  18
ATOM     18  O   UNL     1       6.293   7.344  17.266  0.00  0.00    +0.000 OA
BRANCH  18  19
ATOM     19  C   UNL     1       7.673   7.583  17.581  0.00  0.00    +0.000 C 
BRANCH  19  20
ATOM     20  C   UNL     1       7.957   9.064  17.845  0.00  0.00    +0.000 C 
BRANCH  20  21
ATOM     21  O   UNL     1       8.791   9.225  18.987  0.00  0.00    +0.000 OA
BRANCH  21  22
ATOM     22  C   UNL     1       9.463  10.417  19.061  0.00  0.00    +0.000 A 
ATOM     23  C   UNL     1       9.931  11.168  17.978  0.00  0.00    +0.000 A 
ATOM     24  C   UNL     1      10.572  12.392  18.188  0.00  0.00    +0.000 A 
ATOM     25  C   UNL     1      10.749  12.861  19.485  0.00  0.00    +0.000 A 
ATOM     26 BR   UNL     1      11.590  14.531  19.773  0.00  0.00    +0.000 Br
ATOM     27  C   UNL     1      10.311  12.111  20.573  0.00  0.00    +0.000 A 
ATOM     28  C   UNL     1       9.670  10.890  20.358  0.00  0.00    +0.000 A 
ENDBRANCH  21  22
ENDBRANCH  20  21
ENDBRANCH  19  20
ENDBRANCH  18  19
ENDBRANCH  17  18
ENDBRANCH   1  17
TORSDOF 10
ENDMDL
MODEL 7
REMARK VINA RESULT:      -6.8      6.131      8.359
REMARK  Name = 
REMARK  14 active torsions:
REMARK  status: ('A' for Active; 'I' for Inactive)
REMARK    1  A    between atoms: C_1  and  C_2
REMARK    2  A    between atoms: C_2  and  C_3
REMARK    3  A    between atoms: C_5  and  O_6
REMARK    4  A    between atoms: C_8  and  C_9
REMARK    5  A    between atoms: C_8  and  C_10
REMARK    6  A    between atoms: N_11  and  C_12
REMARK    7  A    between atoms: C_12  and  C_13
REMARK    8  A    between atoms: C_13  and  O_14
REMARK    9  A    between atoms: C_13  and  C_15
REMARK   10  A    between atoms: C_15  and  O_16
REMARK   11  A    between atoms: O_16  and  C_17
REMARK   12  A    between atoms: C_17  and  C_18
REMARK   13  A    between atoms: C_18  and  O_19
REMARK   14  A    between atoms: O_19  and  C_20
REMARK                            x       y       z     vdW  Elec       q    Type
REMARK                         _______ _______ _______ _____ _____    ______ ____
ROOT
ATOM      1  C   UNL     1       1.856   6.987  19.980  0.00  0.00    +0.000 C 
ENDROOT
BRANCH   1   2
ATOM      2  O   UNL     1       2.065   7.770  21.158  0.00  0.00    +0.000 OA
ATOM      3  H   UNL     1       3.001   7.693  21.411  0.00  0.00    +0.000 HD
ENDBRANCH   1   2
BRANCH   1   4
ATOM      4  C   UNL     1       2.784   5.733  19.879  0.00  0.00    +0.000 C 
BRANCH   4  14
ATOM      5  C   UNL     1       1.671   2.272  18.342  0.00  0.00    +0.000 C 
ATOM      6  C   UNL     1       2.004   3.322  19.442  0.00  0.00    +0.000 C 
ATOM      7  C   UNL     1       0.596   3.557  20.057  0.00  0.00    +0.000 C 
ATOM      8  C   UNL     1       2.945   2.688  20.494  0.00  0.00    +0.000 C 
ATOM      9  C   UNL     1       4.342   2.397  19.943  0.00  0.00    +0.000 C 
ATOM     10  C   UNL     1       4.972   3.608  19.258  0.00  0.00    +0.000 C 
ATOM     11  C   UNL     1       4.027   4.319  18.258  0.00  0.00    +0.000 C 
ATOM     12  C   UNL     1       3.957   3.509  16.933  0.00  0.00    +0.000 C 
ATOM     13  C   UNL     1       4.742   5.633  17.801  0.00  0.00    +0.000 C 
ATOM     14  N   UNL     1       2.659   4.577  18.906  0.00  0.00    +0.000 NA
BRANCH   9  15
ATOM     15  O   UNL     1       5.190   1.962  21.008  0.00  0.00    +0.000 OA
ATOM     16  H   UNL     1       5.372   1.016  20.883  0.00  0.00    +0.000 HD
ENDBRANCH   9  15
ENDBRANCH   4  14
ENDBRANCH   1   4
BRANCH   1  17
ATOM     17  C   UNL     1       2.160   7.997  18.859  0.00  0.00    +0.000 C 
BRANCH  17  18
ATOM     18  O   UNL     1       1.758   9.332  19.131  0.00  0.00    +0.000 OA
BRANCH  18  19
ATOM     19  C   UNL     1       0.606   9.711  18.364  0.00  0.00    +0.000 C 
BRANCH  19  20
ATOM     20  C   UNL     1      -0.310  10.670  19.129  0.00  0.00    +0.000 C 
BRANCH  20  21
ATOM     21  O   UNL     1      -0.839  11.666  18.262  0.00  0.00    +0.000 OA
BRANCH  21  22
ATOM     22  C   UNL     1      -2.204  11.664  18.129  0.00  0.00    +0.000 A 
ATOM     23  C   UNL     1      -2.921  11.259  16.999  0.00  0.00    +0.000 A 
ATOM     24  C   UNL     1      -4.319  11.270  17.005  0.00  0.00    +0.000 A 
ATOM     25  C   UNL     1      -4.998  11.693  18.142  0.00  0.00    +0.000 A 
ATOM     26 BR   UNL     1      -6.889  11.681  18.166  0.00  0.00    +0.000 Br
ATOM     27  C   UNL     1      -4.295  12.123  19.265  0.00  0.00    +0.000 A 
ATOM     28  C   UNL     1      -2.900  12.108  19.255  0.00  0.00    +0.000 A 
ENDBRANCH  21  22
ENDBRANCH  20  21
ENDBRANCH  19  20
ENDBRANCH  18  19
ENDBRANCH  17  18
ENDBRANCH   1  17
TORSDOF 10
ENDMDL
MODEL 8
REMARK VINA RESULT:      -6.8      3.784      6.651
REMARK  Name = 
REMARK  14 active torsions:
REMARK  status: ('A' for Active; 'I' for Inactive)
REMARK    1  A    between atoms: C_1  and  C_2
REMARK    2  A    between atoms: C_2  and  C_3
REMARK    3  A    between atoms: C_5  and  O_6
REMARK    4  A    between atoms: C_8  and  C_9
REMARK    5  A    between atoms: C_8  and  C_10
REMARK    6  A    between atoms: N_11  and  C_12
REMARK    7  A    between atoms: C_12  and  C_13
REMARK    8  A    between atoms: C_13  and  O_14
REMARK    9  A    between atoms: C_13  and  C_15
REMARK   10  A    between atoms: C_15  and  O_16
REMARK   11  A    between atoms: O_16  and  C_17
REMARK   12  A    between atoms: C_17  and  C_18
REMARK   13  A    between atoms: C_18  and  O_19
REMARK   14  A    between atoms: O_19  and  C_20
REMARK                            x       y       z     vdW  Elec       q    Type
REMARK                         _______ _______ _______ _____ _____    ______ ____
ROOT
ATOM      1  C   UNL     1       4.069   3.094  18.898  0.00  0.00    +0.000 C 
ENDROOT
BRANCH   1   2
ATOM      2  O   UNL     1       4.340   1.837  18.272  0.00  0.00    +0.000 OA
ATOM      3  H   UNL     1       3.996   1.871  17.363  0.00  0.00    +0.000 HD
ENDBRANCH   1   2
BRANCH   1   4
ATOM      4  C   UNL     1       5.293   4.066  18.927  0.00  0.00    +0.000 C 
BRANCH   4  14
ATOM      5  C   UNL     1       4.556   7.009  16.402  0.00  0.00    +0.000 C 
ATOM      6  C   UNL     1       4.546   5.560  16.972  0.00  0.00    +0.000 C 
ATOM      7  C   UNL     1       3.033   5.375  17.275  0.00  0.00    +0.000 C 
ATOM      8  C   UNL     1       4.993   4.568  15.872  0.00  0.00    +0.000 C 
ATOM      9  C   UNL     1       6.469   4.719  15.499  0.00  0.00    +0.000 C 
ATOM     10  C   UNL     1       7.393   4.690  16.715  0.00  0.00    +0.000 C 
ATOM     11  C   UNL     1       6.929   5.609  17.872  0.00  0.00    +0.000 C 
ATOM     12  C   UNL     1       7.283   7.088  17.543  0.00  0.00    +0.000 C 
ATOM     13  C   UNL     1       7.857   5.316  19.096  0.00  0.00    +0.000 C 
ATOM     14  N   UNL     1       5.442   5.375  18.177  0.00  0.00    +0.000 NA
BRANCH   9  15
ATOM     15  O   UNL     1       6.840   3.674  14.598  0.00  0.00    +0.000 OA
ATOM     16  H   UNL     1       7.646   3.252  14.939  0.00  0.00    +0.000 HD
ENDBRANCH   9  15
ENDBRANCH   4  14
ENDBRANCH   1   4
BRANCH   1  17
ATOM     17  C   UNL     1       3.662   2.669  20.320  0.00  0.00    +0.000 C 
BRANCH  17  18
ATOM     18  O   UNL     1       2.313   2.956  20.667  0.00  0.00    +0.000 OA
BRANCH  18  19
ATOM     19  C   UNL     1       2.207   4.147  21.460  0.00  0.00    +0.000 C 
BRANCH  19  20
ATOM     20  C   UNL     1       1.463   5.266  20.726  0.00  0.00    +0.000 C 
BRANCH  20  21
ATOM     21  O   UNL     1       2.367   6.272  20.284  0.00  0.00    +0.000 OA
BRANCH  21  22
ATOM     22  C   UNL     1       1.827   7.522  20.131  0.00  0.00    +0.000 A 
ATOM     23  C   UNL     1       1.150   8.254  21.112  0.00  0.00    +0.000 A 
ATOM     24  C   UNL     1       0.678   9.541  20.837  0.00  0.00    +0.000 A 
ATOM     25  C   UNL     1       0.879  10.091  19.577  0.00  0.00    +0.000 A 
ATOM     26 BR   UNL     1       0.268  11.843  19.209  0.00  0.00    +0.000 Br
ATOM     27  C   UNL     1       1.529   9.363  18.583  0.00  0.00    +0.000 A 
ATOM     28  C   UNL     1       2.000   8.080  18.862  0.00  0.00    +0.000 A 
ENDBRANCH  21  22
ENDBRANCH  20  21
ENDBRANCH  19  20
ENDBRANCH  18  19
ENDBRANCH  17  18
ENDBRANCH   1  17
TORSDOF 10
ENDMDL
MODEL 9
REMARK VINA RESULT:      -6.6      5.988      8.042
REMARK  Name = 
REMARK  14 active torsions:
REMARK  status: ('A' for Active; 'I' for Inactive)
REMARK    1  A    between atoms: C_1  and  C_2
REMARK    2  A    between atoms: C_2  and  C_3
REMARK    3  A    between atoms: C_5  and  O_6
REMARK    4  A    between atoms: C_8  and  C_9
REMARK    5  A    between atoms: C_8  and  C_10
REMARK    6  A    between atoms: N_11  and  C_12
REMARK    7  A    between atoms: C_12  and  C_13
REMARK    8  A    between atoms: C_13  and  O_14
REMARK    9  A    between atoms: C_13  and  C_15
REMARK   10  A    between atoms: C_15  and  O_16
REMARK   11  A    between atoms: O_16  and  C_17
REMARK   12  A    between atoms: C_17  and  C_18
REMARK   13  A    between atoms: C_18  and  O_19
REMARK   14  A    between atoms: O_19  and  C_20
REMARK                            x       y       z     vdW  Elec       q    Type
REMARK                         _______ _______ _______ _____ _____    ______ ____
ROOT
ATOM      1  C   UNL     1       2.533   7.260  19.701  0.00  0.00    +0.000 C 
ENDROOT
BRANCH   1   2
ATOM      2  O   UNL     1       1.929   7.667  18.471  0.00  0.00    +0.000 OA
ATOM      3  H   UNL     1       1.427   8.484  18.636  0.00  0.00    +0.000 HD
ENDBRANCH   1   2
BRANCH   1   4
ATOM      4  C   UNL     1       3.054   5.785  19.695  0.00  0.00    +0.000 C 
BRANCH   4  14
ATOM      5  C   UNL     1       1.168   2.462  18.707  0.00  0.00    +0.000 C 
ATOM      6  C   UNL     1       1.909   3.484  19.618  0.00  0.00    +0.000 C 
ATOM      7  C   UNL     1       0.760   3.910  20.574  0.00  0.00    +0.000 C 
ATOM      8  C   UNL     1       3.021   2.759  20.412  0.00  0.00    +0.000 C 
ATOM      9  C   UNL     1       4.171   2.280  19.524  0.00  0.00    +0.000 C 
ATOM     10  C   UNL     1       4.726   3.386  18.628  0.00  0.00    +0.000 C 
ATOM     11  C   UNL     1       3.634   4.190  17.881  0.00  0.00    +0.000 C 
ATOM     12  C   UNL     1       3.110   3.366  16.670  0.00  0.00    +0.000 C 
ATOM     13  C   UNL     1       4.345   5.392  17.177  0.00  0.00    +0.000 C 
ATOM     14  N   UNL     1       2.534   4.634  18.857  0.00  0.00    +0.000 NA
BRANCH   9  15
ATOM     15  O   UNL     1       5.221   1.764  20.344  0.00  0.00    +0.000 OA
ATOM     16  H   UNL     1       5.588   2.499  20.863  0.00  0.00    +0.000 HD
ENDBRANCH   9  15
ENDBRANCH   4  14
ENDBRANCH   1   4
BRANCH   1  17
ATOM     17  C   UNL     1       1.381   7.438  20.706  0.00  0.00    +0.000 C 
BRANCH  17  18
ATOM     18  O   UNL     1       1.275   8.738  21.271  0.00  0.00    +0.000 OA
BRANCH  18  19
ATOM     19  C   UNL     1      -0.089   9.100  21.529  0.00  0.00    +0.000 C 
BRANCH  19  20
ATOM     20  C   UNL     1      -0.280   9.667  22.938  0.00  0.00    +0.000 C 
BRANCH  20  21
ATOM     21  O   UNL     1      -0.178  11.086  22.932  0.00  0.00    +0.000 OA
BRANCH  21  22
ATOM     22  C   UNL     1      -1.317  11.755  22.565  0.00  0.00    +0.000 A 
ATOM     23  C   UNL     1      -2.508  11.818  23.295  0.00  0.00    +0.000 A 
ATOM     24  C   UNL     1      -3.589  12.570  22.825  0.00  0.00    +0.000 A 
ATOM     25  C   UNL     1      -3.477  13.255  21.621  0.00  0.00    +0.000 A 
ATOM     26 BR   UNL     1      -4.926  14.298  20.996  0.00  0.00    +0.000 Br
ATOM     27  C   UNL     1      -2.305  13.181  20.872  0.00  0.00    +0.000 A 
ATOM     28  C   UNL     1      -1.228  12.430  21.345  0.00  0.00    +0.000 A 
ENDBRANCH  21  22
ENDBRANCH  20  21
ENDBRANCH  19  20
ENDBRANCH  18  19
ENDBRANCH  17  18
ENDBRANCH   1  17
TORSDOF 10
ENDMDL
