MODEL 1
REMARK VINA RESULT:      -7.8      0.000      0.000
REMARK  Name = 
REMARK  8 active torsions:
REMARK  status: ('A' for Active; 'I' for Inactive)
REMARK    1  A    between atoms: C_1  and  C_2
REMARK    2  A    between atoms: C_2  and  C_3
REMARK    3  A    between atoms: C_3  and  C_4
REMARK    4  A    between atoms: N_6  and  C_7
REMARK    5  A    between atoms: C_7  and  C_8
REMARK    6  A    between atoms: C_11  and  C_12
REMARK    7  A    between atoms: C_21  and  N_22
REMARK    8  A    between atoms: C_23  and  C_24
REMARK                            x       y       z     vdW  Elec       q    Type
REMARK                         _______ _______ _______ _____ _____    ______ ____
ROOT
ATOM      1  C   UNL     1       2.796   6.854  19.447  0.00  0.00    +0.000 C 
ATOM      2  C   UNL     1       3.110   7.290  18.020  0.00  0.00    +0.000 C 
ATOM      3  N   UNL     1       3.732   6.119  17.377  0.00  0.00    +0.000 NA
ATOM      4  C   UNL     1       3.024   4.952  17.959  0.00  0.00    +0.000 C 
ATOM      5  C   UNL     1       2.240   5.449  19.197  0.00  0.00    +0.000 C 
ENDROOT
BRANCH   5   6
ATOM      6  N   UNL     1       2.268   4.550  20.342  0.00  0.00    +0.000 N 
ATOM      7  C   UNL     1       1.467   3.440  20.472  0.00  0.00    +0.000 C 
ATOM      8  C   UNL     1       1.713   2.640  21.722  0.00  0.00    +0.000 C 
ATOM      9  O   UNL     1       0.623   3.103  19.649  0.00  0.00    +0.000 OA
ATOM     10  H   UNL     1       2.961   4.732  21.056  0.00  0.00    +0.000 HD
ENDBRANCH   5   6
BRANCH   1  11
ATOM     11  C   UNL     1       1.852   7.840  20.144  0.00  0.00    +0.000 C 
BRANCH  11  13
ATOM     12  C   UNL     1       0.370   9.865  19.924  0.00  0.00    +0.000 C 
ATOM     13  C   UNL     1       1.369   8.959  19.224  0.00  0.00    +0.000 C 
ENDBRANCH  11  13
ENDBRANCH   1  11
BRANCH   3  14
ATOM     14  C   UNL     1       5.191   6.011  17.650  0.00  0.00    +0.000 C 
BRANCH  14  15
ATOM     15  C   UNL     1       6.014   5.696  16.442  0.00  0.00    +0.000 A 
ATOM     16  N   UNL     1       7.282   5.938  16.178  0.00  0.00    +0.000 NA
ATOM     17  N   UNL     1       7.541   5.354  14.951  0.00  0.00    +0.000 NA
ATOM     18  C   UNL     1       6.412   4.803  14.551  0.00  0.00    +0.000 A 
ATOM     19  O   UNL     1       5.385   5.019  15.430  0.00  0.00    +0.000 OA
BRANCH  18  20
ATOM     20  C   UNL     1       6.124   3.959  13.399  0.00  0.00    +0.000 A 
ATOM     21  C   UNL     1       4.804   3.828  12.939  0.00  0.00    +0.000 A 
ATOM     22  C   UNL     1       4.510   3.072  11.799  0.00  0.00    +0.000 A 
ATOM     23  C   UNL     1       5.537   2.434  11.108  0.00  0.00    +0.000 A 
ATOM     24  C   UNL     1       6.843   2.550  11.566  0.00  0.00    +0.000 A 
ATOM     25  F   UNL     1       7.832   1.940  10.901  0.00  0.00    +0.000 F 
ATOM     26  C   UNL     1       7.145   3.300  12.699  0.00  0.00    +0.000 A 
ENDBRANCH  18  20
ENDBRANCH  14  15
ENDBRANCH   3  14
TORSDOF 6
ENDMDL
MODEL 2
REMARK VINA RESULT:      -7.8      1.733      3.217
REMARK  Name = 
REMARK  8 active torsions:
REMARK  status: ('A' for Active; 'I' for Inactive)
REMARK    1  A    between atoms: C_1  and  C_2
REMARK    2  A    between atoms: C_2  and  C_3
REMARK    3  A    between atoms: C_3  and  C_4
REMARK    4  A    between atoms: N_6  and  C_7
REMARK    5  A    between atoms: C_7  and  C_8
REMARK    6  A    between atoms: C_11  and  C_12
REMARK    7  A    between atoms: C_21  and  N_22
REMARK    8  A    between atoms: C_23  and  C_24
REMARK                            x       y       z     vdW  Elec       q    Type
REMARK                         _______ _______ _______ _____ _____    ______ ____
ROOT
ATOM      1  C   UNL     1       3.153   4.321  18.479  0.00  0.00    +0.000 C 
ATOM      2  C   UNL     1       4.434   3.775  17.857  0.00  0.00    +0.000 C 
ATOM      3  N   UNL     1       5.452   4.819  18.069  0.00  0.00    +0.000 NA
ATOM      4  C   UNL     1       5.124   5.398  19.395  0.00  0.00    +0.000 C 
ATOM      5  C   UNL     1       3.703   4.919  19.778  0.00  0.00    +0.000 C 
ENDROOT
BRANCH   5   6
ATOM      6  N   UNL     1       2.864   5.929  20.408  0.00  0.00    +0.000 N 
ATOM      7  C   UNL     1       2.357   7.027  19.755  0.00  0.00    +0.000 C 
ATOM      8  C   UNL     1       1.477   7.903  20.604  0.00  0.00    +0.000 C 
ATOM      9  O   UNL     1       2.580   7.289  18.577  0.00  0.00    +0.000 OA
ATOM     10  H   UNL     1       2.600   5.775  21.373  0.00  0.00    +0.000 HD
ENDBRANCH   5   6
BRANCH   1  11
ATOM     11  C   UNL     1       2.091   3.226  18.637  0.00  0.00    +0.000 C 
BRANCH  11  13
ATOM     12  C   UNL     1       1.157   2.812  20.939  0.00  0.00    +0.000 C 
ATOM     13  C   UNL     1       1.001   3.590  19.643  0.00  0.00    +0.000 C 
ENDBRANCH  11  13
ENDBRANCH   1  11
BRANCH   3  14
ATOM     14  C   UNL     1       5.418   5.886  17.031  0.00  0.00    +0.000 C 
BRANCH  14  15
ATOM     15  C   UNL     1       6.163   5.542  15.782  0.00  0.00    +0.000 A 
ATOM     16  N   UNL     1       7.407   5.790  15.427  0.00  0.00    +0.000 NA
ATOM     17  N   UNL     1       7.592   5.170  14.204  0.00  0.00    +0.000 NA
ATOM     18  C   UNL     1       6.447   4.593  13.897  0.00  0.00    +0.000 A 
ATOM     19  O   UNL     1       5.478   4.826  14.835  0.00  0.00    +0.000 OA
BRANCH  18  20
ATOM     20  C   UNL     1       6.096   3.710  12.794  0.00  0.00    +0.000 A 
ATOM     21  C   UNL     1       7.065   2.852  12.247  0.00  0.00    +0.000 A 
ATOM     22  C   UNL     1       6.736   1.952  11.228  0.00  0.00    +0.000 A 
ATOM     23  C   UNL     1       5.432   1.902  10.741  0.00  0.00    +0.000 A 
ATOM     24  C   UNL     1       4.473   2.756  11.271  0.00  0.00    +0.000 A 
ATOM     25  F   UNL     1       3.218   2.707  10.806  0.00  0.00    +0.000 F 
ATOM     26  C   UNL     1       4.790   3.655  12.285  0.00  0.00    +0.000 A 
ENDBRANCH  18  20
ENDBRANCH  14  15
ENDBRANCH   3  14
TORSDOF 6
ENDMDL
MODEL 3
REMARK VINA RESULT:      -7.8      1.857      3.236
REMARK  Name = 
REMARK  8 active torsions:
REMARK  status: ('A' for Active; 'I' for Inactive)
REMARK    1  A    between atoms: C_1  and  C_2
REMARK    2  A    between atoms: C_2  and  C_3
REMARK    3  A    between atoms: C_3  and  C_4
REMARK    4  A    between atoms: N_6  and  C_7
REMARK    5  A    between atoms: C_7  and  C_8
REMARK    6  A    between atoms: C_11  and  C_12
REMARK    7  A    between atoms: C_21  and  N_22
REMARK    8  A    between atoms: C_23  and  C_24
REMARK                            x       y       z     vdW  Elec       q    Type
REMARK                         _______ _______ _______ _____ _____    ______ ____
ROOT
ATOM      1  C   UNL     1       3.211   4.794  17.734  0.00  0.00    +0.000 C 
ATOM      2  C   UNL     1       4.441   4.029  17.256  0.00  0.00    +0.000 C 
ATOM      3  N   UNL     1       5.599   4.792  17.754  0.00  0.00    +0.000 NA
ATOM      4  C   UNL     1       5.166   5.311  19.074  0.00  0.00    +0.000 C 
ATOM      5  C   UNL     1       3.631   5.135  19.167  0.00  0.00    +0.000 C 
ENDROOT
BRANCH   5   6
ATOM      6  N   UNL     1       2.922   6.250  19.780  0.00  0.00    +0.000 N 
ATOM      7  C   UNL     1       1.807   6.112  20.573  0.00  0.00    +0.000 C 
ATOM      8  C   UNL     1       1.279   7.405  21.131  0.00  0.00    +0.000 C 
ATOM      9  O   UNL     1       1.273   5.038  20.826  0.00  0.00    +0.000 OA
ATOM     10  H   UNL     1       3.314   7.174  19.653  0.00  0.00    +0.000 HD
ENDBRANCH   5   6
BRANCH   1  11
ATOM     11  C   UNL     1       1.933   3.960  17.585  0.00  0.00    +0.000 C 
BRANCH  11  13
ATOM     12  C   UNL     1       1.493   2.017  19.126  0.00  0.00    +0.000 C 
ATOM     13  C   UNL     1       2.158   2.470  17.837  0.00  0.00    +0.000 C 
ENDBRANCH  11  13
ENDBRANCH   1  11
BRANCH   3  14
ATOM     14  C   UNL     1       5.975   5.925  16.865  0.00  0.00    +0.000 C 
BRANCH  14  15
ATOM     15  C   UNL     1       6.548   5.503  15.550  0.00  0.00    +0.000 A 
ATOM     16  N   UNL     1       7.757   5.655  15.050  0.00  0.00    +0.000 NA
ATOM     17  N   UNL     1       7.758   4.997  13.833  0.00  0.00    +0.000 NA
ATOM     18  C   UNL     1       6.549   4.496  13.674  0.00  0.00    +0.000 A 
ATOM     19  O   UNL     1       5.711   4.817  14.708  0.00  0.00    +0.000 OA
BRANCH  18  20
ATOM     20  C   UNL     1       6.014   3.616  12.644  0.00  0.00    +0.000 A 
ATOM     21  C   UNL     1       6.789   2.548  12.164  0.00  0.00    +0.000 A 
ATOM     22  C   UNL     1       6.275   1.653  11.219  0.00  0.00    +0.000 A 
ATOM     23  C   UNL     1       4.978   1.821  10.740  0.00  0.00    +0.000 A 
ATOM     24  C   UNL     1       4.212   2.883  11.203  0.00  0.00    +0.000 A 
ATOM     25  F   UNL     1       2.964   3.044  10.746  0.00  0.00    +0.000 F 
ATOM     26  C   UNL     1       4.714   3.778  12.143  0.00  0.00    +0.000 A 
ENDBRANCH  18  20
ENDBRANCH  14  15
ENDBRANCH   3  14
TORSDOF 6
ENDMDL
MODEL 4
REMARK VINA RESULT:      -7.7      4.294      8.843
REMARK  Name = 
REMARK  8 active torsions:
REMARK  status: ('A' for Active; 'I' for Inactive)
REMARK    1  A    between atoms: C_1  and  C_2
REMARK    2  A    between atoms: C_2  and  C_3
REMARK    3  A    between atoms: C_3  and  C_4
REMARK    4  A    between atoms: N_6  and  C_7
REMARK    5  A    between atoms: C_7  and  C_8
REMARK    6  A    between atoms: C_11  and  C_12
REMARK    7  A    between atoms: C_21  and  N_22
REMARK    8  A    between atoms: C_23  and  C_24
REMARK                            x       y       z     vdW  Elec       q    Type
REMARK                         _______ _______ _______ _____ _____    ______ ____
ROOT
ATOM      1  C   UNL     1       5.036   4.545  16.738  0.00  0.00    +0.000 C 
ATOM      2  C   UNL     1       4.883   6.004  16.319  0.00  0.00    +0.000 C 
ATOM      3  N   UNL     1       4.467   6.722  17.536  0.00  0.00    +0.000 NA
ATOM      4  C   UNL     1       5.193   6.045  18.638  0.00  0.00    +0.000 C 
ATOM      5  C   UNL     1       5.750   4.712  18.083  0.00  0.00    +0.000 C 
ENDROOT
BRANCH   5   6
ATOM      6  N   UNL     1       5.648   3.579  18.992  0.00  0.00    +0.000 N 
ATOM      7  C   UNL     1       4.470   3.139  19.548  0.00  0.00    +0.000 C 
ATOM      8  C   UNL     1       4.610   1.920  20.418  0.00  0.00    +0.000 C 
ATOM      9  O   UNL     1       3.381   3.672  19.360  0.00  0.00    +0.000 OA
ATOM     10  H   UNL     1       6.495   3.055  19.177  0.00  0.00    +0.000 HD
ENDBRANCH   5   6
BRANCH   1  11
ATOM     11  C   UNL     1       5.780   3.727  15.675  0.00  0.00    +0.000 C 
BRANCH  11  13
ATOM     12  C   UNL     1       6.449   3.954  13.258  0.00  0.00    +0.000 C 
ATOM     13  C   UNL     1       6.482   4.597  14.634  0.00  0.00    +0.000 C 
ENDBRANCH  11  13
ENDBRANCH   1  11
BRANCH   3  14
ATOM     14  C   UNL     1       3.000   6.652  17.782  0.00  0.00    +0.000 C 
BRANCH  14  15
ATOM     15  C   UNL     1       2.385   7.960  18.164  0.00  0.00    +0.000 A 
ATOM     16  N   UNL     1       2.190   9.057  17.462  0.00  0.00    +0.000 NA
ATOM     17  N   UNL     1       1.503   9.929  18.288  0.00  0.00    +0.000 NA
ATOM     18  C   UNL     1       1.332   9.305  19.436  0.00  0.00    +0.000 A 
ATOM     19  O   UNL     1       1.907   8.063  19.446  0.00  0.00    +0.000 OA
BRANCH  18  20
ATOM     20  C   UNL     1       0.580   9.690  20.623  0.00  0.00    +0.000 A 
ATOM     21  C   UNL     1       0.108   8.702  21.504  0.00  0.00    +0.000 A 
ATOM     22  C   UNL     1      -0.563   9.050  22.680  0.00  0.00    +0.000 A 
ATOM     23  C   UNL     1      -0.774  10.392  22.988  0.00  0.00    +0.000 A 
ATOM     24  C   UNL     1      -0.319  11.371  22.114  0.00  0.00    +0.000 A 
ATOM     25  F   UNL     1      -0.518  12.662  22.410  0.00  0.00    +0.000 F 
ATOM     26  C   UNL     1       0.350  11.036  20.941  0.00  0.00    +0.000 A 
ENDBRANCH  18  20
ENDBRANCH  14  15
ENDBRANCH   3  14
TORSDOF 6
ENDMDL
MODEL 5
REMARK VINA RESULT:      -7.6      0.946      1.349
REMARK  Name = 
REMARK  8 active torsions:
REMARK  status: ('A' for Active; 'I' for Inactive)
REMARK    1  A    between atoms: C_1  and  C_2
REMARK    2  A    between atoms: C_2  and  C_3
REMARK    3  A    between atoms: C_3  and  C_4
REMARK    4  A    between atoms: N_6  and  C_7
REMARK    5  A    between atoms: C_7  and  C_8
REMARK    6  A    between atoms: C_11  and  C_12
REMARK    7  A    between atoms: C_21  and  N_22
REMARK    8  A    between atoms: C_23  and  C_24
REMARK                            x       y       z     vdW  Elec       q    Type
REMARK                         _______ _______ _______ _____ _____    ______ ____
ROOT
ATOM      1  C   UNL     1       2.831   6.735  19.297  0.00  0.00    +0.000 C 
ATOM      2  C   UNL     1       3.137   7.110  17.850  0.00  0.00    +0.000 C 
ATOM      3  N   UNL     1       3.733   5.904  17.248  0.00  0.00    +0.000 NA
ATOM      4  C   UNL     1       3.011   4.773  17.881  0.00  0.00    +0.000 C 
ATOM      5  C   UNL     1       2.248   5.331  19.106  0.00  0.00    +0.000 C 
ENDROOT
BRANCH   5   6
ATOM      6  N   UNL     1       2.272   4.477  20.285  0.00  0.00    +0.000 N 
ATOM      7  C   UNL     1       1.462   3.380  20.460  0.00  0.00    +0.000 C 
ATOM      8  C   UNL     1       1.705   2.626  21.739  0.00  0.00    +0.000 C 
ATOM      9  O   UNL     1       0.610   3.019  19.654  0.00  0.00    +0.000 OA
ATOM     10  H   UNL     1       2.970   4.680  20.989  0.00  0.00    +0.000 HD
ENDBRANCH   5   6
BRANCH   1  11
ATOM     11  C   UNL     1       1.910   7.763  19.963  0.00  0.00    +0.000 C 
BRANCH  11  13
ATOM     12  C   UNL     1       0.389   9.674  19.346  0.00  0.00    +0.000 C 
ATOM     13  C   UNL     1       1.761   9.049  19.152  0.00  0.00    +0.000 C 
ENDBRANCH  11  13
ENDBRANCH   1  11
BRANCH   3  14
ATOM     14  C   UNL     1       5.192   5.781  17.511  0.00  0.00    +0.000 C 
BRANCH  14  15
ATOM     15  C   UNL     1       6.012   5.531  16.286  0.00  0.00    +0.000 A 
ATOM     16  N   UNL     1       7.271   5.815  16.021  0.00  0.00    +0.000 NA
ATOM     17  N   UNL     1       7.534   5.281  14.772  0.00  0.00    +0.000 NA
ATOM     18  C   UNL     1       6.416   4.715  14.362  0.00  0.00    +0.000 A 
ATOM     19  O   UNL     1       5.392   4.874  15.255  0.00  0.00    +0.000 OA
BRANCH  18  20
ATOM     20  C   UNL     1       6.140   3.905  13.183  0.00  0.00    +0.000 A 
ATOM     21  C   UNL     1       7.176   3.177  12.575  0.00  0.00    +0.000 A 
ATOM     22  C   UNL     1       6.924   2.345  11.479  0.00  0.00    +0.000 A 
ATOM     23  C   UNL     1       5.630   2.234  10.976  0.00  0.00    +0.000 A 
ATOM     24  C   UNL     1       4.605   2.961  11.567  0.00  0.00    +0.000 A 
ATOM     25  F   UNL     1       3.359   2.854  11.086  0.00  0.00    +0.000 F 
ATOM     26  C   UNL     1       4.845   3.792  12.657  0.00  0.00    +0.000 A 
ENDBRANCH  18  20
ENDBRANCH  14  15
ENDBRANCH   3  14
TORSDOF 6
ENDMDL
MODEL 6
REMARK VINA RESULT:      -7.6      4.165      8.783
REMARK  Name = 
REMARK  8 active torsions:
REMARK  status: ('A' for Active; 'I' for Inactive)
REMARK    1  A    between atoms: C_1  and  C_2
REMARK    2  A    between atoms: C_2  and  C_3
REMARK    3  A    between atoms: C_3  and  C_4
REMARK    4  A    between atoms: N_6  and  C_7
REMARK    5  A    between atoms: C_7  and  C_8
REMARK    6  A    between atoms: C_11  and  C_12
REMARK    7  A    between atoms: C_21  and  N_22
REMARK    8  A    between atoms: C_23  and  C_24
REMARK                            x       y       z     vdW  Elec       q    Type
REMARK                         _______ _______ _______ _____ _____    ______ ____
ROOT
ATOM      1  C   UNL     1       4.983   4.650  16.801  0.00  0.00    +0.000 C 
ATOM      2  C   UNL     1       5.038   6.174  16.846  0.00  0.00    +0.000 C 
ATOM      3  N   UNL     1       4.332   6.557  18.082  0.00  0.00    +0.000 NA
ATOM      4  C   UNL     1       4.675   5.492  19.055  0.00  0.00    +0.000 C 
ATOM      5  C   UNL     1       5.292   4.314  18.264  0.00  0.00    +0.000 C 
ENDROOT
BRANCH   5   6
ATOM      6  N   UNL     1       4.872   2.991  18.706  0.00  0.00    +0.000 N 
ATOM      7  C   UNL     1       3.676   2.406  18.360  0.00  0.00    +0.000 C 
ATOM      8  C   UNL     1       3.487   1.015  18.899  0.00  0.00    +0.000 C 
ATOM      9  O   UNL     1       2.823   2.947  17.665  0.00  0.00    +0.000 OA
ATOM     10  H   UNL     1       5.531   2.456  19.256  0.00  0.00    +0.000 HD
ENDBRANCH   5   6
BRANCH   1  11
ATOM     11  C   UNL     1       5.953   4.081  15.759  0.00  0.00    +0.000 C 
BRANCH  11  13
ATOM     12  C   UNL     1       6.154   3.735  13.272  0.00  0.00    +0.000 C 
ATOM     13  C   UNL     1       5.784   4.710  14.377  0.00  0.00    +0.000 C 
ENDBRANCH  11  13
ENDBRANCH   1  11
BRANCH   3  14
ATOM     14  C   UNL     1       2.855   6.628  17.911  0.00  0.00    +0.000 C 
BRANCH  14  15
ATOM     15  C   UNL     1       2.273   7.972  18.210  0.00  0.00    +0.000 A 
ATOM     16  N   UNL     1       2.075   9.017  17.432  0.00  0.00    +0.000 NA
ATOM     17  N   UNL     1       1.426   9.961  18.208  0.00  0.00    +0.000 NA
ATOM     18  C   UNL     1       1.280   9.429  19.405  0.00  0.00    +0.000 A 
ATOM     19  O   UNL     1       1.835   8.181  19.493  0.00  0.00    +0.000 OA
BRANCH  18  20
ATOM     20  C   UNL     1       0.570   9.916  20.580  0.00  0.00    +0.000 A 
ATOM     21  C   UNL     1      -0.338  10.981  20.457  0.00  0.00    +0.000 A 
ATOM     22  C   UNL     1      -1.076  11.427  21.559  0.00  0.00    +0.000 A 
ATOM     23  C   UNL     1      -0.911  10.814  22.798  0.00  0.00    +0.000 A 
ATOM     24  C   UNL     1      -0.005   9.768  22.927  0.00  0.00    +0.000 A 
ATOM     25  F   UNL     1       0.153   9.176  24.117  0.00  0.00    +0.000 F 
ATOM     26  C   UNL     1       0.734   9.317  21.837  0.00  0.00    +0.000 A 
ENDBRANCH  18  20
ENDBRANCH  14  15
ENDBRANCH   3  14
TORSDOF 6
ENDMDL
MODEL 7
REMARK VINA RESULT:      -7.4      4.011      8.589
REMARK  Name = 
REMARK  8 active torsions:
REMARK  status: ('A' for Active; 'I' for Inactive)
REMARK    1  A    between atoms: C_1  and  C_2
REMARK    2  A    between atoms: C_2  and  C_3
REMARK    3  A    between atoms: C_3  and  C_4
REMARK    4  A    between atoms: N_6  and  C_7
REMARK    5  A    between atoms: C_7  and  C_8
REMARK    6  A    between atoms: C_11  and  C_12
REMARK    7  A    between atoms: C_21  and  N_22
REMARK    8  A    between atoms: C_23  and  C_24
REMARK                            x       y       z     vdW  Elec       q    Type
REMARK                         _______ _______ _______ _____ _____    ______ ____
ROOT
ATOM      1  C   UNL     1       6.809   6.060  18.024  0.00  0.00    +0.000 C 
ATOM      2  C   UNL     1       6.058   5.618  19.276  0.00  0.00    +0.000 C 
ATOM      3  N   UNL     1       5.210   4.490  18.850  0.00  0.00    +0.000 NA
ATOM      4  C   UNL     1       6.022   3.773  17.837  0.00  0.00    +0.000 C 
ATOM      5  C   UNL     1       7.193   4.701  17.431  0.00  0.00    +0.000 C 
ENDROOT
BRANCH   5   6
ATOM      6  N   UNL     1       7.509   4.704  16.010  0.00  0.00    +0.000 N 
ATOM      7  C   UNL     1       6.596   4.974  15.017  0.00  0.00    +0.000 C 
ATOM      8  C   UNL     1       7.170   4.964  13.627  0.00  0.00    +0.000 C 
ATOM      9  O   UNL     1       5.411   5.213  15.221  0.00  0.00    +0.000 OA
ATOM     10  H   UNL     1       8.474   4.549  15.750  0.00  0.00    +0.000 HD
ENDBRANCH   5   6
BRANCH   1  11
ATOM     11  C   UNL     1       7.970   7.001  18.365  0.00  0.00    +0.000 C 
BRANCH  11  13
ATOM     12  C   UNL     1       8.622   9.434  18.390  0.00  0.00    +0.000 C 
ATOM     13  C   UNL     1       7.895   8.337  17.629  0.00  0.00    +0.000 C 
ENDBRANCH  11  13
ENDBRANCH   1  11
BRANCH   3  14
ATOM     14  C   UNL     1       3.921   4.925  18.246  0.00  0.00    +0.000 C 
BRANCH  14  15
ATOM     15  C   UNL     1       2.932   5.448  19.238  0.00  0.00    +0.000 A 
ATOM     16  N   UNL     1       2.338   4.857  20.255  0.00  0.00    +0.000 NA
ATOM     17  N   UNL     1       1.586   5.833  20.885  0.00  0.00    +0.000 NA
ATOM     18  C   UNL     1       1.769   6.947  20.205  0.00  0.00    +0.000 A 
ATOM     19  O   UNL     1       2.578   6.767  19.116  0.00  0.00    +0.000 OA
BRANCH  18  20
ATOM     20  C   UNL     1       1.322   8.307  20.475  0.00  0.00    +0.000 A 
ATOM     21  C   UNL     1       1.299   9.255  19.438  0.00  0.00    +0.000 A 
ATOM     22  C   UNL     1       0.818  10.550  19.659  0.00  0.00    +0.000 A 
ATOM     23  C   UNL     1       0.358  10.912  20.922  0.00  0.00    +0.000 A 
ATOM     24  C   UNL     1       0.390   9.982  21.953  0.00  0.00    +0.000 A 
ATOM     25  F   UNL     1      -0.054  10.328  23.168  0.00  0.00    +0.000 F 
ATOM     26  C   UNL     1       0.867   8.691  21.744  0.00  0.00    +0.000 A 
ENDBRANCH  18  20
ENDBRANCH  14  15
ENDBRANCH   3  14
TORSDOF 6
ENDMDL
MODEL 8
REMARK VINA RESULT:      -7.3      4.435      9.188
REMARK  Name = 
REMARK  8 active torsions:
REMARK  status: ('A' for Active; 'I' for Inactive)
REMARK    1  A    between atoms: C_1  and  C_2
REMARK    2  A    between atoms: C_2  and  C_3
REMARK    3  A    between atoms: C_3  and  C_4
REMARK    4  A    between atoms: N_6  and  C_7
REMARK    5  A    between atoms: C_7  and  C_8
REMARK    6  A    between atoms: C_11  and  C_12
REMARK    7  A    between atoms: C_21  and  N_22
REMARK    8  A    between atoms: C_23  and  C_24
REMARK                            x       y       z     vdW  Elec       q    Type
REMARK                         _______ _______ _______ _____ _____    ______ ____
ROOT
ATOM      1  C   UNL     1       5.404   5.527  18.450  0.00  0.00    +0.000 C 
ATOM      2  C   UNL     1       4.306   6.106  19.337  0.00  0.00    +0.000 C 
ATOM      3  N   UNL     1       3.136   6.276  18.457  0.00  0.00    +0.000 NA
ATOM      4  C   UNL     1       3.197   5.123  17.526  0.00  0.00    +0.000 C 
ATOM      5  C   UNL     1       4.604   4.490  17.653  0.00  0.00    +0.000 C 
ENDROOT
BRANCH   5   6
ATOM      6  N   UNL     1       5.204   4.069  16.395  0.00  0.00    +0.000 N 
ATOM      7  C   UNL     1       5.596   4.932  15.400  0.00  0.00    +0.000 C 
ATOM      8  C   UNL     1       6.234   4.263  14.213  0.00  0.00    +0.000 C 
ATOM      9  O   UNL     1       5.458   6.150  15.453  0.00  0.00    +0.000 OA
ATOM     10  H   UNL     1       5.388   3.080  16.279  0.00  0.00    +0.000 HD
ENDBRANCH   5   6
BRANCH   1  11
ATOM     11  C   UNL     1       6.573   4.985  19.281  0.00  0.00    +0.000 C 
BRANCH  11  13
ATOM     12  C   UNL     1       7.713   6.857  18.040  0.00  0.00    +0.000 C 
ATOM     13  C   UNL     1       7.842   5.825  19.148  0.00  0.00    +0.000 C 
ENDBRANCH  11  13
ENDBRANCH   1  11
BRANCH   3  14
ATOM     14  C   UNL     1       3.167   7.549  17.686  0.00  0.00    +0.000 C 
BRANCH  14  15
ATOM     15  C   UNL     1       2.098   8.520  18.072  0.00  0.00    +0.000 A 
ATOM     16  N   UNL     1       1.286   9.245  17.331  0.00  0.00    +0.000 NA
ATOM     17  N   UNL     1       0.441   9.901  18.209  0.00  0.00    +0.000 NA
ATOM     18  C   UNL     1       0.801   9.534  19.423  0.00  0.00    +0.000 A 
ATOM     19  O   UNL     1       1.879   8.690  19.415  0.00  0.00    +0.000 OA
BRANCH  18  20
ATOM     20  C   UNL     1       0.196   9.814  20.718  0.00  0.00    +0.000 A 
ATOM     21  C   UNL     1       0.419   8.945  21.798  0.00  0.00    +0.000 A 
ATOM     22  C   UNL     1      -0.102   9.225  23.066  0.00  0.00    +0.000 A 
ATOM     23  C   UNL     1      -0.856  10.378  23.266  0.00  0.00    +0.000 A 
ATOM     24  C   UNL     1      -1.089  11.235  22.198  0.00  0.00    +0.000 A 
ATOM     25  F   UNL     1      -1.811  12.346  22.390  0.00  0.00    +0.000 F 
ATOM     26  C   UNL     1      -0.575  10.965  20.933  0.00  0.00    +0.000 A 
ENDBRANCH  18  20
ENDBRANCH  14  15
ENDBRANCH   3  14
TORSDOF 6
ENDMDL
MODEL 9
REMARK VINA RESULT:      -7.3      3.630      8.484
REMARK  Name = 
REMARK  8 active torsions:
REMARK  status: ('A' for Active; 'I' for Inactive)
REMARK    1  A    between atoms: C_1  and  C_2
REMARK    2  A    between atoms: C_2  and  C_3
REMARK    3  A    between atoms: C_3  and  C_4
REMARK    4  A    between atoms: N_6  and  C_7
REMARK    5  A    between atoms: C_7  and  C_8
REMARK    6  A    between atoms: C_11  and  C_12
REMARK    7  A    between atoms: C_21  and  N_22
REMARK    8  A    between atoms: C_23  and  C_24
REMARK                            x       y       z     vdW  Elec       q    Type
REMARK                         _______ _______ _______ _____ _____    ______ ____
ROOT
ATOM      1  C   UNL     1       6.766   6.342  17.713  0.00  0.00    +0.000 C 
ATOM      2  C   UNL     1       6.043   5.656  18.868  0.00  0.00    +0.000 C 
ATOM      3  N   UNL     1       5.158   4.658  18.241  0.00  0.00    +0.000 NA
ATOM      4  C   UNL     1       5.923   4.160  17.072  0.00  0.00    +0.000 C 
ATOM      5  C   UNL     1       7.101   5.134  16.832  0.00  0.00    +0.000 C 
ENDROOT
BRANCH   5   6
ATOM      6  N   UNL     1       7.374   5.434  15.434  0.00  0.00    +0.000 N 
ATOM      7  C   UNL     1       6.978   4.641  14.383  0.00  0.00    +0.000 C 
ATOM      8  C   UNL     1       7.334   5.185  13.026  0.00  0.00    +0.000 C 
ATOM      9  O   UNL     1       6.375   3.580  14.512  0.00  0.00    +0.000 OA
ATOM     10  H   UNL     1       7.837   6.311  15.230  0.00  0.00    +0.000 HD
ENDBRANCH   5   6
BRANCH   1  11
ATOM     11  C   UNL     1       7.958   7.170  18.206  0.00  0.00    +0.000 C 
BRANCH  11  13
ATOM     12  C   UNL     1       8.749   9.531  18.590  0.00  0.00    +0.000 C 
ATOM     13  C   UNL     1       7.942   8.608  17.691  0.00  0.00    +0.000 C 
ENDBRANCH  11  13
ENDBRANCH   1  11
BRANCH   3  14
ATOM     14  C   UNL     1       3.861   5.231  17.789  0.00  0.00    +0.000 C 
BRANCH  14  15
ATOM     15  C   UNL     1       2.968   5.671  18.904  0.00  0.00    +0.000 A 
ATOM     16  N   UNL     1       2.559   5.032  19.981  0.00  0.00    +0.000 NA
ATOM     17  N   UNL     1       1.818   5.943  20.714  0.00  0.00    +0.000 NA
ATOM     18  C   UNL     1       1.823   7.069  20.029  0.00  0.00    +0.000 A 
ATOM     19  O   UNL     1       2.499   6.958  18.844  0.00  0.00    +0.000 OA
BRANCH  18  20
ATOM     20  C   UNL     1       1.309   8.389  20.371  0.00  0.00    +0.000 A 
ATOM     21  C   UNL     1       0.928   8.671  21.693  0.00  0.00    +0.000 A 
ATOM     22  C   UNL     1       0.488   9.948  22.058  0.00  0.00    +0.000 A 
ATOM     23  C   UNL     1       0.422  10.958  21.100  0.00  0.00    +0.000 A 
ATOM     24  C   UNL     1       0.786  10.680  19.789  0.00  0.00    +0.000 A 
ATOM     25  F   UNL     1       0.725  11.650  18.868  0.00  0.00    +0.000 F 
ATOM     26  C   UNL     1       1.225   9.413  19.416  0.00  0.00    +0.000 A 
ENDBRANCH  18  20
ENDBRANCH  14  15
ENDBRANCH   3  14
TORSDOF 6
ENDMDL
