MODEL 1
REMARK VINA RESULT:      -9.1      0.000      0.000
REMARK  Name = 
REMARK  7 active torsions:
REMARK  status: ('A' for Active; 'I' for Inactive)
REMARK    1  A    between atoms: C_2  and  C_3
REMARK    2  A    between atoms: C_2  and  C_22
REMARK    3  A    between atoms: C_3  and  C_4
REMARK    4  A    between atoms: C_4  and  N_5
REMARK    5  A    between atoms: C_4  and  C_15
REMARK    6  A    between atoms: N_5  and  C_6
REMARK    7  A    between atoms: C_9  and  N_10
REMARK                            x       y       z     vdW  Elec       q    Type
REMARK                         _______ _______ _______ _____ _____    ______ ____
ROOT
ATOM      1  C   UNL     1       2.612   6.143  19.328  0.00  0.00    +0.000 C 
ENDROOT
BRANCH   1   2
ATOM      2  C   UNL     1       2.070   4.721  19.509  0.00  0.00    +0.000 A 
ATOM      3  C   UNL     1       1.737   3.947  18.385  0.00  0.00    +0.000 A 
ATOM      4  C   UNL     1       1.182   2.672  18.534  0.00  0.00    +0.000 A 
ATOM      5  C   UNL     1       0.952   2.156  19.807  0.00  0.00    +0.000 A 
ATOM      6  C   UNL     1       1.300   2.907  20.922  0.00  0.00    +0.000 A 
ATOM      7  F   UNL     1       1.077   2.415  22.148  0.00  0.00    +0.000 F 
ATOM      8  C   UNL     1       1.864   4.171  20.787  0.00  0.00    +0.000 A 
ENDBRANCH   1   2
BRANCH   1   9
ATOM      9  N   UNL     1       4.082   6.075  19.440  0.00  0.00    +0.000 N 
ATOM     10  H   UNL     1       4.351   5.454  20.204  0.00  0.00    +0.000 HD
BRANCH   9  11
ATOM     11  C   UNL     1       4.876   5.811  18.315  0.00  0.00    +0.000 A 
ATOM     12  C   UNL     1       5.847   4.803  18.263  0.00  0.00    +0.000 A 
ATOM     13  C   UNL     1       6.507   4.482  17.070  0.00  0.00    +0.000 A 
ATOM     14  C   UNL     1       6.199   5.179  15.899  0.00  0.00    +0.000 A 
ATOM     15  C   UNL     1       5.244   6.195  15.919  0.00  0.00    +0.000 A 
ATOM     16  C   UNL     1       4.580   6.489  17.117  0.00  0.00    +0.000 A 
BRANCH  14  17
ATOM     17  N   UNL     1       6.865   4.821  14.640  0.00  0.00    +0.000 N 
ATOM     18  O   UNL     1       7.815   5.528  14.269  0.00  0.00    +0.000 OA
ATOM     19  O   UNL     1       6.446   3.830  14.026  0.00  0.00    +0.000 OA
ENDBRANCH  14  17
ENDBRANCH   9  11
ENDBRANCH   1   9
BRANCH   1  20
ATOM     20  C   UNL     1       2.003   7.081  20.391  0.00  0.00    +0.000 C 
BRANCH  20  22
ATOM     21  O   UNL     1       2.046   8.776  18.679  0.00  0.00    +0.000 OA
ATOM     22  C   UNL     1       1.605   8.412  19.769  0.00  0.00    +0.000 C 
BRANCH  22  23
ATOM     23  C   UNL     1       0.715   9.346  20.520  0.00  0.00    +0.000 A 
ATOM     24  C   UNL     1       0.022  10.403  19.919  0.00  0.00    +0.000 A 
ATOM     25  C   UNL     1      -0.786  11.246  20.697  0.00  0.00    +0.000 A 
ATOM     26  C   UNL     1      -0.905  11.029  22.070  0.00  0.00    +0.000 A 
ATOM     27 BR   UNL     1      -1.984  12.175  23.117  0.00  0.00    +0.000 Br
ATOM     28  C   UNL     1      -0.230   9.977  22.678  0.00  0.00    +0.000 A 
ATOM     29  C   UNL     1       0.583   9.141  21.904  0.00  0.00    +0.000 A 
ENDBRANCH  22  23
ENDBRANCH  20  22
ENDBRANCH   1  20
TORSDOF 7
ENDMDL
MODEL 2
REMARK VINA RESULT:      -9.1      0.144      1.095
REMARK  Name = 
REMARK  7 active torsions:
REMARK  status: ('A' for Active; 'I' for Inactive)
REMARK    1  A    between atoms: C_2  and  C_3
REMARK    2  A    between atoms: C_2  and  C_22
REMARK    3  A    between atoms: C_3  and  C_4
REMARK    4  A    between atoms: C_4  and  N_5
REMARK    5  A    between atoms: C_4  and  C_15
REMARK    6  A    between atoms: N_5  and  C_6
REMARK    7  A    between atoms: C_9  and  N_10
REMARK                            x       y       z     vdW  Elec       q    Type
REMARK                         _______ _______ _______ _____ _____    ______ ____
ROOT
ATOM      1  C   UNL     1       2.596   6.166  19.432  0.00  0.00    +0.000 C 
ENDROOT
BRANCH   1   2
ATOM      2  C   UNL     1       2.098   4.724  19.576  0.00  0.00    +0.000 A 
ATOM      3  C   UNL     1       1.842   3.951  18.432  0.00  0.00    +0.000 A 
ATOM      4  C   UNL     1       1.327   2.655  18.544  0.00  0.00    +0.000 A 
ATOM      5  C   UNL     1       1.061   2.118  19.801  0.00  0.00    +0.000 A 
ATOM      6  C   UNL     1       1.333   2.869  20.937  0.00  0.00    +0.000 A 
ATOM      7  F   UNL     1       1.076   2.356  22.147  0.00  0.00    +0.000 F 
ATOM      8  C   UNL     1       1.857   4.153  20.838  0.00  0.00    +0.000 A 
ENDBRANCH   1   2
BRANCH   1   9
ATOM      9  N   UNL     1       4.070   6.138  19.525  0.00  0.00    +0.000 N 
ATOM     10  H   UNL     1       4.365   5.547  20.304  0.00  0.00    +0.000 HD
BRANCH   9  11
ATOM     11  C   UNL     1       4.854   5.860  18.397  0.00  0.00    +0.000 A 
ATOM     12  C   UNL     1       5.871   4.897  18.371  0.00  0.00    +0.000 A 
ATOM     13  C   UNL     1       6.524   4.551  17.180  0.00  0.00    +0.000 A 
ATOM     14  C   UNL     1       6.161   5.179  15.985  0.00  0.00    +0.000 A 
ATOM     15  C   UNL     1       5.159   6.150  15.979  0.00  0.00    +0.000 A 
ATOM     16  C   UNL     1       4.504   6.467  17.176  0.00  0.00    +0.000 A 
BRANCH  14  17
ATOM     17  N   UNL     1       6.820   4.795  14.730  0.00  0.00    +0.000 N 
ATOM     18  O   UNL     1       6.379   3.805  14.127  0.00  0.00    +0.000 OA
ATOM     19  O   UNL     1       7.773   5.487  14.343  0.00  0.00    +0.000 OA
ENDBRANCH  14  17
ENDBRANCH   9  11
ENDBRANCH   1   9
BRANCH   1  20
ATOM     20  C   UNL     1       1.974   7.053  20.531  0.00  0.00    +0.000 C 
BRANCH  20  22
ATOM     21  O   UNL     1       1.921   8.782  18.853  0.00  0.00    +0.000 OA
ATOM     22  C   UNL     1       1.539   8.394  19.957  0.00  0.00    +0.000 C 
BRANCH  22  23
ATOM     23  C   UNL     1       0.686   9.309  20.771  0.00  0.00    +0.000 A 
ATOM     24  C   UNL     1       0.479   9.152  22.147  0.00  0.00    +0.000 A 
ATOM     25  C   UNL     1      -0.348  10.049  22.840  0.00  0.00    +0.000 A 
ATOM     26  C   UNL     1      -0.961  11.101  22.161  0.00  0.00    +0.000 A 
ATOM     27 BR   UNL     1      -2.086  12.300  23.095  0.00  0.00    +0.000 Br
ATOM     28  C   UNL     1      -0.756  11.275  20.797  0.00  0.00    +0.000 A 
ATOM     29  C   UNL     1       0.062  10.377  20.103  0.00  0.00    +0.000 A 
ENDBRANCH  22  23
ENDBRANCH  20  22
ENDBRANCH   1  20
TORSDOF 7
ENDMDL
MODEL 3
REMARK VINA RESULT:      -9.0      0.853      1.635
REMARK  Name = 
REMARK  7 active torsions:
REMARK  status: ('A' for Active; 'I' for Inactive)
REMARK    1  A    between atoms: C_2  and  C_3
REMARK    2  A    between atoms: C_2  and  C_22
REMARK    3  A    between atoms: C_3  and  C_4
REMARK    4  A    between atoms: C_4  and  N_5
REMARK    5  A    between atoms: C_4  and  C_15
REMARK    6  A    between atoms: N_5  and  C_6
REMARK    7  A    between atoms: C_9  and  N_10
REMARK                            x       y       z     vdW  Elec       q    Type
REMARK                         _______ _______ _______ _____ _____    ______ ____
ROOT
ATOM      1  C   UNL     1       2.313   6.354  19.552  0.00  0.00    +0.000 C 
ENDROOT
BRANCH   1   2
ATOM      2  C   UNL     1       1.932   4.928  19.962  0.00  0.00    +0.000 A 
ATOM      3  C   UNL     1       2.252   4.456  21.246  0.00  0.00    +0.000 A 
ATOM      4  C   UNL     1       1.968   3.138  21.615  0.00  0.00    +0.000 A 
ATOM      5  C   UNL     1       1.364   2.274  20.705  0.00  0.00    +0.000 A 
ATOM      6  C   UNL     1       1.026   2.740  19.441  0.00  0.00    +0.000 A 
ATOM      7  F   UNL     1       0.448   1.911  18.563  0.00  0.00    +0.000 F 
ATOM      8  C   UNL     1       1.292   4.053  19.067  0.00  0.00    +0.000 A 
ENDBRANCH   1   2
BRANCH   1   9
ATOM      9  N   UNL     1       3.781   6.397  19.403  0.00  0.00    +0.000 N 
ATOM     10  H   UNL     1       4.231   5.939  20.197  0.00  0.00    +0.000 HD
BRANCH   9  11
ATOM     11  C   UNL     1       4.393   5.985  18.211  0.00  0.00    +0.000 A 
ATOM     12  C   UNL     1       4.462   6.774  17.056  0.00  0.00    +0.000 A 
ATOM     13  C   UNL     1       5.214   6.378  15.941  0.00  0.00    +0.000 A 
ATOM     14  C   UNL     1       5.913   5.169  15.972  0.00  0.00    +0.000 A 
ATOM     15  C   UNL     1       5.857   4.355  17.104  0.00  0.00    +0.000 A 
ATOM     16  C   UNL     1       5.116   4.777  18.216  0.00  0.00    +0.000 A 
BRANCH  14  17
ATOM     17  N   UNL     1       6.729   4.768  14.819  0.00  0.00    +0.000 N 
ATOM     18  O   UNL     1       6.348   3.791  14.155  0.00  0.00    +0.000 OA
ATOM     19  O   UNL     1       7.745   5.432  14.571  0.00  0.00    +0.000 OA
ENDBRANCH  14  17
ENDBRANCH   9  11
ENDBRANCH   1   9
BRANCH   1  20
ATOM     20  C   UNL     1       1.819   7.360  20.614  0.00  0.00    +0.000 C 
BRANCH  20  22
ATOM     21  O   UNL     1       1.787   9.000  18.849  0.00  0.00    +0.000 OA
ATOM     22  C   UNL     1       1.375   8.659  19.958  0.00  0.00    +0.000 C 
BRANCH  22  23
ATOM     23  C   UNL     1       0.475   9.594  20.696  0.00  0.00    +0.000 A 
ATOM     24  C   UNL     1      -0.201  10.657  20.087  0.00  0.00    +0.000 A 
ATOM     25  C   UNL     1      -1.021  11.499  20.852  0.00  0.00    +0.000 A 
ATOM     26  C   UNL     1      -1.169  11.276  22.221  0.00  0.00    +0.000 A 
ATOM     27 BR   UNL     1      -2.264  12.421  23.253  0.00  0.00    +0.000 Br
ATOM     28  C   UNL     1      -0.512  10.217  22.837  0.00  0.00    +0.000 A 
ATOM     29  C   UNL     1       0.313   9.381  22.076  0.00  0.00    +0.000 A 
ENDBRANCH  22  23
ENDBRANCH  20  22
ENDBRANCH   1  20
TORSDOF 7
ENDMDL
MODEL 4
REMARK VINA RESULT:      -9.0      0.927      1.813
REMARK  Name = 
REMARK  7 active torsions:
REMARK  status: ('A' for Active; 'I' for Inactive)
REMARK    1  A    between atoms: C_2  and  C_3
REMARK    2  A    between atoms: C_2  and  C_22
REMARK    3  A    between atoms: C_3  and  C_4
REMARK    4  A    between atoms: C_4  and  N_5
REMARK    5  A    between atoms: C_4  and  C_15
REMARK    6  A    between atoms: N_5  and  C_6
REMARK    7  A    between atoms: C_9  and  N_10
REMARK                            x       y       z     vdW  Elec       q    Type
REMARK                         _______ _______ _______ _____ _____    ______ ____
ROOT
ATOM      1  C   UNL     1       2.276   6.423  19.695  0.00  0.00    +0.000 C 
ENDROOT
BRANCH   1   2
ATOM      2  C   UNL     1       1.928   4.974  20.050  0.00  0.00    +0.000 A 
ATOM      3  C   UNL     1       2.257   4.461  21.316  0.00  0.00    +0.000 A 
ATOM      4  C   UNL     1       2.004   3.123  21.634  0.00  0.00    +0.000 A 
ATOM      5  C   UNL     1       1.420   2.281  20.691  0.00  0.00    +0.000 A 
ATOM      6  C   UNL     1       1.072   2.787  19.445  0.00  0.00    +0.000 A 
ATOM      7  F   UNL     1       0.513   1.979  18.535  0.00  0.00    +0.000 F 
ATOM      8  C   UNL     1       1.307   4.119  19.122  0.00  0.00    +0.000 A 
ENDBRANCH   1   2
BRANCH   1   9
ATOM      9  N   UNL     1       3.742   6.502  19.539  0.00  0.00    +0.000 N 
ATOM     10  H   UNL     1       4.207   6.101  20.355  0.00  0.00    +0.000 HD
BRANCH   9  11
ATOM     11  C   UNL     1       4.365   6.048  18.369  0.00  0.00    +0.000 A 
ATOM     12  C   UNL     1       4.338   6.739  17.151  0.00  0.00    +0.000 A 
ATOM     13  C   UNL     1       5.101   6.319  16.053  0.00  0.00    +0.000 A 
ATOM     14  C   UNL     1       5.908   5.184  16.163  0.00  0.00    +0.000 A 
ATOM     15  C   UNL     1       5.949   4.467  17.360  0.00  0.00    +0.000 A 
ATOM     16  C   UNL     1       5.195   4.914  18.453  0.00  0.00    +0.000 A 
BRANCH  14  17
ATOM     17  N   UNL     1       6.733   4.762  15.025  0.00  0.00    +0.000 N 
ATOM     18  O   UNL     1       7.761   5.413  14.785  0.00  0.00    +0.000 OA
ATOM     19  O   UNL     1       6.360   3.774  14.376  0.00  0.00    +0.000 OA
ENDBRANCH  14  17
ENDBRANCH   9  11
ENDBRANCH   1   9
BRANCH   1  20
ATOM     20  C   UNL     1       1.768   7.375  20.798  0.00  0.00    +0.000 C 
BRANCH  20  22
ATOM     21  O   UNL     1       1.607   9.042  19.066  0.00  0.00    +0.000 OA
ATOM     22  C   UNL     1       1.275   8.682  20.195  0.00  0.00    +0.000 C 
BRANCH  22  23
ATOM     23  C   UNL     1       0.424   9.601  21.008  0.00  0.00    +0.000 A 
ATOM     24  C   UNL     1      -0.004   9.308  22.309  0.00  0.00    +0.000 A 
ATOM     25  C   UNL     1      -0.813  10.220  23.004  0.00  0.00    +0.000 A 
ATOM     26  C   UNL     1      -1.187  11.422  22.403  0.00  0.00    +0.000 A 
ATOM     27 BR   UNL     1      -2.288  12.642  23.337  0.00  0.00    +0.000 Br
ATOM     28  C   UNL     1      -0.760  11.729  21.116  0.00  0.00    +0.000 A 
ATOM     29  C   UNL     1       0.040  10.817  20.419  0.00  0.00    +0.000 A 
ENDBRANCH  22  23
ENDBRANCH  20  22
ENDBRANCH   1  20
TORSDOF 7
ENDMDL
MODEL 5
REMARK VINA RESULT:      -8.9      0.993      1.607
REMARK  Name = 
REMARK  7 active torsions:
REMARK  status: ('A' for Active; 'I' for Inactive)
REMARK    1  A    between atoms: C_2  and  C_3
REMARK    2  A    between atoms: C_2  and  C_22
REMARK    3  A    between atoms: C_3  and  C_4
REMARK    4  A    between atoms: C_4  and  N_5
REMARK    5  A    between atoms: C_4  and  C_15
REMARK    6  A    between atoms: N_5  and  C_6
REMARK    7  A    between atoms: C_9  and  N_10
REMARK                            x       y       z     vdW  Elec       q    Type
REMARK                         _______ _______ _______ _____ _____    ______ ____
ROOT
ATOM      1  C   UNL     1       2.532   6.326  19.275  0.00  0.00    +0.000 C 
ENDROOT
BRANCH   1   2
ATOM      2  C   UNL     1       2.083   4.862  19.328  0.00  0.00    +0.000 A 
ATOM      3  C   UNL     1       1.488   4.351  20.494  0.00  0.00    +0.000 A 
ATOM      4  C   UNL     1       1.130   3.002  20.581  0.00  0.00    +0.000 A 
ATOM      5  C   UNL     1       1.363   2.147  19.506  0.00  0.00    +0.000 A 
ATOM      6  C   UNL     1       1.930   2.651  18.344  0.00  0.00    +0.000 A 
ATOM      7  F   UNL     1       2.159   1.832  17.309  0.00  0.00    +0.000 F 
ATOM      8  C   UNL     1       2.279   3.994  18.240  0.00  0.00    +0.000 A 
ENDBRANCH   1   2
BRANCH   1   9
ATOM      9  N   UNL     1       4.004   6.343  19.390  0.00  0.00    +0.000 N 
ATOM     10  H   UNL     1       4.302   5.808  20.207  0.00  0.00    +0.000 HD
BRANCH   9  11
ATOM     11  C   UNL     1       4.813   6.018  18.292  0.00  0.00    +0.000 A 
ATOM     12  C   UNL     1       5.763   4.990  18.299  0.00  0.00    +0.000 A 
ATOM     13  C   UNL     1       6.439   4.607  17.132  0.00  0.00    +0.000 A 
ATOM     14  C   UNL     1       6.167   5.263  15.928  0.00  0.00    +0.000 A 
ATOM     15  C   UNL     1       5.233   6.299  15.890  0.00  0.00    +0.000 A 
ATOM     16  C   UNL     1       4.553   6.654  17.062  0.00  0.00    +0.000 A 
BRANCH  14  17
ATOM     17  N   UNL     1       6.849   4.842  14.698  0.00  0.00    +0.000 N 
ATOM     18  O   UNL     1       7.877   5.455  14.370  0.00  0.00    +0.000 OA
ATOM     19  O   UNL     1       6.363   3.895  14.063  0.00  0.00    +0.000 OA
ENDBRANCH  14  17
ENDBRANCH   9  11
ENDBRANCH   1   9
BRANCH   1  20
ATOM     20  C   UNL     1       1.864   7.126  20.413  0.00  0.00    +0.000 C 
BRANCH  20  22
ATOM     21  O   UNL     1       1.922   8.990  18.886  0.00  0.00    +0.000 OA
ATOM     22  C   UNL     1       1.484   8.521  19.937  0.00  0.00    +0.000 C 
BRANCH  22  23
ATOM     23  C   UNL     1       0.618   9.387  20.791  0.00  0.00    +0.000 A 
ATOM     24  C   UNL     1       0.382   9.143  22.149  0.00  0.00    +0.000 A 
ATOM     25  C   UNL     1      -0.456   9.998  22.880  0.00  0.00    +0.000 A 
ATOM     26  C   UNL     1      -1.051  11.095  22.258  0.00  0.00    +0.000 A 
ATOM     27 BR   UNL     1      -2.190  12.238  23.243  0.00  0.00    +0.000 Br
ATOM     28  C   UNL     1      -0.817  11.355  20.913  0.00  0.00    +0.000 A 
ATOM     29  C   UNL     1       0.012  10.499  20.180  0.00  0.00    +0.000 A 
ENDBRANCH  22  23
ENDBRANCH  20  22
ENDBRANCH   1  20
TORSDOF 7
ENDMDL
MODEL 6
REMARK VINA RESULT:      -8.8      1.169      1.745
REMARK  Name = 
REMARK  7 active torsions:
REMARK  status: ('A' for Active; 'I' for Inactive)
REMARK    1  A    between atoms: C_2  and  C_3
REMARK    2  A    between atoms: C_2  and  C_22
REMARK    3  A    between atoms: C_3  and  C_4
REMARK    4  A    between atoms: C_4  and  N_5
REMARK    5  A    between atoms: C_4  and  C_15
REMARK    6  A    between atoms: N_5  and  C_6
REMARK    7  A    between atoms: C_9  and  N_10
REMARK                            x       y       z     vdW  Elec       q    Type
REMARK                         _______ _______ _______ _____ _____    ______ ____
ROOT
ATOM      1  C   UNL     1       2.551   6.197  18.843  0.00  0.00    +0.000 C 
ENDROOT
BRANCH   1   2
ATOM      2  C   UNL     1       2.035   4.914  19.501  0.00  0.00    +0.000 A 
ATOM      3  C   UNL     1       2.250   4.690  20.872  0.00  0.00    +0.000 A 
ATOM      4  C   UNL     1       1.842   3.496  21.474  0.00  0.00    +0.000 A 
ATOM      5  C   UNL     1       1.215   2.511  20.716  0.00  0.00    +0.000 A 
ATOM      6  C   UNL     1       0.979   2.735  19.366  0.00  0.00    +0.000 A 
ATOM      7  F   UNL     1       0.379   1.788  18.632  0.00  0.00    +0.000 F 
ATOM      8  C   UNL     1       1.370   3.923  18.758  0.00  0.00    +0.000 A 
ENDBRANCH   1   2
BRANCH   1   9
ATOM      9  N   UNL     1       4.010   6.051  18.668  0.00  0.00    +0.000 N 
ATOM     10  H   UNL     1       4.391   5.426  19.379  0.00  0.00    +0.000 HD
BRANCH   9  11
ATOM     11  C   UNL     1       4.553   5.730  17.416  0.00  0.00    +0.000 A 
ATOM     12  C   UNL     1       4.881   6.679  16.440  0.00  0.00    +0.000 A 
ATOM     13  C   UNL     1       5.560   6.322  15.267  0.00  0.00    +0.000 A 
ATOM     14  C   UNL     1       5.920   4.989  15.056  0.00  0.00    +0.000 A 
ATOM     15  C   UNL     1       5.599   4.016  16.004  0.00  0.00    +0.000 A 
ATOM     16  C   UNL     1       4.938   4.396  17.179  0.00  0.00    +0.000 A 
BRANCH  14  17
ATOM     17  N   UNL     1       6.660   4.617  13.843  0.00  0.00    +0.000 N 
ATOM     18  O   UNL     1       7.593   5.353  13.489  0.00  0.00    +0.000 OA
ATOM     19  O   UNL     1       6.316   3.584  13.250  0.00  0.00    +0.000 OA
ENDBRANCH  14  17
ENDBRANCH   9  11
ENDBRANCH   1   9
BRANCH   1  20
ATOM     20  C   UNL     1       2.203   7.419  19.720  0.00  0.00    +0.000 C 
BRANCH  20  22
ATOM     21  O   UNL     1       2.281   8.791  17.741  0.00  0.00    +0.000 OA
ATOM     22  C   UNL     1       1.793   8.602  18.855  0.00  0.00    +0.000 C 
BRANCH  22  23
ATOM     23  C   UNL     1       0.830   9.611  19.386  0.00  0.00    +0.000 A 
ATOM     24  C   UNL     1       0.312  10.663  18.620  0.00  0.00    +0.000 A 
ATOM     25  C   UNL     1      -0.580  11.579  19.196  0.00  0.00    +0.000 A 
ATOM     26  C   UNL     1      -0.959  11.441  20.531  0.00  0.00    +0.000 A 
ATOM     27 BR   UNL     1      -2.152  12.684  21.309  0.00  0.00    +0.000 Br
ATOM     28  C   UNL     1      -0.461  10.395  21.300  0.00  0.00    +0.000 A 
ATOM     29  C   UNL     1       0.436   9.485  20.729  0.00  0.00    +0.000 A 
ENDBRANCH  22  23
ENDBRANCH  20  22
ENDBRANCH   1  20
TORSDOF 7
ENDMDL
MODEL 7
REMARK VINA RESULT:      -8.7      1.183      1.897
REMARK  Name = 
REMARK  7 active torsions:
REMARK  status: ('A' for Active; 'I' for Inactive)
REMARK    1  A    between atoms: C_2  and  C_3
REMARK    2  A    between atoms: C_2  and  C_22
REMARK    3  A    between atoms: C_3  and  C_4
REMARK    4  A    between atoms: C_4  and  N_5
REMARK    5  A    between atoms: C_4  and  C_15
REMARK    6  A    between atoms: N_5  and  C_6
REMARK    7  A    between atoms: C_9  and  N_10
REMARK                            x       y       z     vdW  Elec       q    Type
REMARK                         _______ _______ _______ _____ _____    ______ ____
ROOT
ATOM      1  C   UNL     1       2.753   6.239  19.030  0.00  0.00    +0.000 C 
ENDROOT
BRANCH   1   2
ATOM      2  C   UNL     1       2.167   4.945  19.605  0.00  0.00    +0.000 A 
ATOM      3  C   UNL     1       2.381   4.616  20.954  0.00  0.00    +0.000 A 
ATOM      4  C   UNL     1       1.907   3.409  21.480  0.00  0.00    +0.000 A 
ATOM      5  C   UNL     1       1.216   2.517  20.663  0.00  0.00    +0.000 A 
ATOM      6  C   UNL     1       0.983   2.846  19.335  0.00  0.00    +0.000 A 
ATOM      7  F   UNL     1       0.322   1.989  18.546  0.00  0.00    +0.000 F 
ATOM      8  C   UNL     1       1.438   4.049  18.804  0.00  0.00    +0.000 A 
ENDBRANCH   1   2
BRANCH   1   9
ATOM      9  N   UNL     1       4.222   6.147  19.137  0.00  0.00    +0.000 N 
ATOM     10  H   UNL     1       4.484   5.523  19.902  0.00  0.00    +0.000 HD
BRANCH   9  11
ATOM     11  C   UNL     1       5.008   5.867  18.010  0.00  0.00    +0.000 A 
ATOM     12  C   UNL     1       6.038   4.919  17.993  0.00  0.00    +0.000 A 
ATOM     13  C   UNL     1       6.693   4.570  16.804  0.00  0.00    +0.000 A 
ATOM     14  C   UNL     1       6.319   5.178  15.603  0.00  0.00    +0.000 A 
ATOM     15  C   UNL     1       5.303   6.135  15.588  0.00  0.00    +0.000 A 
ATOM     16  C   UNL     1       4.646   6.456  16.784  0.00  0.00    +0.000 A 
BRANCH  14  17
ATOM     17  N   UNL     1       6.980   4.790  14.351  0.00  0.00    +0.000 N 
ATOM     18  O   UNL     1       6.533   3.805  13.744  0.00  0.00    +0.000 OA
ATOM     19  O   UNL     1       7.941   5.474  13.969  0.00  0.00    +0.000 OA
ENDBRANCH  14  17
ENDBRANCH   9  11
ENDBRANCH   1   9
BRANCH   1  20
ATOM     20  C   UNL     1       2.201   7.457  19.799  0.00  0.00    +0.000 C 
BRANCH  20  22
ATOM     21  O   UNL     1       2.263   8.604  17.680  0.00  0.00    +0.000 OA
ATOM     22  C   UNL     1       1.845   8.583  18.838  0.00  0.00    +0.000 C 
BRANCH  22  23
ATOM     23  C   UNL     1       1.027   9.737  19.316  0.00  0.00    +0.000 A 
ATOM     24  C   UNL     1       0.124   9.655  20.382  0.00  0.00    +0.000 A 
ATOM     25  C   UNL     1      -0.617  10.783  20.764  0.00  0.00    +0.000 A 
ATOM     26  C   UNL     1      -0.451  11.991  20.086  0.00  0.00    +0.000 A 
ATOM     27 BR   UNL     1      -1.460  13.506  20.594  0.00  0.00    +0.000 Br
ATOM     28  C   UNL     1       0.451  12.089  19.032  0.00  0.00    +0.000 A 
ATOM     29  C   UNL     1       1.184  10.962  18.645  0.00  0.00    +0.000 A 
ENDBRANCH  22  23
ENDBRANCH  20  22
ENDBRANCH   1  20
TORSDOF 7
ENDMDL
MODEL 8
REMARK VINA RESULT:      -8.7      3.784      7.591
REMARK  Name = 
REMARK  7 active torsions:
REMARK  status: ('A' for Active; 'I' for Inactive)
REMARK    1  A    between atoms: C_2  and  C_3
REMARK    2  A    between atoms: C_2  and  C_22
REMARK    3  A    between atoms: C_3  and  C_4
REMARK    4  A    between atoms: C_4  and  N_5
REMARK    5  A    between atoms: C_4  and  C_15
REMARK    6  A    between atoms: N_5  and  C_6
REMARK    7  A    between atoms: C_9  and  N_10
REMARK                            x       y       z     vdW  Elec       q    Type
REMARK                         _______ _______ _______ _____ _____    ______ ____
ROOT
ATOM      1  C   UNL     1       3.801   5.601  19.339  0.00  0.00    +0.000 C 
ENDROOT
BRANCH   1   2
ATOM      2  C   UNL     1       2.774   4.470  19.453  0.00  0.00    +0.000 A 
ATOM      3  C   UNL     1       2.169   3.950  18.296  0.00  0.00    +0.000 A 
ATOM      4  C   UNL     1       1.184   2.962  18.387  0.00  0.00    +0.000 A 
ATOM      5  C   UNL     1       0.790   2.483  19.633  0.00  0.00    +0.000 A 
ATOM      6  C   UNL     1       1.399   2.977  20.779  0.00  0.00    +0.000 A 
ATOM      7  F   UNL     1       1.021   2.520  21.980  0.00  0.00    +0.000 F 
ATOM      8  C   UNL     1       2.389   3.951  20.701  0.00  0.00    +0.000 A 
ENDBRANCH   1   2
BRANCH   1   9
ATOM      9  N   UNL     1       3.310   6.546  18.316  0.00  0.00    +0.000 N 
ATOM     10  H   UNL     1       2.840   6.040  17.563  0.00  0.00    +0.000 HD
BRANCH   9  11
ATOM     11  C   UNL     1       2.551   7.666  18.679  0.00  0.00    +0.000 A 
ATOM     12  C   UNL     1       2.167   8.673  17.784  0.00  0.00    +0.000 A 
ATOM     13  C   UNL     1       1.283   9.693  18.163  0.00  0.00    +0.000 A 
ATOM     14  C   UNL     1       0.769   9.717  19.462  0.00  0.00    +0.000 A 
ATOM     15  C   UNL     1       1.140   8.734  20.381  0.00  0.00    +0.000 A 
ATOM     16  C   UNL     1       2.009   7.711  19.978  0.00  0.00    +0.000 A 
BRANCH  14  17
ATOM     17  N   UNL     1      -0.182  10.765  19.851  0.00  0.00    +0.000 N 
ATOM     18  O   UNL     1      -0.900  11.251  18.964  0.00  0.00    +0.000 OA
ATOM     19  O   UNL     1      -0.220  11.097  21.045  0.00  0.00    +0.000 OA
ENDBRANCH  14  17
ENDBRANCH   9  11
ENDBRANCH   1   9
BRANCH   1  20
ATOM     20  C   UNL     1       5.183   5.025  18.965  0.00  0.00    +0.000 C 
BRANCH  20  22
ATOM     21  O   UNL     1       6.180   6.963  17.936  0.00  0.00    +0.000 OA
ATOM     22  C   UNL     1       5.794   5.802  17.807  0.00  0.00    +0.000 C 
BRANCH  22  23
ATOM     23  C   UNL     1       5.866   5.179  16.452  0.00  0.00    +0.000 A 
ATOM     24  C   UNL     1       4.824   4.433  15.888  0.00  0.00    +0.000 A 
ATOM     25  C   UNL     1       4.975   3.869  14.612  0.00  0.00    +0.000 A 
ATOM     26  C   UNL     1       6.161   4.055  13.901  0.00  0.00    +0.000 A 
ATOM     27 BR   UNL     1       6.366   3.282  12.188  0.00  0.00    +0.000 Br
ATOM     28  C   UNL     1       7.199   4.801  14.446  0.00  0.00    +0.000 A 
ATOM     29  C   UNL     1       7.053   5.358  15.721  0.00  0.00    +0.000 A 
ENDBRANCH  22  23
ENDBRANCH  20  22
ENDBRANCH   1  20
TORSDOF 7
ENDMDL
MODEL 9
REMARK VINA RESULT:      -8.6      1.929      2.812
REMARK  Name = 
REMARK  7 active torsions:
REMARK  status: ('A' for Active; 'I' for Inactive)
REMARK    1  A    between atoms: C_2  and  C_3
REMARK    2  A    between atoms: C_2  and  C_22
REMARK    3  A    between atoms: C_3  and  C_4
REMARK    4  A    between atoms: C_4  and  N_5
REMARK    5  A    between atoms: C_4  and  C_15
REMARK    6  A    between atoms: N_5  and  C_6
REMARK    7  A    between atoms: C_9  and  N_10
REMARK                            x       y       z     vdW  Elec       q    Type
REMARK                         _______ _______ _______ _____ _____    ______ ____
ROOT
ATOM      1  C   UNL     1       3.635   4.588  17.872  0.00  0.00    +0.000 C 
ENDROOT
BRANCH   1   2
ATOM      2  C   UNL     1       2.812   3.924  18.981  0.00  0.00    +0.000 A 
ATOM      3  C   UNL     1       1.414   4.062  18.998  0.00  0.00    +0.000 A 
ATOM      4  C   UNL     1       0.654   3.516  20.037  0.00  0.00    +0.000 A 
ATOM      5  C   UNL     1       1.282   2.827  21.072  0.00  0.00    +0.000 A 
ATOM      6  C   UNL     1       2.662   2.669  21.050  0.00  0.00    +0.000 A 
ATOM      7  F   UNL     1       3.269   2.010  22.045  0.00  0.00    +0.000 F 
ATOM      8  C   UNL     1       3.426   3.197  20.015  0.00  0.00    +0.000 A 
ENDBRANCH   1   2
BRANCH   1   9
ATOM      9  N   UNL     1       4.672   3.625  17.451  0.00  0.00    +0.000 N 
ATOM     10  H   UNL     1       4.272   2.689  17.365  0.00  0.00    +0.000 HD
BRANCH   9  11
ATOM     11  C   UNL     1       5.493   3.891  16.347  0.00  0.00    +0.000 A 
ATOM     12  C   UNL     1       5.131   3.624  15.021  0.00  0.00    +0.000 A 
ATOM     13  C   UNL     1       5.923   4.047  13.945  0.00  0.00    +0.000 A 
ATOM     14  C   UNL     1       7.106   4.749  14.190  0.00  0.00    +0.000 A 
ATOM     15  C   UNL     1       7.501   5.022  15.500  0.00  0.00    +0.000 A 
ATOM     16  C   UNL     1       6.685   4.609  16.562  0.00  0.00    +0.000 A 
BRANCH  14  17
ATOM     17  N   UNL     1       7.921   5.221  13.064  0.00  0.00    +0.000 N 
ATOM     18  O   UNL     1       8.899   5.940  13.321  0.00  0.00    +0.000 OA
ATOM     19  O   UNL     1       7.590   4.869  11.923  0.00  0.00    +0.000 OA
ENDBRANCH  14  17
ENDBRANCH   9  11
ENDBRANCH   1   9
BRANCH   1  20
ATOM     20  C   UNL     1       4.255   5.903  18.388  0.00  0.00    +0.000 C 
BRANCH  20  22
ATOM     21  O   UNL     1       3.940   7.461  16.576  0.00  0.00    +0.000 OA
ATOM     22  C   UNL     1       3.613   7.104  17.708  0.00  0.00    +0.000 C 
BRANCH  22  23
ATOM     23  C   UNL     1       2.609   7.927  18.446  0.00  0.00    +0.000 A 
ATOM     24  C   UNL     1       2.158   7.621  19.736  0.00  0.00    +0.000 A 
ATOM     25  C   UNL     1       1.203   8.438  20.358  0.00  0.00    +0.000 A 
ATOM     26  C   UNL     1       0.705   9.561  19.696  0.00  0.00    +0.000 A 
ATOM     27 BR   UNL     1      -0.592  10.653  20.532  0.00  0.00    +0.000 Br
ATOM     28  C   UNL     1       1.153   9.882  18.419  0.00  0.00    +0.000 A 
ATOM     29  C   UNL     1       2.099   9.063  17.794  0.00  0.00    +0.000 A 
ENDBRANCH  22  23
ENDBRANCH  20  22
ENDBRANCH   1  20
TORSDOF 7
ENDMDL
