MODEL 1
REMARK VINA RESULT:      -7.3      0.000      0.000
REMARK  Name = 
REMARK  8 active torsions:
REMARK  status: ('A' for Active; 'I' for Inactive)
REMARK    1  A    between atoms: C_1  and  C_2
REMARK    2  A    between atoms: C_2  and  O_3
REMARK    3  A    between atoms: C_4  and  C_5
REMARK    4  A    between atoms: C_5  and  O_6
REMARK    5  A    between atoms: C_8  and  N_9
REMARK    6  A    between atoms: N_14  and  C_15
REMARK    7  A    between atoms: C_15  and  C_16
REMARK    8  A    between atoms: C_26  and  O_27
REMARK                            x       y       z     vdW  Elec       q    Type
REMARK                         _______ _______ _______ _____ _____    ______ ____
ROOT
ATOM      1  N   UNL     1       2.946   6.637  18.365  0.00  0.00    +0.000 N 
ATOM      2  C   UNL     1       3.155   7.463  17.291  0.00  0.00    +0.000 A 
ATOM      3  N   UNL     1       2.597   8.647  17.460  0.00  0.00    +0.000 NA
ATOM      4  C   UNL     1       1.986   8.580  18.695  0.00  0.00    +0.000 A 
ATOM      5  C   UNL     1       1.190   9.497  19.405  0.00  0.00    +0.000 A 
ATOM      6  N   UNL     1       0.785  10.714  18.877  0.00  0.00    +0.000 N 
ATOM      7  N   UNL     1       0.727   9.104  20.625  0.00  0.00    +0.000 NA
ATOM      8  C   UNL     1       1.029   7.875  21.076  0.00  0.00    +0.000 A 
ATOM      9  N   UNL     1       1.771   6.913  20.484  0.00  0.00    +0.000 NA
ATOM     10  C   UNL     1       2.215   7.340  19.283  0.00  0.00    +0.000 A 
ATOM     11  H   UNL     1       1.150  10.924  17.949  0.00  0.00    +0.000 HD
ENDROOT
BRANCH   1  16
ATOM     12  C   UNL     1       1.558   1.940  18.917  0.00  0.00    +0.000 C 
ATOM     13  C   UNL     1       1.961   3.373  19.251  0.00  0.00    +0.000 C 
ATOM     14  C   UNL     1       3.224   3.557  20.102  0.00  0.00    +0.000 C 
ATOM     15  O   UNL     1       3.678   4.907  19.819  0.00  0.00    +0.000 OA
ATOM     16  C   UNL     1       3.305   5.236  18.455  0.00  0.00    +0.000 C 
ATOM     17  C   UNL     1       2.266   4.203  17.994  0.00  0.00    +0.000 C 
BRANCH  13  18
ATOM     18  O   UNL     1       0.849   3.990  19.937  0.00  0.00    +0.000 OA
ATOM     19  H   UNL     1       1.215   4.557  20.649  0.00  0.00    +0.000 HD
ENDBRANCH  13  18
BRANCH  17  20
ATOM     20  O   UNL     1       1.076   4.742  17.429  0.00  0.00    +0.000 OA
ATOM     21  H   UNL     1       1.335   5.107  16.559  0.00  0.00    +0.000 HD
ENDBRANCH  17  20
BRANCH  14  22
ATOM     22  C   UNL     1       4.371   2.584  19.808  0.00  0.00    +0.000 C 
BRANCH  22  23
ATOM     23  O   UNL     1       5.533   3.272  19.357  0.00  0.00    +0.000 OA
ATOM     24  H   UNL     1       5.858   2.818  18.557  0.00  0.00    +0.000 HD
ENDBRANCH  22  23
ENDBRANCH  14  22
ENDBRANCH   1  16
BRANCH   6  25
ATOM     25  C   UNL     1       0.577  11.822  19.787  0.00  0.00    +0.000 C 
BRANCH  25  26
ATOM     26  C   UNL     1       1.290  13.044  19.257  0.00  0.00    +0.000 A 
ATOM     27  C   UNL     1       2.508  12.908  18.572  0.00  0.00    +0.000 A 
ATOM     28  C   UNL     1       3.171  14.031  18.075  0.00  0.00    +0.000 A 
ATOM     29  C   UNL     1       2.620  15.298  18.249  0.00  0.00    +0.000 A 
ATOM     30  C   UNL     1       1.404  15.444  18.916  0.00  0.00    +0.000 A 
ATOM     31  C   UNL     1       0.742  14.323  19.417  0.00  0.00    +0.000 A 
ENDBRANCH  25  26
ENDBRANCH   6  25
TORSDOF 7
ENDMDL
MODEL 2
REMARK VINA RESULT:      -7.2      1.552      2.508
REMARK  Name = 
REMARK  8 active torsions:
REMARK  status: ('A' for Active; 'I' for Inactive)
REMARK    1  A    between atoms: C_1  and  C_2
REMARK    2  A    between atoms: C_2  and  O_3
REMARK    3  A    between atoms: C_4  and  C_5
REMARK    4  A    between atoms: C_5  and  O_6
REMARK    5  A    between atoms: C_8  and  N_9
REMARK    6  A    between atoms: N_14  and  C_15
REMARK    7  A    between atoms: C_15  and  C_16
REMARK    8  A    between atoms: C_26  and  O_27
REMARK                            x       y       z     vdW  Elec       q    Type
REMARK                         _______ _______ _______ _____ _____    ______ ____
ROOT
ATOM      1  N   UNL     1       2.952   6.594  18.381  0.00  0.00    +0.000 N 
ATOM      2  C   UNL     1       3.153   7.422  17.307  0.00  0.00    +0.000 A 
ATOM      3  N   UNL     1       2.591   8.603  17.479  0.00  0.00    +0.000 NA
ATOM      4  C   UNL     1       1.985   8.533  18.716  0.00  0.00    +0.000 A 
ATOM      5  C   UNL     1       1.187   9.445  19.430  0.00  0.00    +0.000 A 
ATOM      6  N   UNL     1       0.774  10.660  18.904  0.00  0.00    +0.000 N 
ATOM      7  N   UNL     1       0.730   9.049  20.651  0.00  0.00    +0.000 NA
ATOM      8  C   UNL     1       1.039   7.820  21.100  0.00  0.00    +0.000 A 
ATOM      9  N   UNL     1       1.783   6.863  20.504  0.00  0.00    +0.000 NA
ATOM     10  C   UNL     1       2.221   7.293  19.302  0.00  0.00    +0.000 A 
ATOM     11  H   UNL     1       1.135  10.873  17.975  0.00  0.00    +0.000 HD
ENDROOT
BRANCH   1  16
ATOM     12  C   UNL     1       1.584   1.887  18.896  0.00  0.00    +0.000 C 
ATOM     13  C   UNL     1       1.975   3.321  19.241  0.00  0.00    +0.000 C 
ATOM     14  C   UNL     1       3.228   3.507  20.107  0.00  0.00    +0.000 C 
ATOM     15  O   UNL     1       3.678   4.862  19.834  0.00  0.00    +0.000 OA
ATOM     16  C   UNL     1       3.318   5.195  18.468  0.00  0.00    +0.000 C 
ATOM     17  C   UNL     1       2.290   4.158  17.991  0.00  0.00    +0.000 C 
BRANCH  13  18
ATOM     18  O   UNL     1       0.853   3.929  19.917  0.00  0.00    +0.000 OA
ATOM     19  H   UNL     1       1.158   4.213  20.806  0.00  0.00    +0.000 HD
ENDBRANCH  13  18
BRANCH  17  20
ATOM     20  O   UNL     1       1.102   4.693  17.416  0.00  0.00    +0.000 OA
ATOM     21  H   UNL     1       0.944   5.543  17.875  0.00  0.00    +0.000 HD
ENDBRANCH  17  20
BRANCH  14  22
ATOM     22  C   UNL     1       4.383   2.542  19.820  0.00  0.00    +0.000 C 
BRANCH  22  23
ATOM     23  O   UNL     1       5.533   3.235  19.344  0.00  0.00    +0.000 OA
ATOM     24  H   UNL     1       5.992   3.617  20.116  0.00  0.00    +0.000 HD
ENDBRANCH  22  23
ENDBRANCH  14  22
ENDBRANCH   1  16
BRANCH   6  25
ATOM     25  C   UNL     1       0.565  11.767  19.816  0.00  0.00    +0.000 C 
BRANCH  25  26
ATOM     26  C   UNL     1      -0.913  12.065  19.908  0.00  0.00    +0.000 A 
ATOM     27  C   UNL     1      -1.421  12.789  21.000  0.00  0.00    +0.000 A 
ATOM     28  C   UNL     1      -2.784  13.073  21.091  0.00  0.00    +0.000 A 
ATOM     29  C   UNL     1      -3.652  12.647  20.088  0.00  0.00    +0.000 A 
ATOM     30  C   UNL     1      -3.158  11.939  18.992  0.00  0.00    +0.000 A 
ATOM     31  C   UNL     1      -1.796  11.651  18.902  0.00  0.00    +0.000 A 
ENDBRANCH  25  26
ENDBRANCH   6  25
TORSDOF 7
ENDMDL
MODEL 3
REMARK VINA RESULT:      -7.2      2.144      3.439
REMARK  Name = 
REMARK  8 active torsions:
REMARK  status: ('A' for Active; 'I' for Inactive)
REMARK    1  A    between atoms: C_1  and  C_2
REMARK    2  A    between atoms: C_2  and  O_3
REMARK    3  A    between atoms: C_4  and  C_5
REMARK    4  A    between atoms: C_5  and  O_6
REMARK    5  A    between atoms: C_8  and  N_9
REMARK    6  A    between atoms: N_14  and  C_15
REMARK    7  A    between atoms: C_15  and  C_16
REMARK    8  A    between atoms: C_26  and  O_27
REMARK                            x       y       z     vdW  Elec       q    Type
REMARK                         _______ _______ _______ _____ _____    ______ ____
ROOT
ATOM      1  N   UNL     1       2.189   6.637  19.825  0.00  0.00    +0.000 N 
ATOM      2  C   UNL     1       1.583   6.720  21.052  0.00  0.00    +0.000 A 
ATOM      3  N   UNL     1       1.028   7.900  21.251  0.00  0.00    +0.000 NA
ATOM      4  C   UNL     1       1.298   8.620  20.107  0.00  0.00    +0.000 A 
ATOM      5  C   UNL     1       1.022   9.950  19.740  0.00  0.00    +0.000 A 
ATOM      6  N   UNL     1       0.442  10.867  20.604  0.00  0.00    +0.000 N 
ATOM      7  N   UNL     1       1.445  10.357  18.511  0.00  0.00    +0.000 NA
ATOM      8  C   UNL     1       2.112   9.492  17.728  0.00  0.00    +0.000 A 
ATOM      9  N   UNL     1       2.440   8.205  17.974  0.00  0.00    +0.000 NA
ATOM     10  C   UNL     1       2.002   7.837  19.196  0.00  0.00    +0.000 A 
ATOM     11  H   UNL     1       0.179  10.494  21.516  0.00  0.00    +0.000 HD
ENDROOT
BRANCH   1  16
ATOM     12  C   UNL     1       2.463   2.216  17.662  0.00  0.00    +0.000 C 
ATOM     13  C   UNL     1       2.299   3.289  18.735  0.00  0.00    +0.000 C 
ATOM     14  C   UNL     1       3.306   3.271  19.892  0.00  0.00    +0.000 C 
ATOM     15  O   UNL     1       3.294   4.622  20.426  0.00  0.00    +0.000 OA
ATOM     16  C   UNL     1       2.998   5.538  19.338  0.00  0.00    +0.000 C 
ATOM     17  C   UNL     1       2.448   4.710  18.168  0.00  0.00    +0.000 C 
BRANCH  13  18
ATOM     18  O   UNL     1       0.968   3.160  19.280  0.00  0.00    +0.000 OA
ATOM     19  H   UNL     1       0.515   4.024  19.172  0.00  0.00    +0.000 HD
ENDBRANCH  13  18
BRANCH  17  20
ATOM     20  O   UNL     1       1.222   5.175  17.613  0.00  0.00    +0.000 OA
ATOM     21  H   UNL     1       0.538   4.541  17.910  0.00  0.00    +0.000 HD
ENDBRANCH  17  20
BRANCH  14  22
ATOM     22  C   UNL     1       4.747   2.909  19.514  0.00  0.00    +0.000 C 
BRANCH  22  23
ATOM     23  O   UNL     1       5.123   1.645  20.052  0.00  0.00    +0.000 OA
ATOM     24  H   UNL     1       5.035   0.980  19.344  0.00  0.00    +0.000 HD
ENDBRANCH  22  23
ENDBRANCH  14  22
ENDBRANCH   1  16
BRANCH   6  25
ATOM     25  C   UNL     1      -0.385  11.914  20.039  0.00  0.00    +0.000 C 
BRANCH  25  26
ATOM     26  C   UNL     1      -1.558  12.172  20.955  0.00  0.00    +0.000 A 
ATOM     27  C   UNL     1      -2.740  12.737  20.445  0.00  0.00    +0.000 A 
ATOM     28  C   UNL     1      -3.830  12.975  21.283  0.00  0.00    +0.000 A 
ATOM     29  C   UNL     1      -3.756  12.644  22.633  0.00  0.00    +0.000 A 
ATOM     30  C   UNL     1      -2.593  12.070  23.148  0.00  0.00    +0.000 A 
ATOM     31  C   UNL     1      -1.500  11.835  22.312  0.00  0.00    +0.000 A 
ENDBRANCH  25  26
ENDBRANCH   6  25
TORSDOF 7
ENDMDL
MODEL 4
REMARK VINA RESULT:      -7.2      3.994      8.990
REMARK  Name = 
REMARK  8 active torsions:
REMARK  status: ('A' for Active; 'I' for Inactive)
REMARK    1  A    between atoms: C_1  and  C_2
REMARK    2  A    between atoms: C_2  and  O_3
REMARK    3  A    between atoms: C_4  and  C_5
REMARK    4  A    between atoms: C_5  and  O_6
REMARK    5  A    between atoms: C_8  and  N_9
REMARK    6  A    between atoms: N_14  and  C_15
REMARK    7  A    between atoms: C_15  and  C_16
REMARK    8  A    between atoms: C_26  and  O_27
REMARK                            x       y       z     vdW  Elec       q    Type
REMARK                         _______ _______ _______ _____ _____    ______ ____
ROOT
ATOM      1  N   UNL     1       0.172  10.676  20.766  0.00  0.00    +0.000 N 
ATOM      2  C   UNL     1       0.156   9.917  21.907  0.00  0.00    +0.000 A 
ATOM      3  N   UNL     1       0.798   8.775  21.752  0.00  0.00    +0.000 NA
ATOM      4  C   UNL     1       1.239   8.788  20.446  0.00  0.00    +0.000 A 
ATOM      5  C   UNL     1       1.931   7.837  19.673  0.00  0.00    +0.000 A 
ATOM      6  N   UNL     1       2.237   6.566  20.135  0.00  0.00    +0.000 N 
ATOM      7  N   UNL     1       2.211   8.171  18.382  0.00  0.00    +0.000 NA
ATOM      8  C   UNL     1       1.805   9.361  17.909  0.00  0.00    +0.000 A 
ATOM      9  N   UNL     1       1.133  10.343  18.549  0.00  0.00    +0.000 NA
ATOM     10  C   UNL     1       0.877   9.979  19.824  0.00  0.00    +0.000 A 
ATOM     11  H   UNL     1       1.970   6.383  21.102  0.00  0.00    +0.000 HD
ENDROOT
BRANCH   1  16
ATOM     12  C   UNL     1      -0.732  15.330  22.113  0.00  0.00    +0.000 C 
ATOM     13  C   UNL     1      -0.796  13.806  22.058  0.00  0.00    +0.000 C 
ATOM     14  C   UNL     1      -2.154  13.183  21.708  0.00  0.00    +0.000 C 
ATOM     15  O   UNL     1      -1.842  11.860  21.196  0.00  0.00    +0.000 OA
ATOM     16  C   UNL     1      -0.543  11.917  20.549  0.00  0.00    +0.000 C 
ATOM     17  C   UNL     1       0.140  13.220  20.989  0.00  0.00    +0.000 C 
BRANCH  13  18
ATOM     18  O   UNL     1      -0.377  13.305  23.346  0.00  0.00    +0.000 OA
ATOM     19  H   UNL     1      -0.176  12.350  23.244  0.00  0.00    +0.000 HD
ENDBRANCH  13  18
BRANCH  17  20
ATOM     20  O   UNL     1       1.467  13.078  21.487  0.00  0.00    +0.000 OA
ATOM     21  H   UNL     1       2.053  13.148  20.707  0.00  0.00    +0.000 HD
ENDBRANCH  17  20
BRANCH  14  22
ATOM     22  C   UNL     1      -2.978  13.933  20.656  0.00  0.00    +0.000 C 
BRANCH  22  23
ATOM     23  O   UNL     1      -3.797  13.041  19.907  0.00  0.00    +0.000 OA
ATOM     24  H   UNL     1      -3.716  12.154  20.306  0.00  0.00    +0.000 HD
ENDBRANCH  22  23
ENDBRANCH  14  22
ENDBRANCH   1  16
BRANCH   6  25
ATOM     25  C   UNL     1       3.433   5.922  19.632  0.00  0.00    +0.000 C 
BRANCH  25  26
ATOM     26  C   UNL     1       3.060   4.611  18.983  0.00  0.00    +0.000 A 
ATOM     27  C   UNL     1       1.727   4.167  19.006  0.00  0.00    +0.000 A 
ATOM     28  C   UNL     1       1.372   2.958  18.405  0.00  0.00    +0.000 A 
ATOM     29  C   UNL     1       2.341   2.187  17.767  0.00  0.00    +0.000 A 
ATOM     30  C   UNL     1       3.665   2.624  17.726  0.00  0.00    +0.000 A 
ATOM     31  C   UNL     1       4.022   3.830  18.330  0.00  0.00    +0.000 A 
ENDBRANCH  25  26
ENDBRANCH   6  25
TORSDOF 7
ENDMDL
MODEL 5
REMARK VINA RESULT:      -7.0      2.050      3.401
REMARK  Name = 
REMARK  8 active torsions:
REMARK  status: ('A' for Active; 'I' for Inactive)
REMARK    1  A    between atoms: C_1  and  C_2
REMARK    2  A    between atoms: C_2  and  O_3
REMARK    3  A    between atoms: C_4  and  C_5
REMARK    4  A    between atoms: C_5  and  O_6
REMARK    5  A    between atoms: C_8  and  N_9
REMARK    6  A    between atoms: N_14  and  C_15
REMARK    7  A    between atoms: C_15  and  C_16
REMARK    8  A    between atoms: C_26  and  O_27
REMARK                            x       y       z     vdW  Elec       q    Type
REMARK                         _______ _______ _______ _____ _____    ______ ____
ROOT
ATOM      1  N   UNL     1       2.243   6.373  19.729  0.00  0.00    +0.000 N 
ATOM      2  C   UNL     1       1.459   6.590  20.832  0.00  0.00    +0.000 A 
ATOM      3  N   UNL     1       0.974   7.817  20.862  0.00  0.00    +0.000 NA
ATOM      4  C   UNL     1       1.477   8.428  19.734  0.00  0.00    +0.000 A 
ATOM      5  C   UNL     1       1.368   9.742  19.242  0.00  0.00    +0.000 A 
ATOM      6  N   UNL     1       0.731  10.758  19.939  0.00  0.00    +0.000 N 
ATOM      7  N   UNL     1       2.010  10.025  18.075  0.00  0.00    +0.000 NA
ATOM      8  C   UNL     1       2.723   9.060  17.468  0.00  0.00    +0.000 A 
ATOM      9  N   UNL     1       2.906   7.776  17.847  0.00  0.00    +0.000 NA
ATOM     10  C   UNL     1       2.252   7.533  19.002  0.00  0.00    +0.000 A 
ATOM     11  H   UNL     1       0.299  10.474  20.817  0.00  0.00    +0.000 HD
ENDROOT
BRANCH   1  16
ATOM     12  C   UNL     1       2.493   1.767  17.993  0.00  0.00    +0.000 C 
ATOM     13  C   UNL     1       2.261   2.941  18.941  0.00  0.00    +0.000 C 
ATOM     14  C   UNL     1       3.098   2.967  20.226  0.00  0.00    +0.000 C 
ATOM     15  O   UNL     1       3.109   4.360  20.642  0.00  0.00    +0.000 OA
ATOM     16  C   UNL     1       3.031   5.190  19.453  0.00  0.00    +0.000 C 
ATOM     17  C   UNL     1       2.587   4.293  18.287  0.00  0.00    +0.000 C 
BRANCH  13  18
ATOM     18  O   UNL     1       0.863   2.941  19.301  0.00  0.00    +0.000 OA
ATOM     19  H   UNL     1       0.692   3.745  19.837  0.00  0.00    +0.000 HD
ENDBRANCH  13  18
BRANCH  17  20
ATOM     20  O   UNL     1       1.484   4.778  17.528  0.00  0.00    +0.000 OA
ATOM     21  H   UNL     1       1.728   5.685  17.254  0.00  0.00    +0.000 HD
ENDBRANCH  17  20
BRANCH  14  22
ATOM     22  C   UNL     1       4.547   2.488  20.087  0.00  0.00    +0.000 C 
BRANCH  22  23
ATOM     23  O   UNL     1       4.968   1.765  21.239  0.00  0.00    +0.000 OA
ATOM     24  H   UNL     1       4.216   1.728  21.860  0.00  0.00    +0.000 HD
ENDBRANCH  22  23
ENDBRANCH  14  22
ENDBRANCH   1  16
BRANCH   6  25
ATOM     25  C   UNL     1       0.089  11.812  19.180  0.00  0.00    +0.000 C 
BRANCH  25  26
ATOM     26  C   UNL     1      -1.274  11.343  18.730  0.00  0.00    +0.000 A 
ATOM     27  C   UNL     1      -2.427  12.040  19.129  0.00  0.00    +0.000 A 
ATOM     28  C   UNL     1      -3.691  11.616  18.714  0.00  0.00    +0.000 A 
ATOM     29  C   UNL     1      -3.814  10.501  17.889  0.00  0.00    +0.000 A 
ATOM     30  C   UNL     1      -2.676   9.809  17.476  0.00  0.00    +0.000 A 
ATOM     31  C   UNL     1      -1.413  10.229  17.893  0.00  0.00    +0.000 A 
ENDBRANCH  25  26
ENDBRANCH   6  25
TORSDOF 7
ENDMDL
MODEL 6
REMARK VINA RESULT:      -7.0      4.561      9.419
REMARK  Name = 
REMARK  8 active torsions:
REMARK  status: ('A' for Active; 'I' for Inactive)
REMARK    1  A    between atoms: C_1  and  C_2
REMARK    2  A    between atoms: C_2  and  O_3
REMARK    3  A    between atoms: C_4  and  C_5
REMARK    4  A    between atoms: C_5  and  O_6
REMARK    5  A    between atoms: C_8  and  N_9
REMARK    6  A    between atoms: N_14  and  C_15
REMARK    7  A    between atoms: C_15  and  C_16
REMARK    8  A    between atoms: C_26  and  O_27
REMARK                            x       y       z     vdW  Elec       q    Type
REMARK                         _______ _______ _______ _____ _____    ______ ____
ROOT
ATOM      1  N   UNL     1      -0.312  11.667  21.339  0.00  0.00    +0.000 N 
ATOM      2  C   UNL     1      -0.416  10.940  22.497  0.00  0.00    +0.000 A 
ATOM      3  N   UNL     1       0.118   9.739  22.379  0.00  0.00    +0.000 NA
ATOM      4  C   UNL     1       0.576   9.678  21.080  0.00  0.00    +0.000 A 
ATOM      5  C   UNL     1       1.184   8.648  20.340  0.00  0.00    +0.000 A 
ATOM      6  N   UNL     1       1.362   7.365  20.836  0.00  0.00    +0.000 N 
ATOM      7  N   UNL     1       1.513   8.922  19.047  0.00  0.00    +0.000 NA
ATOM      8  C   UNL     1       1.229  10.134  18.540  0.00  0.00    +0.000 A 
ATOM      9  N   UNL     1       0.644  11.190  19.147  0.00  0.00    +0.000 NA
ATOM     10  C   UNL     1       0.337  10.883  20.424  0.00  0.00    +0.000 A 
ATOM     11  H   UNL     1       1.065   7.232  21.802  0.00  0.00    +0.000 HD
ENDROOT
BRANCH   1  16
ATOM     12  C   UNL     1      -0.865  16.393  22.623  0.00  0.00    +0.000 C 
ATOM     13  C   UNL     1      -1.061  14.880  22.570  0.00  0.00    +0.000 C 
ATOM     14  C   UNL     1      -2.450  14.377  22.155  0.00  0.00    +0.000 C 
ATOM     15  O   UNL     1      -2.231  13.027  21.664  0.00  0.00    +0.000 OA
ATOM     16  C   UNL     1      -0.902  12.964  21.082  0.00  0.00    +0.000 C 
ATOM     17  C   UNL     1      -0.129  14.205  21.551  0.00  0.00    +0.000 C 
BRANCH  13  18
ATOM     18  O   UNL     1      -0.752  14.354  23.879  0.00  0.00    +0.000 OA
ATOM     19  H   UNL     1       0.225  14.305  23.958  0.00  0.00    +0.000 HD
ENDBRANCH  13  18
BRANCH  17  20
ATOM     20  O   UNL     1       1.153  13.950  22.115  0.00  0.00    +0.000 OA
ATOM     21  H   UNL     1       1.683  14.756  21.948  0.00  0.00    +0.000 HD
ENDBRANCH  17  20
BRANCH  14  22
ATOM     22  C   UNL     1      -3.151  15.187  21.060  0.00  0.00    +0.000 C 
BRANCH  22  23
ATOM     23  O   UNL     1      -4.013  14.367  20.279  0.00  0.00    +0.000 OA
ATOM     24  H   UNL     1      -3.545  13.530  20.097  0.00  0.00    +0.000 HD
ENDBRANCH  22  23
ENDBRANCH  14  22
ENDBRANCH   1  16
BRANCH   6  25
ATOM     25  C   UNL     1       2.499   6.599  20.367  0.00  0.00    +0.000 C 
BRANCH  25  26
ATOM     26  C   UNL     1       2.014   5.294  19.781  0.00  0.00    +0.000 A 
ATOM     27  C   UNL     1       1.358   4.356  20.596  0.00  0.00    +0.000 A 
ATOM     28  C   UNL     1       0.904   3.149  20.062  0.00  0.00    +0.000 A 
ATOM     29  C   UNL     1       1.090   2.872  18.710  0.00  0.00    +0.000 A 
ATOM     30  C   UNL     1       1.728   3.801  17.889  0.00  0.00    +0.000 A 
ATOM     31  C   UNL     1       2.187   5.006  18.422  0.00  0.00    +0.000 A 
ENDBRANCH  25  26
ENDBRANCH   6  25
TORSDOF 7
ENDMDL
MODEL 7
REMARK VINA RESULT:      -7.0      1.311      1.796
REMARK  Name = 
REMARK  8 active torsions:
REMARK  status: ('A' for Active; 'I' for Inactive)
REMARK    1  A    between atoms: C_1  and  C_2
REMARK    2  A    between atoms: C_2  and  O_3
REMARK    3  A    between atoms: C_4  and  C_5
REMARK    4  A    between atoms: C_5  and  O_6
REMARK    5  A    between atoms: C_8  and  N_9
REMARK    6  A    between atoms: N_14  and  C_15
REMARK    7  A    between atoms: C_15  and  C_16
REMARK    8  A    between atoms: C_26  and  O_27
REMARK                            x       y       z     vdW  Elec       q    Type
REMARK                         _______ _______ _______ _____ _____    ______ ____
ROOT
ATOM      1  N   UNL     1       2.664   7.024  19.021  0.00  0.00    +0.000 N 
ATOM      2  C   UNL     1       2.923   7.569  17.790  0.00  0.00    +0.000 A 
ATOM      3  N   UNL     1       2.329   8.736  17.629  0.00  0.00    +0.000 NA
ATOM      4  C   UNL     1       1.641   8.951  18.804  0.00  0.00    +0.000 A 
ATOM      5  C   UNL     1       0.779   9.983  19.219  0.00  0.00    +0.000 A 
ATOM      6  N   UNL     1       0.382  11.017  18.385  0.00  0.00    +0.000 N 
ATOM      7  N   UNL     1       0.247   9.884  20.470  0.00  0.00    +0.000 NA
ATOM      8  C   UNL     1       0.547   8.815  21.227  0.00  0.00    +0.000 A 
ATOM      9  N   UNL     1       1.348   7.767  20.935  0.00  0.00    +0.000 NA
ATOM     10  C   UNL     1       1.859   7.902  19.694  0.00  0.00    +0.000 A 
ATOM     11  H   UNL     1       0.801  11.006  17.455  0.00  0.00    +0.000 HD
ENDROOT
BRANCH   1  16
ATOM     12  C   UNL     1       3.419   2.258  18.016  0.00  0.00    +0.000 C 
ATOM     13  C   UNL     1       2.711   3.562  18.372  0.00  0.00    +0.000 C 
ATOM     14  C   UNL     1       1.995   3.613  19.727  0.00  0.00    +0.000 C 
ATOM     15  O   UNL     1       1.901   5.025  20.054  0.00  0.00    +0.000 OA
ATOM     16  C   UNL     1       3.048   5.703  19.475  0.00  0.00    +0.000 C 
ATOM     17  C   UNL     1       3.681   4.752  18.448  0.00  0.00    +0.000 C 
BRANCH  13  18
ATOM     18  O   UNL     1       1.748   3.834  17.330  0.00  0.00    +0.000 OA
ATOM     19  H   UNL     1       0.872   3.951  17.757  0.00  0.00    +0.000 HD
ENDBRANCH  13  18
BRANCH  17  20
ATOM     20  O   UNL     1       3.914   5.311  17.159  0.00  0.00    +0.000 OA
ATOM     21  H   UNL     1       4.013   4.550  16.553  0.00  0.00    +0.000 HD
ENDBRANCH  17  20
BRANCH  14  22
ATOM     22  C   UNL     1       2.701   2.891  20.880  0.00  0.00    +0.000 C 
BRANCH  22  23
ATOM     23  O   UNL     1       2.150   3.261  22.140  0.00  0.00    +0.000 OA
ATOM     24  H   UNL     1       2.880   3.574  22.705  0.00  0.00    +0.000 HD
ENDBRANCH  22  23
ENDBRANCH  14  22
ENDBRANCH   1  16
BRANCH   6  25
ATOM     25  C   UNL     1       0.090  12.305  18.979  0.00  0.00    +0.000 C 
BRANCH  25  26
ATOM     26  C   UNL     1       1.379  13.069  19.172  0.00  0.00    +0.000 A 
ATOM     27  C   UNL     1       1.763  13.490  20.456  0.00  0.00    +0.000 A 
ATOM     28  C   UNL     1       2.954  14.192  20.645  0.00  0.00    +0.000 A 
ATOM     29  C   UNL     1       3.777  14.472  19.557  0.00  0.00    +0.000 A 
ATOM     30  C   UNL     1       3.412  14.048  18.279  0.00  0.00    +0.000 A 
ATOM     31  C   UNL     1       2.220  13.349  18.088  0.00  0.00    +0.000 A 
ENDBRANCH  25  26
ENDBRANCH   6  25
TORSDOF 7
ENDMDL
MODEL 8
REMARK VINA RESULT:      -6.9      2.110      3.090
REMARK  Name = 
REMARK  8 active torsions:
REMARK  status: ('A' for Active; 'I' for Inactive)
REMARK    1  A    between atoms: C_1  and  C_2
REMARK    2  A    between atoms: C_2  and  O_3
REMARK    3  A    between atoms: C_4  and  C_5
REMARK    4  A    between atoms: C_5  and  O_6
REMARK    5  A    between atoms: C_8  and  N_9
REMARK    6  A    between atoms: N_14  and  C_15
REMARK    7  A    between atoms: C_15  and  C_16
REMARK    8  A    between atoms: C_26  and  O_27
REMARK                            x       y       z     vdW  Elec       q    Type
REMARK                         _______ _______ _______ _____ _____    ______ ____
ROOT
ATOM      1  N   UNL     1       2.698   6.968  18.976  0.00  0.00    +0.000 N 
ATOM      2  C   UNL     1       2.918   7.498  17.730  0.00  0.00    +0.000 A 
ATOM      3  N   UNL     1       2.290   8.645  17.561  0.00  0.00    +0.000 NA
ATOM      4  C   UNL     1       1.618   8.862  18.746  0.00  0.00    +0.000 A 
ATOM      5  C   UNL     1       0.737   9.878  19.159  0.00  0.00    +0.000 A 
ATOM      6  N   UNL     1       0.295  10.885  18.314  0.00  0.00    +0.000 N 
ATOM      7  N   UNL     1       0.232   9.788  20.421  0.00  0.00    +0.000 NA
ATOM      8  C   UNL     1       0.576   8.741  21.191  0.00  0.00    +0.000 A 
ATOM      9  N   UNL     1       1.399   7.710  20.902  0.00  0.00    +0.000 NA
ATOM     10  C   UNL     1       1.883   7.837  19.649  0.00  0.00    +0.000 A 
ATOM     11  H   UNL     1       0.697  10.869  17.377  0.00  0.00    +0.000 HD
ENDROOT
BRANCH   1  16
ATOM     12  C   UNL     1       3.560   2.206  18.041  0.00  0.00    +0.000 C 
ATOM     13  C   UNL     1       2.825   3.498  18.389  0.00  0.00    +0.000 C 
ATOM     14  C   UNL     1       2.136   3.554  19.758  0.00  0.00    +0.000 C 
ATOM     15  O   UNL     1       2.011   4.970  20.061  0.00  0.00    +0.000 OA
ATOM     16  C   UNL     1       3.127   5.667  19.445  0.00  0.00    +0.000 C 
ATOM     17  C   UNL     1       3.764   4.714  18.422  0.00  0.00    +0.000 C 
BRANCH  13  18
ATOM     18  O   UNL     1       1.833   3.724  17.364  0.00  0.00    +0.000 OA
ATOM     19  H   UNL     1       1.435   4.607  17.523  0.00  0.00    +0.000 HD
ENDBRANCH  13  18
BRANCH  17  20
ATOM     20  O   UNL     1       3.954   5.255  17.119  0.00  0.00    +0.000 OA
ATOM     21  H   UNL     1       3.564   4.604  16.501  0.00  0.00    +0.000 HD
ENDBRANCH  17  20
BRANCH  14  22
ATOM     22  C   UNL     1       2.885   2.873  20.909  0.00  0.00    +0.000 C 
BRANCH  22  23
ATOM     23  O   UNL     1       2.157   2.963  22.128  0.00  0.00    +0.000 OA
ATOM     24  H   UNL     1       2.757   3.320  22.810  0.00  0.00    +0.000 HD
ENDBRANCH  22  23
ENDBRANCH  14  22
ENDBRANCH   1  16
BRANCH   6  25
ATOM     25  C   UNL     1      -0.020  12.176  18.891  0.00  0.00    +0.000 C 
BRANCH  25  26
ATOM     26  C   UNL     1      -1.507  12.259  19.147  0.00  0.00    +0.000 A 
ATOM     27  C   UNL     1      -1.993  12.966  20.259  0.00  0.00    +0.000 A 
ATOM     28  C   UNL     1      -3.365  13.051  20.501  0.00  0.00    +0.000 A 
ATOM     29  C   UNL     1      -4.264  12.441  19.631  0.00  0.00    +0.000 A 
ATOM     30  C   UNL     1      -3.794  11.747  18.516  0.00  0.00    +0.000 A 
ATOM     31  C   UNL     1      -2.423  11.657  18.275  0.00  0.00    +0.000 A 
ENDBRANCH  25  26
ENDBRANCH   6  25
TORSDOF 7
ENDMDL
MODEL 9
REMARK VINA RESULT:      -6.9      4.282      8.985
REMARK  Name = 
REMARK  8 active torsions:
REMARK  status: ('A' for Active; 'I' for Inactive)
REMARK    1  A    between atoms: C_1  and  C_2
REMARK    2  A    between atoms: C_2  and  O_3
REMARK    3  A    between atoms: C_4  and  C_5
REMARK    4  A    between atoms: C_5  and  O_6
REMARK    5  A    between atoms: C_8  and  N_9
REMARK    6  A    between atoms: N_14  and  C_15
REMARK    7  A    between atoms: C_15  and  C_16
REMARK    8  A    between atoms: C_26  and  O_27
REMARK                            x       y       z     vdW  Elec       q    Type
REMARK                         _______ _______ _______ _____ _____    ______ ____
ROOT
ATOM      1  N   UNL     1      -0.108  11.635  19.951  0.00  0.00    +0.000 N 
ATOM      2  C   UNL     1       0.366  11.140  18.763  0.00  0.00    +0.000 A 
ATOM      3  N   UNL     1       0.891   9.938  18.902  0.00  0.00    +0.000 NA
ATOM      4  C   UNL     1       0.765   9.646  20.243  0.00  0.00    +0.000 A 
ATOM      5  C   UNL     1       1.183   8.544  21.014  0.00  0.00    +0.000 A 
ATOM      6  N   UNL     1       1.943   7.506  20.497  0.00  0.00    +0.000 N 
ATOM      7  N   UNL     1       0.900   8.575  22.346  0.00  0.00    +0.000 NA
ATOM      8  C   UNL     1       0.265   9.643  22.857  0.00  0.00    +0.000 A 
ATOM      9  N   UNL     1      -0.172  10.753  22.223  0.00  0.00    +0.000 NA
ATOM     10  C   UNL     1       0.121  10.685  20.908  0.00  0.00    +0.000 A 
ATOM     11  H   UNL     1       2.136   7.569  19.498  0.00  0.00    +0.000 HD
ENDROOT
BRANCH   1  16
ATOM     12  C   UNL     1      -0.343  15.646  22.805  0.00  0.00    +0.000 C 
ATOM     13  C   UNL     1      -0.632  14.257  22.244  0.00  0.00    +0.000 C 
ATOM     14  C   UNL     1      -2.058  13.997  21.741  0.00  0.00    +0.000 C 
ATOM     15  O   UNL     1      -1.934  12.891  20.806  0.00  0.00    +0.000 OA
ATOM     16  C   UNL     1      -0.625  12.969  20.182  0.00  0.00    +0.000 C 
ATOM     17  C   UNL     1       0.233  13.931  21.016  0.00  0.00    +0.000 C 
BRANCH  13  18
ATOM     18  O   UNL     1      -0.325  13.296  23.277  0.00  0.00    +0.000 OA
ATOM     19  H   UNL     1       0.556  13.524  23.644  0.00  0.00    +0.000 HD
ENDBRANCH  13  18
BRANCH  17  20
ATOM     20  O   UNL     1       1.511  13.434  21.402  0.00  0.00    +0.000 OA
ATOM     21  H   UNL     1       2.155  13.861  20.802  0.00  0.00    +0.000 HD
ENDBRANCH  17  20
BRANCH  14  22
ATOM     22  C   UNL     1      -2.734  15.170  21.023  0.00  0.00    +0.000 C 
BRANCH  22  23
ATOM     23  O   UNL     1      -3.881  14.741  20.296  0.00  0.00    +0.000 OA
ATOM     24  H   UNL     1      -4.381  15.536  20.031  0.00  0.00    +0.000 HD
ENDBRANCH  22  23
ENDBRANCH  14  22
ENDBRANCH   1  16
BRANCH   6  25
ATOM     25  C   UNL     1       1.780   6.186  21.070  0.00  0.00    +0.000 C 
BRANCH  25  26
ATOM     26  C   UNL     1       1.736   5.161  19.961  0.00  0.00    +0.000 A 
ATOM     27  C   UNL     1       2.377   5.418  18.738  0.00  0.00    +0.000 A 
ATOM     28  C   UNL     1       2.344   4.475  17.709  0.00  0.00    +0.000 A 
ATOM     29  C   UNL     1       1.681   3.264  17.895  0.00  0.00    +0.000 A 
ATOM     30  C   UNL     1       1.053   2.993  19.110  0.00  0.00    +0.000 A 
ATOM     31  C   UNL     1       1.081   3.936  20.138  0.00  0.00    +0.000 A 
ENDBRANCH  25  26
ENDBRANCH   6  25
TORSDOF 7
ENDMDL
