MODEL 1
REMARK VINA RESULT:      -7.5      0.000      0.000
REMARK  Name = 
REMARK  10 active torsions:
REMARK  status: ('A' for Active; 'I' for Inactive)
REMARK    1  A    between atoms: C_1  and  C_2
REMARK    2  A    between atoms: C_2  and  O_3
REMARK    3  A    between atoms: O_3  and  C_4
REMARK    4  A    between atoms: C_4  and  C_5
REMARK    5  A    between atoms: C_5  and  C_6
REMARK    6  A    between atoms: C_6  and  C_7
REMARK    7  A    between atoms: N_9  and  C_10
REMARK    8  A    between atoms: C_10  and  C_11
REMARK    9  A    between atoms: C_11  and  C_12
REMARK   10  A    between atoms: C_11  and  N_18
REMARK                            x       y       z     vdW  Elec       q    Type
REMARK                         _______ _______ _______ _____ _____    ______ ____
ROOT
ATOM      1  C   UNL     1       2.846   6.005  18.393  0.00  0.00    +0.000 C 
ENDROOT
BRANCH   1   2
ATOM      2  N   UNL     1       2.053   7.257  18.599  0.00  0.00    +0.000 NA
ATOM      3  C   UNL     1       2.482   8.424  17.803  0.00  0.00    +0.000 C 
ATOM      4  C   UNL     1       1.487   9.614  17.872  0.00  0.00    +0.000 C 
ATOM      5  C   UNL     1       1.109   9.857  19.293  0.00  0.00    +0.000 A 
ATOM      6  S   UNL     1       0.530  11.343  19.875  0.00  0.00    +0.000 S 
ATOM      7  C   UNL     1       0.477  10.748  21.480  0.00  0.00    +0.000 A 
ATOM      8  C   UNL     1       0.838   9.419  21.548  0.00  0.00    +0.000 A 
ATOM      9  C   UNL     1       1.235   8.901  20.276  0.00  0.00    +0.000 A 
ATOM     10  C   UNL     1       1.838   7.550  20.030  0.00  0.00    +0.000 C 
ENDBRANCH   1   2
BRANCH   1  11
ATOM     11  C   UNL     1       2.257   4.711  18.994  0.00  0.00    +0.000 A 
ATOM     12  C   UNL     1       1.398   3.854  18.289  0.00  0.00    +0.000 A 
ATOM     13  C   UNL     1       0.814   2.741  18.909  0.00  0.00    +0.000 A 
ATOM     14  C   UNL     1       1.097   2.443  20.241  0.00  0.00    +0.000 A 
ATOM     15  C   UNL     1       1.961   3.272  20.959  0.00  0.00    +0.000 A 
ATOM     16  C   UNL     1       2.522   4.394  20.343  0.00  0.00    +0.000 A 
ENDBRANCH   1  11
BRANCH   1  17
ATOM     17  C   UNL     1       4.356   6.198  18.742  0.00  0.00    +0.000 C 
BRANCH  17  20
ATOM     18  C   UNL     1       6.246   4.909  17.853  0.00  0.00    +0.000 C 
ATOM     19  O   UNL     1       6.462   4.392  18.947  0.00  0.00    +0.000 OA
ATOM     20  N   UNL     1       5.274   5.863  17.658  0.00  0.00    +0.000 N 
ATOM     21  H   UNL     1       5.052   6.153  16.714  0.00  0.00    +0.000 HD
BRANCH  18  22
ATOM     22  C   UNL     1       7.055   4.574  16.615  0.00  0.00    +0.000 C 
BRANCH  22  23
ATOM     23  C   UNL     1       6.281   4.886  15.330  0.00  0.00    +0.000 C 
BRANCH  23  24
ATOM     24  C   UNL     1       6.965   4.328  14.083  0.00  0.00    +0.000 C 
BRANCH  24  25
ATOM     25  O   UNL     1       6.108   3.359  13.480  0.00  0.00    +0.000 OA
BRANCH  25  27
ATOM     26  C   UNL     1       4.654   3.263  11.593  0.00  0.00    +0.000 C 
ATOM     27  C   UNL     1       6.076   3.494  12.062  0.00  0.00    +0.000 C 
ENDBRANCH  25  27
ENDBRANCH  24  25
ENDBRANCH  23  24
ENDBRANCH  22  23
ENDBRANCH  18  22
ENDBRANCH  17  20
ENDBRANCH   1  17
TORSDOF 9
ENDMDL
MODEL 2
REMARK VINA RESULT:      -7.4      4.237      7.185
REMARK  Name = 
REMARK  10 active torsions:
REMARK  status: ('A' for Active; 'I' for Inactive)
REMARK    1  A    between atoms: C_1  and  C_2
REMARK    2  A    between atoms: C_2  and  O_3
REMARK    3  A    between atoms: O_3  and  C_4
REMARK    4  A    between atoms: C_4  and  C_5
REMARK    5  A    between atoms: C_5  and  C_6
REMARK    6  A    between atoms: C_6  and  C_7
REMARK    7  A    between atoms: N_9  and  C_10
REMARK    8  A    between atoms: C_10  and  C_11
REMARK    9  A    between atoms: C_11  and  C_12
REMARK   10  A    between atoms: C_11  and  N_18
REMARK                            x       y       z     vdW  Elec       q    Type
REMARK                         _______ _______ _______ _____ _____    ______ ____
ROOT
ATOM      1  C   UNL     1       5.875   5.895  15.892  0.00  0.00    +0.000 C 
ENDROOT
BRANCH   1   2
ATOM      2  N   UNL     1       4.758   5.379  16.743  0.00  0.00    +0.000 NA
ATOM      3  C   UNL     1       3.973   6.402  17.460  0.00  0.00    +0.000 C 
ATOM      4  C   UNL     1       2.691   5.837  18.128  0.00  0.00    +0.000 C 
ATOM      5  C   UNL     1       3.032   4.591  18.871  0.00  0.00    +0.000 A 
ATOM      6  S   UNL     1       2.114   3.982  20.163  0.00  0.00    +0.000 S 
ATOM      7  C   UNL     1       3.233   2.711  20.421  0.00  0.00    +0.000 A 
ATOM      8  C   UNL     1       4.251   2.727  19.492  0.00  0.00    +0.000 A 
ATOM      9  C   UNL     1       4.154   3.840  18.601  0.00  0.00    +0.000 A 
ATOM     10  C   UNL     1       5.182   4.244  17.587  0.00  0.00    +0.000 C 
ENDBRANCH   1   2
BRANCH   1  11
ATOM     11  C   UNL     1       6.146   5.136  14.576  0.00  0.00    +0.000 A 
ATOM     12  C   UNL     1       5.277   4.169  14.049  0.00  0.00    +0.000 A 
ATOM     13  C   UNL     1       5.613   3.439  12.901  0.00  0.00    +0.000 A 
ATOM     14  C   UNL     1       6.815   3.678  12.237  0.00  0.00    +0.000 A 
ATOM     15  C   UNL     1       7.691   4.647  12.733  0.00  0.00    +0.000 A 
ATOM     16  C   UNL     1       7.360   5.355  13.891  0.00  0.00    +0.000 A 
ENDBRANCH   1  11
BRANCH   1  17
ATOM     17  C   UNL     1       7.176   6.154  16.717  0.00  0.00    +0.000 C 
BRANCH  17  20
ATOM     18  C   UNL     1       8.171   7.945  18.068  0.00  0.00    +0.000 C 
ATOM     19  O   UNL     1       8.456   7.162  18.971  0.00  0.00    +0.000 OA
ATOM     20  N   UNL     1       7.479   7.563  16.941  0.00  0.00    +0.000 N 
ATOM     21  H   UNL     1       7.391   8.217  16.173  0.00  0.00    +0.000 HD
BRANCH  18  22
ATOM     22  C   UNL     1       8.521   9.419  18.121  0.00  0.00    +0.000 C 
BRANCH  22  23
ATOM     23  C   UNL     1       9.047   9.828  19.500  0.00  0.00    +0.000 C 
BRANCH  23  24
ATOM     24  C   UNL     1       9.989  11.030  19.436  0.00  0.00    +0.000 C 
BRANCH  24  25
ATOM     25  O   UNL     1      10.184  11.391  18.069  0.00  0.00    +0.000 OA
BRANCH  25  27
ATOM     26  C   UNL     1      11.047  13.074  16.616  0.00  0.00    +0.000 C 
ATOM     27  C   UNL     1      11.250  12.324  17.917  0.00  0.00    +0.000 C 
ENDBRANCH  25  27
ENDBRANCH  24  25
ENDBRANCH  23  24
ENDBRANCH  22  23
ENDBRANCH  18  22
ENDBRANCH  17  20
ENDBRANCH   1  17
TORSDOF 9
ENDMDL
MODEL 3
REMARK VINA RESULT:      -7.4      0.927      1.821
REMARK  Name = 
REMARK  10 active torsions:
REMARK  status: ('A' for Active; 'I' for Inactive)
REMARK    1  A    between atoms: C_1  and  C_2
REMARK    2  A    between atoms: C_2  and  O_3
REMARK    3  A    between atoms: O_3  and  C_4
REMARK    4  A    between atoms: C_4  and  C_5
REMARK    5  A    between atoms: C_5  and  C_6
REMARK    6  A    between atoms: C_6  and  C_7
REMARK    7  A    between atoms: N_9  and  C_10
REMARK    8  A    between atoms: C_10  and  C_11
REMARK    9  A    between atoms: C_11  and  C_12
REMARK   10  A    between atoms: C_11  and  N_18
REMARK                            x       y       z     vdW  Elec       q    Type
REMARK                         _______ _______ _______ _____ _____    ______ ____
ROOT
ATOM      1  C   UNL     1       3.008   6.026  19.139  0.00  0.00    +0.000 C 
ENDROOT
BRANCH   1   2
ATOM      2  N   UNL     1       2.441   7.305  19.669  0.00  0.00    +0.000 NA
ATOM      3  C   UNL     1       1.471   7.167  20.772  0.00  0.00    +0.000 C 
ATOM      4  C   UNL     1       1.102   8.519  21.439  0.00  0.00    +0.000 C 
ATOM      5  C   UNL     1       0.797   9.523  20.381  0.00  0.00    +0.000 A 
ATOM      6  S   UNL     1      -0.165  10.899  20.635  0.00  0.00    +0.000 S 
ATOM      7  C   UNL     1      -0.048  11.342  18.984  0.00  0.00    +0.000 A 
ATOM      8  C   UNL     1       0.764  10.481  18.277  0.00  0.00    +0.000 A 
ATOM      9  C   UNL     1       1.238   9.400  19.083  0.00  0.00    +0.000 A 
ATOM     10  C   UNL     1       2.000   8.207  18.587  0.00  0.00    +0.000 C 
ENDBRANCH   1   2
BRANCH   1  11
ATOM     11  C   UNL     1       2.184   4.747  19.398  0.00  0.00    +0.000 A 
ATOM     12  C   UNL     1       2.060   4.152  20.663  0.00  0.00    +0.000 A 
ATOM     13  C   UNL     1       1.379   2.938  20.830  0.00  0.00    +0.000 A 
ATOM     14  C   UNL     1       0.783   2.305  19.740  0.00  0.00    +0.000 A 
ATOM     15  C   UNL     1       0.880   2.885  18.474  0.00  0.00    +0.000 A 
ATOM     16  C   UNL     1       1.580   4.084  18.309  0.00  0.00    +0.000 A 
ENDBRANCH   1  11
BRANCH   1  17
ATOM     17  C   UNL     1       4.518   5.853  19.502  0.00  0.00    +0.000 C 
BRANCH  17  20
ATOM     18  C   UNL     1       6.696   5.165  18.606  0.00  0.00    +0.000 C 
ATOM     19  O   UNL     1       7.258   5.410  19.671  0.00  0.00    +0.000 OA
ATOM     20  N   UNL     1       5.359   5.410  18.395  0.00  0.00    +0.000 N 
ATOM     21  H   UNL     1       4.923   5.064  17.550  0.00  0.00    +0.000 HD
BRANCH  18  22
ATOM     22  C   UNL     1       7.428   4.600  17.405  0.00  0.00    +0.000 C 
BRANCH  22  23
ATOM     23  C   UNL     1       6.458   4.165  16.302  0.00  0.00    +0.000 C 
BRANCH  23  24
ATOM     24  C   UNL     1       6.910   4.614  14.913  0.00  0.00    +0.000 C 
BRANCH  24  25
ATOM     25  O   UNL     1       5.881   4.309  13.972  0.00  0.00    +0.000 OA
BRANCH  25  27
ATOM     26  C   UNL     1       5.261   3.149  11.983  0.00  0.00    +0.000 C 
ATOM     27  C   UNL     1       6.410   3.731  12.782  0.00  0.00    +0.000 C 
ENDBRANCH  25  27
ENDBRANCH  24  25
ENDBRANCH  23  24
ENDBRANCH  22  23
ENDBRANCH  18  22
ENDBRANCH  17  20
ENDBRANCH   1  17
TORSDOF 9
ENDMDL
MODEL 4
REMARK VINA RESULT:      -7.3      0.947      1.455
REMARK  Name = 
REMARK  10 active torsions:
REMARK  status: ('A' for Active; 'I' for Inactive)
REMARK    1  A    between atoms: C_1  and  C_2
REMARK    2  A    between atoms: C_2  and  O_3
REMARK    3  A    between atoms: O_3  and  C_4
REMARK    4  A    between atoms: C_4  and  C_5
REMARK    5  A    between atoms: C_5  and  C_6
REMARK    6  A    between atoms: C_6  and  C_7
REMARK    7  A    between atoms: N_9  and  C_10
REMARK    8  A    between atoms: C_10  and  C_11
REMARK    9  A    between atoms: C_11  and  C_12
REMARK   10  A    between atoms: C_11  and  N_18
REMARK                            x       y       z     vdW  Elec       q    Type
REMARK                         _______ _______ _______ _____ _____    ______ ____
ROOT
ATOM      1  C   UNL     1       2.777   6.137  17.991  0.00  0.00    +0.000 C 
ENDROOT
BRANCH   1   2
ATOM      2  N   UNL     1       1.966   7.291  18.490  0.00  0.00    +0.000 NA
ATOM      3  C   UNL     1       2.239   8.591  17.848  0.00  0.00    +0.000 C 
ATOM      4  C   UNL     1       1.212   9.692  18.227  0.00  0.00    +0.000 C 
ATOM      5  C   UNL     1       1.010   9.688  19.704  0.00  0.00    +0.000 A 
ATOM      6  S   UNL     1       0.450  11.027  20.584  0.00  0.00    +0.000 S 
ATOM      7  C   UNL     1       0.630  10.188  22.066  0.00  0.00    +0.000 A 
ATOM      8  C   UNL     1       1.052   8.890  21.874  0.00  0.00    +0.000 A 
ATOM      9  C   UNL     1       1.302   8.601  20.497  0.00  0.00    +0.000 A 
ATOM     10  C   UNL     1       1.925   7.345  19.965  0.00  0.00    +0.000 C 
ENDBRANCH   1   2
BRANCH   1  11
ATOM     11  C   UNL     1       2.466   4.757  18.609  0.00  0.00    +0.000 A 
ATOM     12  C   UNL     1       3.263   4.155  19.594  0.00  0.00    +0.000 A 
ATOM     13  C   UNL     1       2.992   2.860  20.055  0.00  0.00    +0.000 A 
ATOM     14  C   UNL     1       1.901   2.146  19.561  0.00  0.00    +0.000 A 
ATOM     15  C   UNL     1       1.084   2.730  18.590  0.00  0.00    +0.000 A 
ATOM     16  C   UNL     1       1.373   4.013  18.118  0.00  0.00    +0.000 A 
ENDBRANCH   1  11
BRANCH   1  17
ATOM     17  C   UNL     1       4.306   6.456  17.969  0.00  0.00    +0.000 C 
BRANCH  17  20
ATOM     18  C   UNL     1       5.655   5.195  16.352  0.00  0.00    +0.000 C 
ATOM     19  O   UNL     1       5.903   4.320  17.179  0.00  0.00    +0.000 OA
ATOM     20  N   UNL     1       4.932   6.325  16.657  0.00  0.00    +0.000 N 
ATOM     21  H   UNL     1       4.644   6.941  15.907  0.00  0.00    +0.000 HD
BRANCH  18  22
ATOM     22  C   UNL     1       6.152   5.133  14.921  0.00  0.00    +0.000 C 
BRANCH  22  23
ATOM     23  C   UNL     1       6.179   3.697  14.390  0.00  0.00    +0.000 C 
BRANCH  23  24
ATOM     24  C   UNL     1       6.343   3.635  12.872  0.00  0.00    +0.000 C 
BRANCH  24  25
ATOM     25  O   UNL     1       5.053   3.707  12.265  0.00  0.00    +0.000 OA
BRANCH  25  27
ATOM     26  C   UNL     1       6.076   1.757  11.350  0.00  0.00    +0.000 C 
ATOM     27  C   UNL     1       4.833   2.623  11.367  0.00  0.00    +0.000 C 
ENDBRANCH  25  27
ENDBRANCH  24  25
ENDBRANCH  23  24
ENDBRANCH  22  23
ENDBRANCH  18  22
ENDBRANCH  17  20
ENDBRANCH   1  17
TORSDOF 9
ENDMDL
MODEL 5
REMARK VINA RESULT:      -7.3      3.743      7.037
REMARK  Name = 
REMARK  10 active torsions:
REMARK  status: ('A' for Active; 'I' for Inactive)
REMARK    1  A    between atoms: C_1  and  C_2
REMARK    2  A    between atoms: C_2  and  O_3
REMARK    3  A    between atoms: O_3  and  C_4
REMARK    4  A    between atoms: C_4  and  C_5
REMARK    5  A    between atoms: C_5  and  C_6
REMARK    6  A    between atoms: C_6  and  C_7
REMARK    7  A    between atoms: N_9  and  C_10
REMARK    8  A    between atoms: C_10  and  C_11
REMARK    9  A    between atoms: C_11  and  C_12
REMARK   10  A    between atoms: C_11  and  N_18
REMARK                            x       y       z     vdW  Elec       q    Type
REMARK                         _______ _______ _______ _____ _____    ______ ____
ROOT
ATOM      1  C   UNL     1       5.832   5.066  15.835  0.00  0.00    +0.000 C 
ENDROOT
BRANCH   1   2
ATOM      2  N   UNL     1       4.523   4.729  16.476  0.00  0.00    +0.000 NA
ATOM      3  C   UNL     1       3.937   5.781  17.329  0.00  0.00    +0.000 C 
ATOM      4  C   UNL     1       2.480   5.475  17.768  0.00  0.00    +0.000 C 
ATOM      5  C   UNL     1       2.399   4.072  18.260  0.00  0.00    +0.000 A 
ATOM      6  S   UNL     1       1.201   3.513  19.326  0.00  0.00    +0.000 S 
ATOM      7  C   UNL     1       1.922   1.960  19.397  0.00  0.00    +0.000 A 
ATOM      8  C   UNL     1       3.020   1.865  18.570  0.00  0.00    +0.000 A 
ATOM      9  C   UNL     1       3.320   3.105  17.924  0.00  0.00    +0.000 A 
ATOM     10  C   UNL     1       4.537   3.389  17.095  0.00  0.00    +0.000 C 
ENDBRANCH   1   2
BRANCH   1  11
ATOM     11  C   UNL     1       6.025   4.604  14.376  0.00  0.00    +0.000 A 
ATOM     12  C   UNL     1       5.098   3.805  13.690  0.00  0.00    +0.000 A 
ATOM     13  C   UNL     1       5.363   3.332  12.397  0.00  0.00    +0.000 A 
ATOM     14  C   UNL     1       6.550   3.670  11.750  0.00  0.00    +0.000 A 
ATOM     15  C   UNL     1       7.483   4.477  12.406  0.00  0.00    +0.000 A 
ATOM     16  C   UNL     1       7.223   4.926  13.703  0.00  0.00    +0.000 A 
ENDBRANCH   1  11
BRANCH   1  17
ATOM     17  C   UNL     1       7.047   4.703  16.748  0.00  0.00    +0.000 C 
BRANCH  17  20
ATOM     18  C   UNL     1       7.601   6.241  18.578  0.00  0.00    +0.000 C 
ATOM     19  O   UNL     1       6.763   5.730  19.317  0.00  0.00    +0.000 OA
ATOM     20  N   UNL     1       7.777   5.854  17.270  0.00  0.00    +0.000 N 
ATOM     21  H   UNL     1       8.570   6.214  16.753  0.00  0.00    +0.000 HD
BRANCH  18  22
ATOM     22  C   UNL     1       8.504   7.375  19.024  0.00  0.00    +0.000 C 
BRANCH  22  23
ATOM     23  C   UNL     1       8.280   8.640  18.191  0.00  0.00    +0.000 C 
BRANCH  23  24
ATOM     24  C   UNL     1       8.929   9.876  18.814  0.00  0.00    +0.000 C 
BRANCH  24  25
ATOM     25  O   UNL     1       9.177  10.835  17.786  0.00  0.00    +0.000 OA
BRANCH  25  27
ATOM     26  C   UNL     1      10.100  13.012  17.477  0.00  0.00    +0.000 C 
ATOM     27  C   UNL     1      10.316  11.638  18.079  0.00  0.00    +0.000 C 
ENDBRANCH  25  27
ENDBRANCH  24  25
ENDBRANCH  23  24
ENDBRANCH  22  23
ENDBRANCH  18  22
ENDBRANCH  17  20
ENDBRANCH   1  17
TORSDOF 9
ENDMDL
MODEL 6
REMARK VINA RESULT:      -7.3      0.423      1.112
REMARK  Name = 
REMARK  10 active torsions:
REMARK  status: ('A' for Active; 'I' for Inactive)
REMARK    1  A    between atoms: C_1  and  C_2
REMARK    2  A    between atoms: C_2  and  O_3
REMARK    3  A    between atoms: O_3  and  C_4
REMARK    4  A    between atoms: C_4  and  C_5
REMARK    5  A    between atoms: C_5  and  C_6
REMARK    6  A    between atoms: C_6  and  C_7
REMARK    7  A    between atoms: N_9  and  C_10
REMARK    8  A    between atoms: C_10  and  C_11
REMARK    9  A    between atoms: C_11  and  C_12
REMARK   10  A    between atoms: C_11  and  N_18
REMARK                            x       y       z     vdW  Elec       q    Type
REMARK                         _______ _______ _______ _____ _____    ______ ____
ROOT
ATOM      1  C   UNL     1       2.817   5.937  18.646  0.00  0.00    +0.000 C 
ENDROOT
BRANCH   1   2
ATOM      2  N   UNL     1       2.044   7.215  18.742  0.00  0.00    +0.000 NA
ATOM      3  C   UNL     1       2.514   8.314  17.876  0.00  0.00    +0.000 C 
ATOM      4  C   UNL     1       1.541   9.523  17.836  0.00  0.00    +0.000 C 
ATOM      5  C   UNL     1       1.134   9.873  19.226  0.00  0.00    +0.000 A 
ATOM      6  S   UNL     1       0.571  11.408  19.686  0.00  0.00    +0.000 S 
ATOM      7  C   UNL     1       0.469  10.929  21.328  0.00  0.00    +0.000 A 
ATOM      8  C   UNL     1       0.802   9.603  21.499  0.00  0.00    +0.000 A 
ATOM      9  C   UNL     1       1.219   8.988  20.277  0.00  0.00    +0.000 A 
ATOM     10  C   UNL     1       1.802   7.613  20.143  0.00  0.00    +0.000 C 
ENDBRANCH   1   2
BRANCH   1  11
ATOM     11  C   UNL     1       2.140   4.677  19.226  0.00  0.00    +0.000 A 
ATOM     12  C   UNL     1       2.210   4.318  20.580  0.00  0.00    +0.000 A 
ATOM     13  C   UNL     1       1.659   3.114  21.041  0.00  0.00    +0.000 A 
ATOM     14  C   UNL     1       1.003   2.254  20.163  0.00  0.00    +0.000 A 
ATOM     15  C   UNL     1       0.907   2.597  18.812  0.00  0.00    +0.000 A 
ATOM     16  C   UNL     1       1.478   3.787  18.354  0.00  0.00    +0.000 A 
ENDBRANCH   1  11
BRANCH   1  17
ATOM     17  C   UNL     1       4.294   6.103  19.126  0.00  0.00    +0.000 C 
BRANCH  17  20
ATOM     18  C   UNL     1       6.204   5.127  17.932  0.00  0.00    +0.000 C 
ATOM     19  O   UNL     1       6.321   4.232  18.766  0.00  0.00    +0.000 OA
ATOM     20  N   UNL     1       5.279   6.139  18.050  0.00  0.00    +0.000 N 
ATOM     21  H   UNL     1       5.136   6.768  17.270  0.00  0.00    +0.000 HD
BRANCH  18  22
ATOM     22  C   UNL     1       7.091   5.226  16.707  0.00  0.00    +0.000 C 
BRANCH  22  23
ATOM     23  C   UNL     1       6.269   5.317  15.417  0.00  0.00    +0.000 C 
BRANCH  23  24
ATOM     24  C   UNL     1       6.690   4.277  14.379  0.00  0.00    +0.000 C 
BRANCH  24  25
ATOM     25  O   UNL     1       5.519   3.702  13.801  0.00  0.00    +0.000 OA
BRANCH  25  27
ATOM     26  C   UNL     1       7.080   3.889  12.008  0.00  0.00    +0.000 C 
ATOM     27  C   UNL     1       5.668   3.501  12.399  0.00  0.00    +0.000 C 
ENDBRANCH  25  27
ENDBRANCH  24  25
ENDBRANCH  23  24
ENDBRANCH  22  23
ENDBRANCH  18  22
ENDBRANCH  17  20
ENDBRANCH   1  17
TORSDOF 9
ENDMDL
MODEL 7
REMARK VINA RESULT:      -7.2      1.028      1.293
REMARK  Name = 
REMARK  10 active torsions:
REMARK  status: ('A' for Active; 'I' for Inactive)
REMARK    1  A    between atoms: C_1  and  C_2
REMARK    2  A    between atoms: C_2  and  O_3
REMARK    3  A    between atoms: O_3  and  C_4
REMARK    4  A    between atoms: C_4  and  C_5
REMARK    5  A    between atoms: C_5  and  C_6
REMARK    6  A    between atoms: C_6  and  C_7
REMARK    7  A    between atoms: N_9  and  C_10
REMARK    8  A    between atoms: C_10  and  C_11
REMARK    9  A    between atoms: C_11  and  C_12
REMARK   10  A    between atoms: C_11  and  N_18
REMARK                            x       y       z     vdW  Elec       q    Type
REMARK                         _______ _______ _______ _____ _____    ______ ____
ROOT
ATOM      1  C   UNL     1       3.122   5.926  18.344  0.00  0.00    +0.000 C 
ENDROOT
BRANCH   1   2
ATOM      2  N   UNL     1       2.238   7.105  18.600  0.00  0.00    +0.000 NA
ATOM      3  C   UNL     1       2.515   8.303  17.784  0.00  0.00    +0.000 C 
ATOM      4  C   UNL     1       1.427   9.402  17.915  0.00  0.00    +0.000 C 
ATOM      5  C   UNL     1       1.114   9.614  19.357  0.00  0.00    +0.000 A 
ATOM      6  S   UNL     1       0.444  11.046  19.977  0.00  0.00    +0.000 S 
ATOM      7  C   UNL     1       0.538  10.451  21.581  0.00  0.00    +0.000 A 
ATOM      8  C   UNL     1       1.016   9.158  21.622  0.00  0.00    +0.000 A 
ATOM      9  C   UNL     1       1.381   8.674  20.327  0.00  0.00    +0.000 A 
ATOM     10  C   UNL     1       2.083   7.381  20.042  0.00  0.00    +0.000 C 
ENDBRANCH   1   2
BRANCH   1  11
ATOM     11  C   UNL     1       2.471   4.533  18.480  0.00  0.00    +0.000 A 
ATOM     12  C   UNL     1       1.575   4.198  19.506  0.00  0.00    +0.000 A 
ATOM     13  C   UNL     1       1.084   2.892  19.643  0.00  0.00    +0.000 A 
ATOM     14  C   UNL     1       1.457   1.897  18.740  0.00  0.00    +0.000 A 
ATOM     15  C   UNL     1       2.337   2.210  17.702  0.00  0.00    +0.000 A 
ATOM     16  C   UNL     1       2.841   3.508  17.584  0.00  0.00    +0.000 A 
ENDBRANCH   1  11
BRANCH   1  17
ATOM     17  C   UNL     1       4.483   6.032  19.104  0.00  0.00    +0.000 C 
BRANCH  17  20
ATOM     18  C   UNL     1       5.891   5.606  17.139  0.00  0.00    +0.000 C 
ATOM     19  O   UNL     1       5.191   6.325  16.430  0.00  0.00    +0.000 OA
ATOM     20  N   UNL     1       5.593   5.341  18.456  0.00  0.00    +0.000 N 
ATOM     21  H   UNL     1       6.274   4.855  19.026  0.00  0.00    +0.000 HD
BRANCH  18  22
ATOM     22  C   UNL     1       7.135   4.910  16.624  0.00  0.00    +0.000 C 
BRANCH  22  23
ATOM     23  C   UNL     1       7.186   4.896  15.093  0.00  0.00    +0.000 C 
BRANCH  23  24
ATOM     24  C   UNL     1       6.356   3.763  14.490  0.00  0.00    +0.000 C 
BRANCH  24  25
ATOM     25  O   UNL     1       5.758   4.224  13.279  0.00  0.00    +0.000 OA
BRANCH  25  27
ATOM     26  C   UNL     1       4.384   3.243  11.595  0.00  0.00    +0.000 C 
ATOM     27  C   UNL     1       5.734   3.205  12.283  0.00  0.00    +0.000 C 
ENDBRANCH  25  27
ENDBRANCH  24  25
ENDBRANCH  23  24
ENDBRANCH  22  23
ENDBRANCH  18  22
ENDBRANCH  17  20
ENDBRANCH   1  17
TORSDOF 9
ENDMDL
MODEL 8
REMARK VINA RESULT:      -7.2      1.477      2.638
REMARK  Name = 
REMARK  10 active torsions:
REMARK  status: ('A' for Active; 'I' for Inactive)
REMARK    1  A    between atoms: C_1  and  C_2
REMARK    2  A    between atoms: C_2  and  O_3
REMARK    3  A    between atoms: O_3  and  C_4
REMARK    4  A    between atoms: C_4  and  C_5
REMARK    5  A    between atoms: C_5  and  C_6
REMARK    6  A    between atoms: C_6  and  C_7
REMARK    7  A    between atoms: N_9  and  C_10
REMARK    8  A    between atoms: C_10  and  C_11
REMARK    9  A    between atoms: C_11  and  C_12
REMARK   10  A    between atoms: C_11  and  N_18
REMARK                            x       y       z     vdW  Elec       q    Type
REMARK                         _______ _______ _______ _____ _____    ______ ____
ROOT
ATOM      1  C   UNL     1       2.504   5.895  18.239  0.00  0.00    +0.000 C 
ENDROOT
BRANCH   1   2
ATOM      2  N   UNL     1       1.875   7.227  18.499  0.00  0.00    +0.000 NA
ATOM      3  C   UNL     1       2.473   8.369  17.781  0.00  0.00    +0.000 C 
ATOM      4  C   UNL     1       1.640   9.673  17.897  0.00  0.00    +0.000 C 
ATOM      5  C   UNL     1       1.255   9.886  19.320  0.00  0.00    +0.000 A 
ATOM      6  S   UNL     1       0.857  11.402  19.974  0.00  0.00    +0.000 S 
ATOM      7  C   UNL     1       0.682  10.732  21.541  0.00  0.00    +0.000 A 
ATOM      8  C   UNL     1       0.866   9.366  21.540  0.00  0.00    +0.000 A 
ATOM      9  C   UNL     1       1.228   8.870  20.249  0.00  0.00    +0.000 A 
ATOM     10  C   UNL     1       1.659   7.468  19.939  0.00  0.00    +0.000 C 
ENDBRANCH   1   2
BRANCH   1  11
ATOM     11  C   UNL     1       2.114   4.749  19.197  0.00  0.00    +0.000 A 
ATOM     12  C   UNL     1       1.216   3.728  18.853  0.00  0.00    +0.000 A 
ATOM     13  C   UNL     1       0.820   2.763  19.789  0.00  0.00    +0.000 A 
ATOM     14  C   UNL     1       1.334   2.782  21.085  0.00  0.00    +0.000 A 
ATOM     15  C   UNL     1       2.241   3.780  21.447  0.00  0.00    +0.000 A 
ATOM     16  C   UNL     1       2.614   4.753  20.516  0.00  0.00    +0.000 A 
ENDBRANCH   1  11
BRANCH   1  17
ATOM     17  C   UNL     1       4.048   6.002  18.026  0.00  0.00    +0.000 C 
BRANCH  17  20
ATOM     18  C   UNL     1       5.029   5.771  15.788  0.00  0.00    +0.000 C 
ATOM     19  O   UNL     1       4.924   6.976  15.572  0.00  0.00    +0.000 OA
ATOM     20  N   UNL     1       4.567   5.177  16.940  0.00  0.00    +0.000 N 
ATOM     21  H   UNL     1       4.802   4.209  17.122  0.00  0.00    +0.000 HD
BRANCH  18  22
ATOM     22  C   UNL     1       5.648   4.812  14.791  0.00  0.00    +0.000 C 
BRANCH  22  23
ATOM     23  C   UNL     1       7.089   4.453  15.167  0.00  0.00    +0.000 C 
BRANCH  23  24
ATOM     24  C   UNL     1       7.648   5.350  16.271  0.00  0.00    +0.000 C 
BRANCH  24  25
ATOM     25  O   UNL     1       7.823   4.572  17.454  0.00  0.00    +0.000 OA
BRANCH  25  27
ATOM     26  C   UNL     1       7.791   6.823  18.239  0.00  0.00    +0.000 C 
ATOM     27  C   UNL     1       7.683   5.363  18.630  0.00  0.00    +0.000 C 
ENDBRANCH  25  27
ENDBRANCH  24  25
ENDBRANCH  23  24
ENDBRANCH  22  23
ENDBRANCH  18  22
ENDBRANCH  17  20
ENDBRANCH   1  17
TORSDOF 9
ENDMDL
MODEL 9
REMARK VINA RESULT:      -7.2      0.969      1.027
REMARK  Name = 
REMARK  10 active torsions:
REMARK  status: ('A' for Active; 'I' for Inactive)
REMARK    1  A    between atoms: C_1  and  C_2
REMARK    2  A    between atoms: C_2  and  O_3
REMARK    3  A    between atoms: O_3  and  C_4
REMARK    4  A    between atoms: C_4  and  C_5
REMARK    5  A    between atoms: C_5  and  C_6
REMARK    6  A    between atoms: C_6  and  C_7
REMARK    7  A    between atoms: N_9  and  C_10
REMARK    8  A    between atoms: C_10  and  C_11
REMARK    9  A    between atoms: C_11  and  C_12
REMARK   10  A    between atoms: C_11  and  N_18
REMARK                            x       y       z     vdW  Elec       q    Type
REMARK                         _______ _______ _______ _____ _____    ______ ____
ROOT
ATOM      1  C   UNL     1       2.772   5.761  18.162  0.00  0.00    +0.000 C 
ENDROOT
BRANCH   1   2
ATOM      2  N   UNL     1       2.099   7.073  18.415  0.00  0.00    +0.000 NA
ATOM      3  C   UNL     1       2.662   8.231  17.694  0.00  0.00    +0.000 C 
ATOM      4  C   UNL     1       1.786   9.508  17.803  0.00  0.00    +0.000 C 
ATOM      5  C   UNL     1       1.392   9.715  19.225  0.00  0.00    +0.000 A 
ATOM      6  S   UNL     1       0.944  11.219  19.872  0.00  0.00    +0.000 S 
ATOM      7  C   UNL     1       0.787  10.551  21.441  0.00  0.00    +0.000 A 
ATOM      8  C   UNL     1       1.015   9.191  21.446  0.00  0.00    +0.000 A 
ATOM      9  C   UNL     1       1.396   8.702  20.158  0.00  0.00    +0.000 A 
ATOM     10  C   UNL     1       1.873   7.313  19.855  0.00  0.00    +0.000 C 
ENDBRANCH   1   2
BRANCH   1  11
ATOM     11  C   UNL     1       2.337   4.580  19.055  0.00  0.00    +0.000 A 
ATOM     12  C   UNL     1       1.229   3.767  18.773  0.00  0.00    +0.000 A 
ATOM     13  C   UNL     1       0.818   2.766  19.664  0.00  0.00    +0.000 A 
ATOM     14  C   UNL     1       1.521   2.538  20.846  0.00  0.00    +0.000 A 
ATOM     15  C   UNL     1       2.637   3.325  21.142  0.00  0.00    +0.000 A 
ATOM     16  C   UNL     1       3.028   4.336  20.261  0.00  0.00    +0.000 A 
ENDBRANCH   1  11
BRANCH   1  17
ATOM     17  C   UNL     1       4.325   5.903  18.064  0.00  0.00    +0.000 C 
BRANCH  17  20
ATOM     18  C   UNL     1       5.947   5.522  16.263  0.00  0.00    +0.000 C 
ATOM     19  O   UNL     1       6.271   6.707  16.248  0.00  0.00    +0.000 OA
ATOM     20  N   UNL     1       4.950   5.032  17.074  0.00  0.00    +0.000 N 
ATOM     21  H   UNL     1       4.819   4.031  17.143  0.00  0.00    +0.000 HD
BRANCH  18  22
ATOM     22  C   UNL     1       6.590   4.486  15.362  0.00  0.00    +0.000 C 
BRANCH  22  23
ATOM     23  C   UNL     1       7.314   5.134  14.178  0.00  0.00    +0.000 C 
BRANCH  23  24
ATOM     24  C   UNL     1       6.965   4.473  12.844  0.00  0.00    +0.000 C 
BRANCH  24  25
ATOM     25  O   UNL     1       6.210   3.289  13.099  0.00  0.00    +0.000 OA
BRANCH  25  27
ATOM     26  C   UNL     1       4.356   3.364  11.601  0.00  0.00    +0.000 C 
ATOM     27  C   UNL     1       5.697   2.723  11.897  0.00  0.00    +0.000 C 
ENDBRANCH  25  27
ENDBRANCH  24  25
ENDBRANCH  23  24
ENDBRANCH  22  23
ENDBRANCH  18  22
ENDBRANCH  17  20
ENDBRANCH   1  17
TORSDOF 9
ENDMDL
