MODEL 1
REMARK VINA RESULT:      -7.3      0.000      0.000
REMARK  Name = 
REMARK  8 active torsions:
REMARK  status: ('A' for Active; 'I' for Inactive)
REMARK    1  A    between atoms: N_1  and  S_2
REMARK    2  A    between atoms: S_2  and  O_5
REMARK    3  A    between atoms: O_5  and  C_6
REMARK    4  A    between atoms: C_6  and  C_7
REMARK    5  A    between atoms: C_9  and  N_10
REMARK    6  A    between atoms: C_11  and  C_13
REMARK    7  A    between atoms: C_19  and  O_20
REMARK    8  A    between atoms: C_21  and  O_22
REMARK                            x       y       z     vdW  Elec       q    Type
REMARK                         _______ _______ _______ _____ _____    ______ ____
ROOT
ATOM      1  C   UNL     1       3.616   3.585  18.143  0.00  0.00    +0.000 C 
ATOM      2  C   UNL     1       2.621   4.670  17.695  0.00  0.00    +0.000 C 
ATOM      3  C   UNL     1       3.325   6.033  17.886  0.00  0.00    +0.000 C 
ATOM      4  C   UNL     1       4.771   5.688  18.282  0.00  0.00    +0.000 C 
ATOM      5  C   UNL     1       4.639   4.338  18.989  0.00  0.00    +0.000 C 
ENDROOT
BRANCH   3   6
ATOM      6  N   UNL     1       2.643   6.856  18.875  0.00  0.00    +0.000 N 
ATOM      7  C   UNL     1       2.193   8.128  18.549  0.00  0.00    +0.000 C 
ATOM      8  O   UNL     1       2.355   8.629  17.437  0.00  0.00    +0.000 OA
ATOM      9  H   UNL     1       2.384   6.488  19.788  0.00  0.00    +0.000 HD
BRANCH   7  10
ATOM     10  C   UNL     1       1.478   8.887  19.624  0.00  0.00    +0.000 A 
ATOM     11  C   UNL     1       1.305   8.327  20.888  0.00  0.00    +0.000 A 
ATOM     12  C   UNL     1       0.662   9.086  21.863  0.00  0.00    +0.000 A 
ATOM     13  C   UNL     1       0.223  10.369  21.547  0.00  0.00    +0.000 A 
ATOM     14  C   UNL     1       0.440  10.842  20.263  0.00  0.00    +0.000 A 
ATOM     15  N   UNL     1       1.055  10.138  19.284  0.00  0.00    +0.000 NA
ENDBRANCH   7  10
ENDBRANCH   3   6
BRANCH   4  16
ATOM     16  O   UNL     1       5.624   5.537  17.135  0.00  0.00    +0.000 OA
ATOM     17  H   UNL     1       5.487   4.653  16.750  0.00  0.00    +0.000 HD
ENDBRANCH   4  16
BRANCH   5  18
ATOM     18  O   UNL     1       5.871   3.634  19.034  0.00  0.00    +0.000 OA
ATOM     19  H   UNL     1       6.058   3.466  19.979  0.00  0.00    +0.000 HD
ENDBRANCH   5  18
BRANCH   1  20
ATOM     20  C   UNL     1       2.971   2.447  18.932  0.00  0.00    +0.000 C 
BRANCH  20  21
ATOM     21  O   UNL     1       3.134   2.661  20.327  0.00  0.00    +0.000 OA
BRANCH  21  22
ATOM     22  S   UNL     1       1.853   3.280  21.109  0.00  0.00    +0.000 S 
ATOM     23  O   UNL     1       1.985   4.710  21.184  0.00  0.00    +0.000 OA
ATOM     24  O   UNL     1       1.597   2.470  22.280  0.00  0.00    +0.000 OA
BRANCH  22  25
ATOM     25  N   UNL     1       0.570   2.967  20.081  0.00  0.00    +0.000 NA
ATOM     26  H   UNL     1      -0.090   3.741  20.147  0.00  0.00    +0.000 HD
ATOM     27  H   UNL     1       0.135   2.082  20.342  0.00  0.00    +0.000 HD
ENDBRANCH  22  25
ENDBRANCH  21  22
ENDBRANCH  20  21
ENDBRANCH   1  20
TORSDOF 8
ENDMDL
MODEL 2
REMARK VINA RESULT:      -7.2      0.594      1.026
REMARK  Name = 
REMARK  8 active torsions:
REMARK  status: ('A' for Active; 'I' for Inactive)
REMARK    1  A    between atoms: N_1  and  S_2
REMARK    2  A    between atoms: S_2  and  O_5
REMARK    3  A    between atoms: O_5  and  C_6
REMARK    4  A    between atoms: C_6  and  C_7
REMARK    5  A    between atoms: C_9  and  N_10
REMARK    6  A    between atoms: C_11  and  C_13
REMARK    7  A    between atoms: C_19  and  O_20
REMARK    8  A    between atoms: C_21  and  O_22
REMARK                            x       y       z     vdW  Elec       q    Type
REMARK                         _______ _______ _______ _____ _____    ______ ____
ROOT
ATOM      1  C   UNL     1       3.581   3.590  18.141  0.00  0.00    +0.000 C 
ATOM      2  C   UNL     1       2.613   4.698  17.689  0.00  0.00    +0.000 C 
ATOM      3  C   UNL     1       3.340   6.046  17.901  0.00  0.00    +0.000 C 
ATOM      4  C   UNL     1       4.774   5.670  18.312  0.00  0.00    +0.000 C 
ATOM      5  C   UNL     1       4.607   4.317  19.005  0.00  0.00    +0.000 C 
ENDROOT
BRANCH   3   6
ATOM      6  N   UNL     1       2.661   6.873  18.889  0.00  0.00    +0.000 N 
ATOM      7  C   UNL     1       2.169   8.124  18.546  0.00  0.00    +0.000 C 
ATOM      8  O   UNL     1       2.289   8.604  17.418  0.00  0.00    +0.000 OA
ATOM      9  H   UNL     1       2.435   6.519  19.816  0.00  0.00    +0.000 HD
BRANCH   7  10
ATOM     10  C   UNL     1       1.461   8.890  19.620  0.00  0.00    +0.000 A 
ATOM     11  C   UNL     1       0.818  10.090  19.325  0.00  0.00    +0.000 A 
ATOM     12  C   UNL     1       0.146  10.748  20.352  0.00  0.00    +0.000 A 
ATOM     13  C   UNL     1       0.134  10.188  21.627  0.00  0.00    +0.000 A 
ATOM     14  C   UNL     1       0.801   8.989  21.826  0.00  0.00    +0.000 A 
ATOM     15  N   UNL     1       1.471   8.319  20.859  0.00  0.00    +0.000 NA
ENDBRANCH   7  10
ENDBRANCH   3   6
BRANCH   4  16
ATOM     16  O   UNL     1       5.639   5.513  17.174  0.00  0.00    +0.000 OA
ATOM     17  H   UNL     1       6.330   4.860  17.388  0.00  0.00    +0.000 HD
ENDBRANCH   4  16
BRANCH   5  18
ATOM     18  O   UNL     1       5.825   3.590  19.060  0.00  0.00    +0.000 OA
ATOM     19  H   UNL     1       6.543   4.254  19.100  0.00  0.00    +0.000 HD
ENDBRANCH   5  18
BRANCH   1  20
ATOM     20  C   UNL     1       2.906   2.458  18.911  0.00  0.00    +0.000 C 
BRANCH  20  21
ATOM     21  O   UNL     1       3.084   2.639  20.309  0.00  0.00    +0.000 OA
BRANCH  21  22
ATOM     22  S   UNL     1       1.834   3.295  21.111  0.00  0.00    +0.000 S 
ATOM     23  O   UNL     1       2.011   4.720  21.185  0.00  0.00    +0.000 OA
ATOM     24  O   UNL     1       1.571   2.491  22.284  0.00  0.00    +0.000 OA
BRANCH  22  25
ATOM     25  N   UNL     1       0.528   3.022  20.101  0.00  0.00    +0.000 NA
ATOM     26  H   UNL     1      -0.311   3.380  20.557  0.00  0.00    +0.000 HD
ATOM     27  H   UNL     1       0.451   2.024  19.908  0.00  0.00    +0.000 HD
ENDBRANCH  22  25
ENDBRANCH  21  22
ENDBRANCH  20  21
ENDBRANCH   1  20
TORSDOF 8
ENDMDL
MODEL 3
REMARK VINA RESULT:      -6.8      1.116      1.533
REMARK  Name = 
REMARK  8 active torsions:
REMARK  status: ('A' for Active; 'I' for Inactive)
REMARK    1  A    between atoms: N_1  and  S_2
REMARK    2  A    between atoms: S_2  and  O_5
REMARK    3  A    between atoms: O_5  and  C_6
REMARK    4  A    between atoms: C_6  and  C_7
REMARK    5  A    between atoms: C_9  and  N_10
REMARK    6  A    between atoms: C_11  and  C_13
REMARK    7  A    between atoms: C_19  and  O_20
REMARK    8  A    between atoms: C_21  and  O_22
REMARK                            x       y       z     vdW  Elec       q    Type
REMARK                         _______ _______ _______ _____ _____    ______ ____
ROOT
ATOM      1  C   UNL     1       4.295   3.837  17.813  0.00  0.00    +0.000 C 
ATOM      2  C   UNL     1       3.195   4.831  17.399  0.00  0.00    +0.000 C 
ATOM      3  C   UNL     1       3.747   6.251  17.664  0.00  0.00    +0.000 C 
ATOM      4  C   UNL     1       5.218   6.042  18.066  0.00  0.00    +0.000 C 
ATOM      5  C   UNL     1       5.222   4.654  18.708  0.00  0.00    +0.000 C 
ENDROOT
BRANCH   3   6
ATOM      6  N   UNL     1       2.970   6.949  18.679  0.00  0.00    +0.000 N 
ATOM      7  C   UNL     1       2.336   8.147  18.384  0.00  0.00    +0.000 C 
ATOM      8  O   UNL     1       2.405   8.686  17.280  0.00  0.00    +0.000 OA
ATOM      9  H   UNL     1       2.783   6.531  19.588  0.00  0.00    +0.000 HD
BRANCH   7  10
ATOM     10  C   UNL     1       1.538   8.776  19.484  0.00  0.00    +0.000 A 
ATOM     11  C   UNL     1       0.800   9.934  19.246  0.00  0.00    +0.000 A 
ATOM     12  C   UNL     1       0.047  10.463  20.292  0.00  0.00    +0.000 A 
ATOM     13  C   UNL     1       0.053   9.821  21.527  0.00  0.00    +0.000 A 
ATOM     14  C   UNL     1       0.818   8.674  21.670  0.00  0.00    +0.000 A 
ATOM     15  N   UNL     1       1.567   8.129  20.683  0.00  0.00    +0.000 NA
ENDBRANCH   7  10
ENDBRANCH   3   6
BRANCH   4  16
ATOM     16  O   UNL     1       6.094   6.037  16.927  0.00  0.00    +0.000 OA
ATOM     17  H   UNL     1       7.014   6.136  17.233  0.00  0.00    +0.000 HD
ENDBRANCH   4  16
BRANCH   5  18
ATOM     18  O   UNL     1       6.522   4.083  18.740  0.00  0.00    +0.000 OA
ATOM     19  H   UNL     1       6.688   3.826  19.669  0.00  0.00    +0.000 HD
ENDBRANCH   5  18
BRANCH   1  20
ATOM     20  C   UNL     1       3.767   2.601  18.538  0.00  0.00    +0.000 C 
BRANCH  20  21
ATOM     21  O   UNL     1       3.756   2.821  19.941  0.00  0.00    +0.000 OA
BRANCH  21  22
ATOM     22  S   UNL     1       2.327   3.238  20.589  0.00  0.00    +0.000 S 
ATOM     23  O   UNL     1       1.275   2.515  19.927  0.00  0.00    +0.000 OA
ATOM     24  O   UNL     1       2.294   4.677  20.738  0.00  0.00    +0.000 OA
BRANCH  22  25
ATOM     25  N   UNL     1       2.411   2.645  22.151  0.00  0.00    +0.000 NA
ATOM     26  H   UNL     1       3.390   2.620  22.433  0.00  0.00    +0.000 HD
ATOM     27  H   UNL     1       1.989   1.718  22.185  0.00  0.00    +0.000 HD
ENDBRANCH  22  25
ENDBRANCH  21  22
ENDBRANCH  20  21
ENDBRANCH   1  20
TORSDOF 8
ENDMDL
MODEL 4
REMARK VINA RESULT:      -6.7      3.054      4.852
REMARK  Name = 
REMARK  8 active torsions:
REMARK  status: ('A' for Active; 'I' for Inactive)
REMARK    1  A    between atoms: N_1  and  S_2
REMARK    2  A    between atoms: S_2  and  O_5
REMARK    3  A    between atoms: O_5  and  C_6
REMARK    4  A    between atoms: C_6  and  C_7
REMARK    5  A    between atoms: C_9  and  N_10
REMARK    6  A    between atoms: C_11  and  C_13
REMARK    7  A    between atoms: C_19  and  O_20
REMARK    8  A    between atoms: C_21  and  O_22
REMARK                            x       y       z     vdW  Elec       q    Type
REMARK                         _______ _______ _______ _____ _____    ______ ____
ROOT
ATOM      1  C   UNL     1       6.437   4.488  18.021  0.00  0.00    +0.000 C 
ATOM      2  C   UNL     1       6.070   5.279  19.289  0.00  0.00    +0.000 C 
ATOM      3  C   UNL     1       4.574   5.010  19.571  0.00  0.00    +0.000 C 
ATOM      4  C   UNL     1       4.160   3.934  18.552  0.00  0.00    +0.000 C 
ATOM      5  C   UNL     1       5.093   4.182  17.367  0.00  0.00    +0.000 C 
ENDROOT
BRANCH   3   6
ATOM      6  N   UNL     1       3.781   6.227  19.472  0.00  0.00    +0.000 N 
ATOM      7  C   UNL     1       2.556   6.328  20.115  0.00  0.00    +0.000 C 
ATOM      8  O   UNL     1       2.071   5.410  20.777  0.00  0.00    +0.000 OA
ATOM      9  H   UNL     1       4.146   7.066  19.025  0.00  0.00    +0.000 HD
BRANCH   7  10
ATOM     10  C   UNL     1       1.826   7.628  19.979  0.00  0.00    +0.000 A 
ATOM     11  C   UNL     1       1.888   8.350  18.788  0.00  0.00    +0.000 A 
ATOM     12  C   UNL     1       1.166   9.538  18.699  0.00  0.00    +0.000 A 
ATOM     13  C   UNL     1       0.409   9.958  19.790  0.00  0.00    +0.000 A 
ATOM     14  C   UNL     1       0.407   9.173  20.932  0.00  0.00    +0.000 A 
ATOM     15  N   UNL     1       1.097   8.016  21.064  0.00  0.00    +0.000 NA
ENDBRANCH   7  10
ENDBRANCH   3   6
BRANCH   4  16
ATOM     16  O   UNL     1       4.376   2.604  19.052  0.00  0.00    +0.000 OA
ATOM     17  H   UNL     1       5.218   2.581  19.541  0.00  0.00    +0.000 HD
ENDBRANCH   4  16
BRANCH   5  18
ATOM     18  O   UNL     1       5.193   3.049  16.518  0.00  0.00    +0.000 OA
ATOM     19  H   UNL     1       4.280   2.725  16.381  0.00  0.00    +0.000 HD
ENDBRANCH   5  18
BRANCH   1  20
ATOM     20  C   UNL     1       7.361   5.245  17.069  0.00  0.00    +0.000 C 
BRANCH  20  21
ATOM     21  O   UNL     1       7.632   4.459  15.918  0.00  0.00    +0.000 OA
BRANCH  21  22
ATOM     22  S   UNL     1       7.030   5.011  14.516  0.00  0.00    +0.000 S 
ATOM     23  O   UNL     1       8.104   5.504  13.696  0.00  0.00    +0.000 OA
ATOM     24  O   UNL     1       5.856   5.807  14.804  0.00  0.00    +0.000 OA
BRANCH  22  25
ATOM     25  N   UNL     1       6.443   3.636  13.766  0.00  0.00    +0.000 NA
ATOM     26  H   UNL     1       5.457   3.783  13.550  0.00  0.00    +0.000 HD
ATOM     27  H   UNL     1       6.574   2.832  14.380  0.00  0.00    +0.000 HD
ENDBRANCH  22  25
ENDBRANCH  21  22
ENDBRANCH  20  21
ENDBRANCH   1  20
TORSDOF 8
ENDMDL
MODEL 5
REMARK VINA RESULT:      -6.5      3.616      6.354
REMARK  Name = 
REMARK  8 active torsions:
REMARK  status: ('A' for Active; 'I' for Inactive)
REMARK    1  A    between atoms: N_1  and  S_2
REMARK    2  A    between atoms: S_2  and  O_5
REMARK    3  A    between atoms: O_5  and  C_6
REMARK    4  A    between atoms: C_6  and  C_7
REMARK    5  A    between atoms: C_9  and  N_10
REMARK    6  A    between atoms: C_11  and  C_13
REMARK    7  A    between atoms: C_19  and  O_20
REMARK    8  A    between atoms: C_21  and  O_22
REMARK                            x       y       z     vdW  Elec       q    Type
REMARK                         _______ _______ _______ _____ _____    ______ ____
ROOT
ATOM      1  C   UNL     1       3.619   4.057  19.179  0.00  0.00    +0.000 C 
ATOM      2  C   UNL     1       5.061   4.149  18.652  0.00  0.00    +0.000 C 
ATOM      3  C   UNL     1       5.113   5.359  17.690  0.00  0.00    +0.000 C 
ATOM      4  C   UNL     1       3.737   6.035  17.820  0.00  0.00    +0.000 C 
ATOM      5  C   UNL     1       2.803   4.883  18.189  0.00  0.00    +0.000 C 
ENDROOT
BRANCH   3   6
ATOM      6  N   UNL     1       5.423   4.950  16.328  0.00  0.00    +0.000 N 
ATOM      7  C   UNL     1       6.569   5.409  15.694  0.00  0.00    +0.000 C 
ATOM      8  O   UNL     1       7.363   6.184  16.227  0.00  0.00    +0.000 OA
ATOM      9  H   UNL     1       4.874   4.241  15.846  0.00  0.00    +0.000 HD
BRANCH   7  10
ATOM     10  C   UNL     1       6.817   4.912  14.304  0.00  0.00    +0.000 A 
ATOM     11  C   UNL     1       6.032   3.892  13.769  0.00  0.00    +0.000 A 
ATOM     12  C   UNL     1       6.282   3.486  12.460  0.00  0.00    +0.000 A 
ATOM     13  C   UNL     1       7.293   4.109  11.735  0.00  0.00    +0.000 A 
ATOM     14  C   UNL     1       8.021   5.115  12.350  0.00  0.00    +0.000 A 
ATOM     15  N   UNL     1       7.817   5.537  13.620  0.00  0.00    +0.000 NA
ENDBRANCH   7  10
ENDBRANCH   3   6
BRANCH   4  16
ATOM     16  O   UNL     1       3.714   7.016  18.870  0.00  0.00    +0.000 OA
ATOM     17  H   UNL     1       3.836   6.568  19.727  0.00  0.00    +0.000 HD
ENDBRANCH   4  16
BRANCH   5  18
ATOM     18  O   UNL     1       1.599   5.340  18.787  0.00  0.00    +0.000 OA
ATOM     19  H   UNL     1       1.557   6.304  18.621  0.00  0.00    +0.000 HD
ENDBRANCH   5  18
BRANCH   1  20
ATOM     20  C   UNL     1       3.090   2.628  19.281  0.00  0.00    +0.000 C 
BRANCH  20  21
ATOM     21  O   UNL     1       2.879   2.276  20.641  0.00  0.00    +0.000 OA
BRANCH  21  22
ATOM     22  S   UNL     1       1.719   3.102  21.421  0.00  0.00    +0.000 S 
ATOM     23  O   UNL     1       2.141   4.466  21.597  0.00  0.00    +0.000 OA
ATOM     24  O   UNL     1       1.247   2.295  22.525  0.00  0.00    +0.000 OA
BRANCH  22  25
ATOM     25  N   UNL     1       0.448   3.126  20.332  0.00  0.00    +0.000 NA
ATOM     26  H   UNL     1       0.677   3.782  19.586  0.00  0.00    +0.000 HD
ATOM     27  H   UNL     1      -0.408   3.396  20.817  0.00  0.00    +0.000 HD
ENDBRANCH  22  25
ENDBRANCH  21  22
ENDBRANCH  20  21
ENDBRANCH   1  20
TORSDOF 8
ENDMDL
MODEL 6
REMARK VINA RESULT:      -6.5      2.805      4.729
REMARK  Name = 
REMARK  8 active torsions:
REMARK  status: ('A' for Active; 'I' for Inactive)
REMARK    1  A    between atoms: N_1  and  S_2
REMARK    2  A    between atoms: S_2  and  O_5
REMARK    3  A    between atoms: O_5  and  C_6
REMARK    4  A    between atoms: C_6  and  C_7
REMARK    5  A    between atoms: C_9  and  N_10
REMARK    6  A    between atoms: C_11  and  C_13
REMARK    7  A    between atoms: C_19  and  O_20
REMARK    8  A    between atoms: C_21  and  O_22
REMARK                            x       y       z     vdW  Elec       q    Type
REMARK                         _______ _______ _______ _____ _____    ______ ____
ROOT
ATOM      1  C   UNL     1       6.178   4.530  18.094  0.00  0.00    +0.000 C 
ATOM      2  C   UNL     1       5.817   5.311  19.370  0.00  0.00    +0.000 C 
ATOM      3  C   UNL     1       4.313   5.072  19.635  0.00  0.00    +0.000 C 
ATOM      4  C   UNL     1       3.884   4.020  18.597  0.00  0.00    +0.000 C 
ATOM      5  C   UNL     1       4.834   4.264  17.423  0.00  0.00    +0.000 C 
ENDROOT
BRANCH   3   6
ATOM      6  N   UNL     1       3.548   6.308  19.546  0.00  0.00    +0.000 N 
ATOM      7  C   UNL     1       2.347   6.448  20.227  0.00  0.00    +0.000 C 
ATOM      8  O   UNL     1       1.861   5.551  20.916  0.00  0.00    +0.000 OA
ATOM      9  H   UNL     1       3.919   7.132  19.077  0.00  0.00    +0.000 HD
BRANCH   7  10
ATOM     10  C   UNL     1       1.647   7.765  20.097  0.00  0.00    +0.000 A 
ATOM     11  C   UNL     1       0.882   8.263  21.150  0.00  0.00    +0.000 A 
ATOM     12  C   UNL     1       0.276   9.508  20.994  0.00  0.00    +0.000 A 
ATOM     13  C   UNL     1       0.457  10.208  19.804  0.00  0.00    +0.000 A 
ATOM     14  C   UNL     1       1.236   9.632  18.813  0.00  0.00    +0.000 A 
ATOM     15  N   UNL     1       1.838   8.425  18.920  0.00  0.00    +0.000 NA
ENDBRANCH   7  10
ENDBRANCH   3   6
BRANCH   4  16
ATOM     16  O   UNL     1       4.065   2.679  19.079  0.00  0.00    +0.000 OA
ATOM     17  H   UNL     1       5.018   2.476  19.107  0.00  0.00    +0.000 HD
ENDBRANCH   4  16
BRANCH   5  18
ATOM     18  O   UNL     1       4.916   3.141  16.559  0.00  0.00    +0.000 OA
ATOM     19  H   UNL     1       5.070   2.362  17.132  0.00  0.00    +0.000 HD
ENDBRANCH   5  18
BRANCH   1  20
ATOM     20  C   UNL     1       7.127   5.280  17.162  0.00  0.00    +0.000 C 
BRANCH  20  21
ATOM     21  O   UNL     1       7.518   4.443  16.081  0.00  0.00    +0.000 OA
BRANCH  21  22
ATOM     22  S   UNL     1       6.987   4.879  14.611  0.00  0.00    +0.000 S 
ATOM     23  O   UNL     1       6.330   3.760  13.990  0.00  0.00    +0.000 OA
ATOM     24  O   UNL     1       8.037   5.620  13.946  0.00  0.00    +0.000 OA
BRANCH  22  25
ATOM     25  N   UNL     1       5.801   6.014  14.937  0.00  0.00    +0.000 NA
ATOM     26  H   UNL     1       6.156   6.655  15.646  0.00  0.00    +0.000 HD
ATOM     27  H   UNL     1       4.956   5.539  15.253  0.00  0.00    +0.000 HD
ENDBRANCH  22  25
ENDBRANCH  21  22
ENDBRANCH  20  21
ENDBRANCH   1  20
TORSDOF 8
ENDMDL
MODEL 7
REMARK VINA RESULT:      -6.4      2.760      4.707
REMARK  Name = 
REMARK  8 active torsions:
REMARK  status: ('A' for Active; 'I' for Inactive)
REMARK    1  A    between atoms: N_1  and  S_2
REMARK    2  A    between atoms: S_2  and  O_5
REMARK    3  A    between atoms: O_5  and  C_6
REMARK    4  A    between atoms: C_6  and  C_7
REMARK    5  A    between atoms: C_9  and  N_10
REMARK    6  A    between atoms: C_11  and  C_13
REMARK    7  A    between atoms: C_19  and  O_20
REMARK    8  A    between atoms: C_21  and  O_22
REMARK                            x       y       z     vdW  Elec       q    Type
REMARK                         _______ _______ _______ _____ _____    ______ ____
ROOT
ATOM      1  C   UNL     1       6.075   4.341  18.176  0.00  0.00    +0.000 C 
ATOM      2  C   UNL     1       5.708   5.307  19.316  0.00  0.00    +0.000 C 
ATOM      3  C   UNL     1       4.182   5.190  19.534  0.00  0.00    +0.000 C 
ATOM      4  C   UNL     1       3.734   4.032  18.625  0.00  0.00    +0.000 C 
ATOM      5  C   UNL     1       4.746   4.060  17.479  0.00  0.00    +0.000 C 
ENDROOT
BRANCH   3   6
ATOM      6  N   UNL     1       3.500   6.443  19.242  0.00  0.00    +0.000 N 
ATOM      7  C   UNL     1       2.323   6.776  19.897  0.00  0.00    +0.000 C 
ATOM      8  O   UNL     1       1.790   6.043  20.731  0.00  0.00    +0.000 OA
ATOM      9  H   UNL     1       3.916   7.148  18.639  0.00  0.00    +0.000 HD
BRANCH   7  10
ATOM     10  C   UNL     1       1.709   8.098  19.552  0.00  0.00    +0.000 A 
ATOM     11  C   UNL     1       1.870   8.638  18.277  0.00  0.00    +0.000 A 
ATOM     12  C   UNL     1       1.252   9.855  17.994  0.00  0.00    +0.000 A 
ATOM     13  C   UNL     1       0.499  10.481  18.983  0.00  0.00    +0.000 A 
ATOM     14  C   UNL     1       0.395   9.868  20.221  0.00  0.00    +0.000 A 
ATOM     15  N   UNL     1       0.982   8.691  20.541  0.00  0.00    +0.000 NA
ENDBRANCH   7  10
ENDBRANCH   3   6
BRANCH   4  16
ATOM     16  O   UNL     1       3.811   2.761  19.291  0.00  0.00    +0.000 OA
ATOM     17  H   UNL     1       3.913   2.909  20.249  0.00  0.00    +0.000 HD
ENDBRANCH   4  16
BRANCH   5  18
ATOM     18  O   UNL     1       4.796   2.827  16.778  0.00  0.00    +0.000 OA
ATOM     19  H   UNL     1       4.999   3.047  15.846  0.00  0.00    +0.000 HD
ENDBRANCH   5  18
BRANCH   1  20
ATOM     20  C   UNL     1       7.107   4.902  17.201  0.00  0.00    +0.000 C 
BRANCH  20  21
ATOM     21  O   UNL     1       7.151   4.112  16.021  0.00  0.00    +0.000 OA
BRANCH  21  22
ATOM     22  S   UNL     1       6.722   4.856  14.645  0.00  0.00    +0.000 S 
ATOM     23  O   UNL     1       5.814   4.016  13.911  0.00  0.00    +0.000 OA
ATOM     24  O   UNL     1       7.909   5.417  14.038  0.00  0.00    +0.000 OA
BRANCH  22  25
ATOM     25  N   UNL     1       5.840   6.179  15.167  0.00  0.00    +0.000 NA
ATOM     26  H   UNL     1       4.869   6.049  14.886  0.00  0.00    +0.000 HD
ATOM     27  H   UNL     1       6.234   7.029  14.764  0.00  0.00    +0.000 HD
ENDBRANCH  22  25
ENDBRANCH  21  22
ENDBRANCH  20  21
ENDBRANCH   1  20
TORSDOF 8
ENDMDL
MODEL 8
REMARK VINA RESULT:      -6.4      1.303      1.489
REMARK  Name = 
REMARK  8 active torsions:
REMARK  status: ('A' for Active; 'I' for Inactive)
REMARK    1  A    between atoms: N_1  and  S_2
REMARK    2  A    between atoms: S_2  and  O_5
REMARK    3  A    between atoms: O_5  and  C_6
REMARK    4  A    between atoms: C_6  and  C_7
REMARK    5  A    between atoms: C_9  and  N_10
REMARK    6  A    between atoms: C_11  and  C_13
REMARK    7  A    between atoms: C_19  and  O_20
REMARK    8  A    between atoms: C_21  and  O_22
REMARK                            x       y       z     vdW  Elec       q    Type
REMARK                         _______ _______ _______ _____ _____    ______ ____
ROOT
ATOM      1  C   UNL     1       4.092   3.314  17.831  0.00  0.00    +0.000 C 
ATOM      2  C   UNL     1       3.715   4.722  17.335  0.00  0.00    +0.000 C 
ATOM      3  C   UNL     1       4.408   5.733  18.278  0.00  0.00    +0.000 C 
ATOM      4  C   UNL     1       5.305   4.880  19.192  0.00  0.00    +0.000 C 
ATOM      5  C   UNL     1       4.578   3.537  19.260  0.00  0.00    +0.000 C 
ENDROOT
BRANCH   3   6
ATOM      6  N   UNL     1       3.439   6.533  19.012  0.00  0.00    +0.000 N 
ATOM      7  C   UNL     1       2.833   7.631  18.419  0.00  0.00    +0.000 C 
ATOM      8  O   UNL     1       3.085   7.995  17.270  0.00  0.00    +0.000 OA
ATOM      9  H   UNL     1       3.102   6.252  19.931  0.00  0.00    +0.000 HD
BRANCH   7  10
ATOM     10  C   UNL     1       1.829   8.377  19.243  0.00  0.00    +0.000 A 
ATOM     11  C   UNL     1       1.574   7.995  20.559  0.00  0.00    +0.000 A 
ATOM     12  C   UNL     1       0.655   8.740  21.295  0.00  0.00    +0.000 A 
ATOM     13  C   UNL     1       0.032   9.833  20.699  0.00  0.00    +0.000 A 
ATOM     14  C   UNL     1       0.349  10.137  19.385  0.00  0.00    +0.000 A 
ATOM     15  N   UNL     1       1.231   9.438  18.632  0.00  0.00    +0.000 NA
ENDBRANCH   7  10
ENDBRANCH   3   6
BRANCH   4  16
ATOM     16  O   UNL     1       6.613   4.680  18.632  0.00  0.00    +0.000 OA
ATOM     17  H   UNL     1       6.902   5.502  18.196  0.00  0.00    +0.000 HD
ENDBRANCH   4  16
BRANCH   5  18
ATOM     18  O   UNL     1       5.436   2.483  19.670  0.00  0.00    +0.000 OA
ATOM     19  H   UNL     1       6.343   2.854  19.681  0.00  0.00    +0.000 HD
ENDBRANCH   5  18
BRANCH   1  20
ATOM     20  C   UNL     1       2.939   2.315  17.783  0.00  0.00    +0.000 C 
BRANCH  20  21
ATOM     21  O   UNL     1       2.551   1.948  19.100  0.00  0.00    +0.000 OA
BRANCH  21  22
ATOM     22  S   UNL     1       1.143   2.558  19.628  0.00  0.00    +0.000 S 
ATOM     23  O   UNL     1       1.074   2.430  21.059  0.00  0.00    +0.000 OA
ATOM     24  O   UNL     1       0.085   2.082  18.763  0.00  0.00    +0.000 OA
BRANCH  22  25
ATOM     25  N   UNL     1       1.268   4.193  19.294  0.00  0.00    +0.000 NA
ATOM     26  H   UNL     1       1.966   4.319  18.563  0.00  0.00    +0.000 HD
ATOM     27  H   UNL     1       1.523   4.693  20.146  0.00  0.00    +0.000 HD
ENDBRANCH  22  25
ENDBRANCH  21  22
ENDBRANCH  20  21
ENDBRANCH   1  20
TORSDOF 8
ENDMDL
MODEL 9
REMARK VINA RESULT:      -6.3      2.581      4.399
REMARK  Name = 
REMARK  8 active torsions:
REMARK  status: ('A' for Active; 'I' for Inactive)
REMARK    1  A    between atoms: N_1  and  S_2
REMARK    2  A    between atoms: S_2  and  O_5
REMARK    3  A    between atoms: O_5  and  C_6
REMARK    4  A    between atoms: C_6  and  C_7
REMARK    5  A    between atoms: C_9  and  N_10
REMARK    6  A    between atoms: C_11  and  C_13
REMARK    7  A    between atoms: C_19  and  O_20
REMARK    8  A    between atoms: C_21  and  O_22
REMARK                            x       y       z     vdW  Elec       q    Type
REMARK                         _______ _______ _______ _____ _____    ______ ____
ROOT
ATOM      1  C   UNL     1       4.390   3.749  17.757  0.00  0.00    +0.000 C 
ATOM      2  C   UNL     1       4.719   4.759  18.870  0.00  0.00    +0.000 C 
ATOM      3  C   UNL     1       3.419   4.978  19.679  0.00  0.00    +0.000 C 
ATOM      4  C   UNL     1       2.417   3.956  19.113  0.00  0.00    +0.000 C 
ATOM      5  C   UNL     1       2.867   3.775  17.663  0.00  0.00    +0.000 C 
ENDROOT
BRANCH   3   6
ATOM      6  N   UNL     1       2.950   6.353  19.582  0.00  0.00    +0.000 N 
ATOM      7  C   UNL     1       1.897   6.798  20.367  0.00  0.00    +0.000 C 
ATOM      8  O   UNL     1       1.299   6.070  21.160  0.00  0.00    +0.000 OA
ATOM      9  H   UNL     1       3.444   7.046  19.024  0.00  0.00    +0.000 HD
BRANCH   7  10
ATOM     10  C   UNL     1       1.504   8.235  20.219  0.00  0.00    +0.000 A 
ATOM     11  C   UNL     1       1.070   8.966  21.323  0.00  0.00    +0.000 A 
ATOM     12  C   UNL     1       0.747  10.308  21.140  0.00  0.00    +0.000 A 
ATOM     13  C   UNL     1       0.872  10.872  19.873  0.00  0.00    +0.000 A 
ATOM     14  C   UNL     1       1.312  10.067  18.834  0.00  0.00    +0.000 A 
ATOM     15  N   UNL     1       1.631   8.758  18.966  0.00  0.00    +0.000 NA
ENDBRANCH   7  10
ENDBRANCH   3   6
BRANCH   4  16
ATOM     16  O   UNL     1       2.492   2.692  19.792  0.00  0.00    +0.000 OA
ATOM     17  H   UNL     1       2.248   2.818  20.727  0.00  0.00    +0.000 HD
ENDBRANCH   4  16
BRANCH   5  18
ATOM     18  O   UNL     1       2.377   2.568  17.098  0.00  0.00    +0.000 OA
ATOM     19  H   UNL     1       1.602   2.814  16.552  0.00  0.00    +0.000 HD
ENDBRANCH   5  18
BRANCH   1  20
ATOM     20  C   UNL     1       5.036   4.081  16.414  0.00  0.00    +0.000 C 
BRANCH  20  21
ATOM     21  O   UNL     1       5.584   5.392  16.442  0.00  0.00    +0.000 OA
BRANCH  21  22
ATOM     22  S   UNL     1       7.173   5.510  16.132  0.00  0.00    +0.000 S 
ATOM     23  O   UNL     1       7.678   6.734  16.693  0.00  0.00    +0.000 OA
ATOM     24  O   UNL     1       7.398   5.148  14.750  0.00  0.00    +0.000 OA
BRANCH  22  25
ATOM     25  N   UNL     1       7.844   4.260  17.019  0.00  0.00    +0.000 NA
ATOM     26  H   UNL     1       8.680   3.935  16.535  0.00  0.00    +0.000 HD
ATOM     27  H   UNL     1       7.159   3.512  17.123  0.00  0.00    +0.000 HD
ENDBRANCH  22  25
ENDBRANCH  21  22
ENDBRANCH  20  21
ENDBRANCH   1  20
TORSDOF 8
ENDMDL
