MODEL 1
REMARK VINA RESULT:      -7.1      0.000      0.000
REMARK  Name = 
REMARK  3 active torsions:
REMARK  status: ('A' for Active; 'I' for Inactive)
REMARK    1  A    between atoms: C_2  and  O_3
REMARK    2  A    between atoms: C_2  and  C_4
REMARK    3  A    between atoms: C_9  and  O_10
REMARK                            x       y       z     vdW  Elec       q    Type
REMARK                         _______ _______ _______ _____ _____    ______ ____
ROOT
ATOM      1  C   UNL     1       5.200   4.855  17.235  0.00  0.00    +0.000 A 
ATOM      2  C   UNL     1       3.811   4.720  17.174  0.00  0.00    +0.000 A 
ATOM      3  C   UNL     1       3.142   4.018  18.181  0.00  0.00    +0.000 A 
ATOM      4  C   UNL     1       3.874   3.503  19.252  0.00  0.00    +0.000 A 
ATOM      5  N   UNL     1       5.227   3.621  19.329  0.00  0.00    +0.000 NA
ATOM      6  C   UNL     1       5.834   4.281  18.324  0.00  0.00    +0.000 A 
ATOM      7  C   UNL     1       3.210   2.741  20.369  0.00  0.00    +0.000 C 
ATOM      8  C   UNL     1       1.708   2.997  20.441  0.00  0.00    +0.000 C 
ATOM      9  C   UNL     1       1.072   2.819  19.072  0.00  0.00    +0.000 C 
ATOM     10  C   UNL     1       1.682   3.791  18.089  0.00  0.00    +0.000 C 
ATOM     11  O   UNL     1       1.024   4.320  17.200  0.00  0.00    +0.000 OA
ENDROOT
BRANCH   1  13
ATOM     12  O   UNL     1       5.362   6.465  15.510  0.00  0.00    +0.000 OA
ATOM     13  C   UNL     1       5.903   5.575  16.147  0.00  0.00    +0.000 C 
BRANCH  13  14
ATOM     14  O   UNL     1       7.169   5.178  15.901  0.00  0.00    +0.000 OA
ATOM     15  H   UNL     1       7.536   4.549  16.560  0.00  0.00    +0.000 HD
ENDBRANCH  13  14
ENDBRANCH   1  13
BRANCH   6  16
ATOM     16  O   UNL     1       7.185   4.324  18.477  0.00  0.00    +0.000 OA
ATOM     17  H   UNL     1       7.280   5.206  18.891  0.00  0.00    +0.000 HD
ENDBRANCH   6  16
TORSDOF 3
ENDMDL
MODEL 2
REMARK VINA RESULT:      -7.0      1.816      4.596
REMARK  Name = 
REMARK  3 active torsions:
REMARK  status: ('A' for Active; 'I' for Inactive)
REMARK    1  A    between atoms: C_2  and  O_3
REMARK    2  A    between atoms: C_2  and  C_4
REMARK    3  A    between atoms: C_9  and  O_10
REMARK                            x       y       z     vdW  Elec       q    Type
REMARK                         _______ _______ _______ _____ _____    ______ ____
ROOT
ATOM      1  C   UNL     1       3.601   3.726  18.025  0.00  0.00    +0.000 A 
ATOM      2  C   UNL     1       4.079   4.761  17.218  0.00  0.00    +0.000 A 
ATOM      3  C   UNL     1       5.250   5.432  17.581  0.00  0.00    +0.000 A 
ATOM      4  C   UNL     1       5.944   5.022  18.720  0.00  0.00    +0.000 A 
ATOM      5  N   UNL     1       5.495   4.018  19.520  0.00  0.00    +0.000 NA
ATOM      6  C   UNL     1       4.347   3.418  19.150  0.00  0.00    +0.000 A 
ATOM      7  C   UNL     1       7.215   5.702  19.160  0.00  0.00    +0.000 C 
ATOM      8  C   UNL     1       7.867   6.506  18.039  0.00  0.00    +0.000 C 
ATOM      9  C   UNL     1       6.846   7.414  17.371  0.00  0.00    +0.000 C 
ATOM     10  C   UNL     1       5.725   6.587  16.785  0.00  0.00    +0.000 C 
ATOM     11  O   UNL     1       5.171   6.890  15.734  0.00  0.00    +0.000 OA
ENDROOT
BRANCH   1  13
ATOM     12  O   UNL     1       1.339   3.665  17.337  0.00  0.00    +0.000 OA
ATOM     13  C   UNL     1       2.342   3.042  17.649  0.00  0.00    +0.000 C 
BRANCH  13  14
ATOM     14  O   UNL     1       2.372   1.693  17.681  0.00  0.00    +0.000 OA
ATOM     15  H   UNL     1       1.637   1.280  18.184  0.00  0.00    +0.000 HD
ENDBRANCH  13  14
ENDBRANCH   1  13
BRANCH   6  16
ATOM     16  O   UNL     1       3.967   2.447  20.024  0.00  0.00    +0.000 OA
ATOM     17  H   UNL     1       4.688   2.520  20.682  0.00  0.00    +0.000 HD
ENDBRANCH   6  16
TORSDOF 3
ENDMDL
MODEL 3
REMARK VINA RESULT:      -6.9      1.950      2.840
REMARK  Name = 
REMARK  3 active torsions:
REMARK  status: ('A' for Active; 'I' for Inactive)
REMARK    1  A    between atoms: C_2  and  O_3
REMARK    2  A    between atoms: C_2  and  C_4
REMARK    3  A    between atoms: C_9  and  O_10
REMARK                            x       y       z     vdW  Elec       q    Type
REMARK                         _______ _______ _______ _____ _____    ______ ____
ROOT
ATOM      1  C   UNL     1       6.453   5.214  18.694  0.00  0.00    +0.000 A 
ATOM      2  C   UNL     1       5.250   5.183  19.402  0.00  0.00    +0.000 A 
ATOM      3  C   UNL     1       4.129   4.574  18.829  0.00  0.00    +0.000 A 
ATOM      4  C   UNL     1       4.250   3.968  17.578  0.00  0.00    +0.000 A 
ATOM      5  N   UNL     1       5.412   3.988  16.871  0.00  0.00    +0.000 NA
ATOM      6  C   UNL     1       6.459   4.611  17.447  0.00  0.00    +0.000 A 
ATOM      7  C   UNL     1       3.080   3.292  16.911  0.00  0.00    +0.000 C 
ATOM      8  C   UNL     1       1.966   2.946  17.894  0.00  0.00    +0.000 C 
ATOM      9  C   UNL     1       1.613   4.155  18.746  0.00  0.00    +0.000 C 
ATOM     10  C   UNL     1       2.824   4.607  19.527  0.00  0.00    +0.000 C 
ATOM     11  O   UNL     1       2.737   5.056  20.665  0.00  0.00    +0.000 OA
ENDROOT
BRANCH   1  13
ATOM     12  O   UNL     1       8.204   6.804  18.729  0.00  0.00    +0.000 OA
ATOM     13  C   UNL     1       7.627   5.889  19.296  0.00  0.00    +0.000 C 
BRANCH  13  14
ATOM     14  O   UNL     1       8.020   5.426  20.501  0.00  0.00    +0.000 OA
ATOM     15  H   UNL     1       7.924   4.456  20.617  0.00  0.00    +0.000 HD
ENDBRANCH  13  14
ENDBRANCH   1  13
BRANCH   6  16
ATOM     16  O   UNL     1       7.565   4.601  16.655  0.00  0.00    +0.000 OA
ATOM     17  H   UNL     1       8.258   4.736  17.332  0.00  0.00    +0.000 HD
ENDBRANCH   6  16
TORSDOF 3
ENDMDL
MODEL 4
REMARK VINA RESULT:      -6.8      1.843      2.348
REMARK  Name = 
REMARK  3 active torsions:
REMARK  status: ('A' for Active; 'I' for Inactive)
REMARK    1  A    between atoms: C_2  and  O_3
REMARK    2  A    between atoms: C_2  and  C_4
REMARK    3  A    between atoms: C_9  and  O_10
REMARK                            x       y       z     vdW  Elec       q    Type
REMARK                         _______ _______ _______ _____ _____    ______ ____
ROOT
ATOM      1  C   UNL     1       5.970   4.948  15.817  0.00  0.00    +0.000 A 
ATOM      2  C   UNL     1       4.769   4.282  16.067  0.00  0.00    +0.000 A 
ATOM      3  C   UNL     1       4.048   4.573  17.229  0.00  0.00    +0.000 A 
ATOM      4  C   UNL     1       4.525   5.558  18.095  0.00  0.00    +0.000 A 
ATOM      5  N   UNL     1       5.694   6.216  17.872  0.00  0.00    +0.000 NA
ATOM      6  C   UNL     1       6.371   5.885  16.756  0.00  0.00    +0.000 A 
ATOM      7  C   UNL     1       3.792   5.920  19.361  0.00  0.00    +0.000 C 
ATOM      8  C   UNL     1       2.335   5.469  19.343  0.00  0.00    +0.000 C 
ATOM      9  C   UNL     1       2.234   4.008  18.934  0.00  0.00    +0.000 C 
ATOM     10  C   UNL     1       2.817   3.817  17.553  0.00  0.00    +0.000 C 
ATOM     11  O   UNL     1       2.347   3.019  16.750  0.00  0.00    +0.000 OA
ENDROOT
BRANCH   1  13
ATOM     12  O   UNL     1       7.646   5.322  14.190  0.00  0.00    +0.000 OA
ATOM     13  C   UNL     1       6.742   4.610  14.599  0.00  0.00    +0.000 C 
BRANCH  13  14
ATOM     14  O   UNL     1       6.379   3.473  13.968  0.00  0.00    +0.000 OA
ATOM     15  H   UNL     1       6.832   2.664  14.289  0.00  0.00    +0.000 HD
ENDBRANCH  13  14
ENDBRANCH   1  13
BRANCH   6  16
ATOM     16  O   UNL     1       7.536   6.576  16.633  0.00  0.00    +0.000 OA
ATOM     17  H   UNL     1       7.966   6.057  15.924  0.00  0.00    +0.000 HD
ENDBRANCH   6  16
TORSDOF 3
ENDMDL
MODEL 5
REMARK VINA RESULT:      -6.8      2.213      5.386
REMARK  Name = 
REMARK  3 active torsions:
REMARK  status: ('A' for Active; 'I' for Inactive)
REMARK    1  A    between atoms: C_2  and  O_3
REMARK    2  A    between atoms: C_2  and  C_4
REMARK    3  A    between atoms: C_9  and  O_10
REMARK                            x       y       z     vdW  Elec       q    Type
REMARK                         _______ _______ _______ _____ _____    ______ ____
ROOT
ATOM      1  C   UNL     1       2.825   3.165  19.709  0.00  0.00    +0.000 A 
ATOM      2  C   UNL     1       4.037   3.855  19.780  0.00  0.00    +0.000 A 
ATOM      3  C   UNL     1       4.745   4.126  18.605  0.00  0.00    +0.000 A 
ATOM      4  C   UNL     1       4.202   3.739  17.379  0.00  0.00    +0.000 A 
ATOM      5  N   UNL     1       3.025   3.064  17.288  0.00  0.00    +0.000 NA
ATOM      6  C   UNL     1       2.390   2.798  18.446  0.00  0.00    +0.000 A 
ATOM      7  C   UNL     1       4.915   4.006  16.079  0.00  0.00    +0.000 C 
ATOM      8  C   UNL     1       5.977   5.093  16.207  0.00  0.00    +0.000 C 
ATOM      9  C   UNL     1       6.885   4.815  17.395  0.00  0.00    +0.000 C 
ATOM     10  C   UNL     1       6.072   4.780  18.668  0.00  0.00    +0.000 C 
ATOM     11  O   UNL     1       6.508   5.204  19.733  0.00  0.00    +0.000 OA
ENDROOT
BRANCH   1  13
ATOM     12  O   UNL     1       2.682   2.521  21.980  0.00  0.00    +0.000 OA
ATOM     13  C   UNL     1       2.098   2.855  20.962  0.00  0.00    +0.000 C 
BRANCH  13  14
ATOM     14  O   UNL     1       0.753   2.957  20.903  0.00  0.00    +0.000 OA
ATOM     15  H   UNL     1       0.271   2.122  21.088  0.00  0.00    +0.000 HD
ENDBRANCH  13  14
ENDBRANCH   1  13
BRANCH   6  16
ATOM     16  O   UNL     1       1.238   2.099  18.255  0.00  0.00    +0.000 OA
ATOM     17  H   UNL     1       1.071   2.305  17.313  0.00  0.00    +0.000 HD
ENDBRANCH   6  16
TORSDOF 3
ENDMDL
MODEL 6
REMARK VINA RESULT:      -6.8      1.720      2.653
REMARK  Name = 
REMARK  3 active torsions:
REMARK  status: ('A' for Active; 'I' for Inactive)
REMARK    1  A    between atoms: C_2  and  O_3
REMARK    2  A    between atoms: C_2  and  C_4
REMARK    3  A    between atoms: C_9  and  O_10
REMARK                            x       y       z     vdW  Elec       q    Type
REMARK                         _______ _______ _______ _____ _____    ______ ____
ROOT
ATOM      1  C   UNL     1       5.783   4.970  17.499  0.00  0.00    +0.000 A 
ATOM      2  C   UNL     1       5.549   3.960  18.436  0.00  0.00    +0.000 A 
ATOM      3  C   UNL     1       4.262   3.786  18.953  0.00  0.00    +0.000 A 
ATOM      4  C   UNL     1       3.226   4.597  18.488  0.00  0.00    +0.000 A 
ATOM      5  N   UNL     1       3.433   5.587  17.579  0.00  0.00    +0.000 NA
ATOM      6  C   UNL     1       4.693   5.740  17.128  0.00  0.00    +0.000 A 
ATOM      7  C   UNL     1       1.818   4.454  19.003  0.00  0.00    +0.000 C 
ATOM      8  C   UNL     1       1.575   3.107  19.677  0.00  0.00    +0.000 C 
ATOM      9  C   UNL     1       2.666   2.815  20.694  0.00  0.00    +0.000 C 
ATOM     10  C   UNL     1       4.013   2.778  20.009  0.00  0.00    +0.000 C 
ATOM     11  O   UNL     1       4.898   2.002  20.352  0.00  0.00    +0.000 OA
ENDROOT
BRANCH   1  13
ATOM     12  O   UNL     1       7.478   6.179  16.378  0.00  0.00    +0.000 OA
ATOM     13  C   UNL     1       7.157   5.168  16.981  0.00  0.00    +0.000 C 
BRANCH  13  14
ATOM     14  O   UNL     1       8.023   4.158  17.209  0.00  0.00    +0.000 OA
ATOM     15  H   UNL     1       8.889   4.253  16.757  0.00  0.00    +0.000 HD
ENDBRANCH  13  14
ENDBRANCH   1  13
BRANCH   6  16
ATOM     16  O   UNL     1       4.805   6.768  16.244  0.00  0.00    +0.000 OA
ATOM     17  H   UNL     1       4.117   7.369  16.597  0.00  0.00    +0.000 HD
ENDBRANCH   6  16
TORSDOF 3
ENDMDL
MODEL 7
REMARK VINA RESULT:      -6.8      2.210      5.224
REMARK  Name = 
REMARK  3 active torsions:
REMARK  status: ('A' for Active; 'I' for Inactive)
REMARK    1  A    between atoms: C_2  and  O_3
REMARK    2  A    between atoms: C_2  and  C_4
REMARK    3  A    between atoms: C_9  and  O_10
REMARK                            x       y       z     vdW  Elec       q    Type
REMARK                         _______ _______ _______ _____ _____    ______ ____
ROOT
ATOM      1  C   UNL     1       2.849   4.761  19.185  0.00  0.00    +0.000 A 
ATOM      2  C   UNL     1       4.192   5.042  19.445  0.00  0.00    +0.000 A 
ATOM      3  C   UNL     1       5.148   4.818  18.450  0.00  0.00    +0.000 A 
ATOM      4  C   UNL     1       4.733   4.358  17.200  0.00  0.00    +0.000 A 
ATOM      5  N   UNL     1       3.431   4.075  16.927  0.00  0.00    +0.000 NA
ATOM      6  C   UNL     1       2.546   4.278  17.923  0.00  0.00    +0.000 A 
ATOM      7  C   UNL     1       5.714   4.101  16.086  0.00  0.00    +0.000 C 
ATOM      8  C   UNL     1       7.047   4.809  16.306  0.00  0.00    +0.000 C 
ATOM      9  C   UNL     1       7.573   4.532  17.705  0.00  0.00    +0.000 C 
ATOM     10  C   UNL     1       6.585   5.030  18.735  0.00  0.00    +0.000 C 
ATOM     11  O   UNL     1       6.944   5.521  19.800  0.00  0.00    +0.000 OA
ENDROOT
BRANCH   1  13
ATOM     12  O   UNL     1       0.952   4.170  20.468  0.00  0.00    +0.000 OA
ATOM     13  C   UNL     1       1.848   4.972  20.257  0.00  0.00    +0.000 C 
BRANCH  13  14
ATOM     14  O   UNL     1       1.983   6.107  20.974  0.00  0.00    +0.000 OA
ATOM     15  H   UNL     1       2.300   5.974  21.893  0.00  0.00    +0.000 HD
ENDBRANCH  13  14
ENDBRANCH   1  13
BRANCH   6  16
ATOM     16  O   UNL     1       1.278   3.944  17.563  0.00  0.00    +0.000 OA
ATOM     17  H   UNL     1       0.775   4.425  18.251  0.00  0.00    +0.000 HD
ENDBRANCH   6  16
TORSDOF 3
ENDMDL
MODEL 8
REMARK VINA RESULT:      -6.8      1.233      1.542
REMARK  Name = 
REMARK  3 active torsions:
REMARK  status: ('A' for Active; 'I' for Inactive)
REMARK    1  A    between atoms: C_2  and  O_3
REMARK    2  A    between atoms: C_2  and  C_4
REMARK    3  A    between atoms: C_9  and  O_10
REMARK                            x       y       z     vdW  Elec       q    Type
REMARK                         _______ _______ _______ _____ _____    ______ ____
ROOT
ATOM      1  C   UNL     1       5.868   4.701  17.803  0.00  0.00    +0.000 A 
ATOM      2  C   UNL     1       4.654   4.209  17.318  0.00  0.00    +0.000 A 
ATOM      3  C   UNL     1       3.572   4.063  18.191  0.00  0.00    +0.000 A 
ATOM      4  C   UNL     1       3.715   4.455  19.522  0.00  0.00    +0.000 A 
ATOM      5  N   UNL     1       4.889   4.934  20.015  0.00  0.00    +0.000 NA
ATOM      6  C   UNL     1       5.914   5.031  19.147  0.00  0.00    +0.000 A 
ATOM      7  C   UNL     1       2.585   4.327  20.510  0.00  0.00    +0.000 C 
ATOM      8  C   UNL     1       1.226   4.187  19.831  0.00  0.00    +0.000 C 
ATOM      9  C   UNL     1       1.274   3.108  18.760  0.00  0.00    +0.000 C 
ATOM     10  C   UNL     1       2.304   3.464  17.714  0.00  0.00    +0.000 C 
ATOM     11  O   UNL     1       2.145   3.206  16.527  0.00  0.00    +0.000 OA
ENDROOT
BRANCH   1  13
ATOM     12  O   UNL     1       8.067   4.230  17.071  0.00  0.00    +0.000 OA
ATOM     13  C   UNL     1       7.018   4.823  16.876  0.00  0.00    +0.000 C 
BRANCH  13  14
ATOM     14  O   UNL     1       6.835   5.634  15.813  0.00  0.00    +0.000 OA
ATOM     15  H   UNL     1       6.935   5.194  14.941  0.00  0.00    +0.000 HD
ENDBRANCH  13  14
ENDBRANCH   1  13
BRANCH   6  16
ATOM     16  O   UNL     1       7.049   5.494  19.737  0.00  0.00    +0.000 OA
ATOM     17  H   UNL     1       7.445   5.979  18.985  0.00  0.00    +0.000 HD
ENDBRANCH   6  16
TORSDOF 3
ENDMDL
MODEL 9
REMARK VINA RESULT:      -6.7      1.961      2.503
REMARK  Name = 
REMARK  3 active torsions:
REMARK  status: ('A' for Active; 'I' for Inactive)
REMARK    1  A    between atoms: C_2  and  O_3
REMARK    2  A    between atoms: C_2  and  C_4
REMARK    3  A    between atoms: C_9  and  O_10
REMARK                            x       y       z     vdW  Elec       q    Type
REMARK                         _______ _______ _______ _____ _____    ______ ____
ROOT
ATOM      1  C   UNL     1       5.403   4.635  16.087  0.00  0.00    +0.000 A 
ATOM      2  C   UNL     1       4.842   3.516  16.707  0.00  0.00    +0.000 A 
ATOM      3  C   UNL     1       3.838   3.691  17.664  0.00  0.00    +0.000 A 
ATOM      4  C   UNL     1       3.386   4.980  17.948  0.00  0.00    +0.000 A 
ATOM      5  N   UNL     1       3.921   6.082  17.358  0.00  0.00    +0.000 NA
ATOM      6  C   UNL     1       4.906   5.871  16.462  0.00  0.00    +0.000 A 
ATOM      7  C   UNL     1       2.305   5.233  18.966  0.00  0.00    +0.000 C 
ATOM      8  C   UNL     1       1.485   3.983  19.272  0.00  0.00    +0.000 C 
ATOM      9  C   UNL     1       2.399   2.808  19.579  0.00  0.00    +0.000 C 
ATOM     10  C   UNL     1       3.291   2.524  18.393  0.00  0.00    +0.000 C 
ATOM     11  O   UNL     1       3.619   1.385  18.081  0.00  0.00    +0.000 OA
ENDROOT
BRANCH   1  13
ATOM     12  O   UNL     1       7.457   5.182  15.050  0.00  0.00    +0.000 OA
ATOM     13  C   UNL     1       6.488   4.441  15.096  0.00  0.00    +0.000 C 
BRANCH  13  14
ATOM     14  O   UNL     1       6.333   3.403  14.248  0.00  0.00    +0.000 OA
ATOM     15  H   UNL     1       7.003   3.355  13.533  0.00  0.00    +0.000 HD
ENDBRANCH  13  14
ENDBRANCH   1  13
BRANCH   6  16
ATOM     16  O   UNL     1       5.393   7.032  15.947  0.00  0.00    +0.000 OA
ATOM     17  H   UNL     1       6.227   7.105  16.454  0.00  0.00    +0.000 HD
ENDBRANCH   6  16
TORSDOF 3
ENDMDL
