MODEL 1
REMARK VINA RESULT:      -7.7      0.000      0.000
REMARK  Name = 
REMARK  9 active torsions:
REMARK  status: ('A' for Active; 'I' for Inactive)
REMARK    1  A    between atoms: C_1  and  O_2
REMARK    2  A    between atoms: O_2  and  C_3
REMARK    3  A    between atoms: C_6  and  C_7
REMARK    4  A    between atoms: C_9  and  N_10
REMARK    5  A    between atoms: N_10  and  C_11
REMARK    6  A    between atoms: C_11  and  C_12
REMARK    7  A    between atoms: C_12  and  N_13
REMARK    8  A    between atoms: N_13  and  C_14
REMARK    9  A    between atoms: N_13  and  C_15
REMARK                            x       y       z     vdW  Elec       q    Type
REMARK                         _______ _______ _______ _____ _____    ______ ____
ROOT
ATOM      1  C   UNL     1       2.908   6.627  18.367  0.00  0.00    +0.000 A 
ATOM      2  C   UNL     1       2.379   5.378  18.103  0.00  0.00    +0.000 A 
ATOM      3  C   UNL     1       3.091   4.437  17.349  0.00  0.00    +0.000 A 
ATOM      4  C   UNL     1       4.413   4.771  16.953  0.00  0.00    +0.000 A 
ATOM      5  C   UNL     1       5.300   3.908  16.264  0.00  0.00    +0.000 A 
ATOM      6  C   UNL     1       6.577   4.329  15.876  0.00  0.00    +0.000 A 
ATOM      7  C   UNL     1       6.993   5.619  16.171  0.00  0.00    +0.000 A 
ATOM      8  C   UNL     1       6.136   6.474  16.861  0.00  0.00    +0.000 A 
ATOM      9  C   UNL     1       4.868   6.077  17.260  0.00  0.00    +0.000 A 
ATOM     10  N   UNL     1       4.133   6.982  17.922  0.00  0.00    +0.000 NA
ENDROOT
BRANCH   1  14
ATOM     11  C   UNL     1       0.717   9.628  20.543  0.00  0.00    +0.000 A 
ATOM     12  C   UNL     1       1.123   8.451  21.168  0.00  0.00    +0.000 A 
ATOM     13  C   UNL     1       1.833   7.481  20.451  0.00  0.00    +0.000 A 
ATOM     14  C   UNL     1       2.159   7.663  19.096  0.00  0.00    +0.000 A 
ATOM     15  C   UNL     1       1.746   8.866  18.500  0.00  0.00    +0.000 A 
ATOM     16  F   UNL     1       2.011   9.120  17.209  0.00  0.00    +0.000 F 
ATOM     17  C   UNL     1       1.043   9.836  19.208  0.00  0.00    +0.000 A 
BRANCH  11  19
ATOM     18  C   UNL     1      -0.066  11.859  20.396  0.00  0.00    +0.000 C 
ATOM     19  O   UNL     1       0.008  10.642  21.126  0.00  0.00    +0.000 OA
ENDBRANCH  11  19
ENDBRANCH   1  14
BRANCH   3  20
ATOM     20  N   UNL     1       2.490   3.189  17.079  0.00  0.00    +0.000 N 
ATOM     21  H   UNL     1       1.539   3.211  16.729  0.00  0.00    +0.000 HD
BRANCH  20  22
ATOM     22  C   UNL     1       2.724   2.126  18.072  0.00  0.00    +0.000 C 
BRANCH  22  23
ATOM     23  C   UNL     1       1.597   2.014  19.117  0.00  0.00    +0.000 C 
BRANCH  23  24
ATOM     24  N   UNL     1       1.957   2.388  20.498  0.00  0.00    +0.000 NA
ATOM     25  C   UNL     1       3.393   2.653  20.628  0.00  0.00    +0.000 C 
ATOM     26  C   UNL     1       1.197   3.576  20.895  0.00  0.00    +0.000 C 
ENDBRANCH  23  24
ENDBRANCH  22  23
ENDBRANCH  20  22
ENDBRANCH   3  20
TORSDOF 6
ENDMDL
MODEL 2
REMARK VINA RESULT:      -7.7      0.971      1.362
REMARK  Name = 
REMARK  9 active torsions:
REMARK  status: ('A' for Active; 'I' for Inactive)
REMARK    1  A    between atoms: C_1  and  O_2
REMARK    2  A    between atoms: O_2  and  C_3
REMARK    3  A    between atoms: C_6  and  C_7
REMARK    4  A    between atoms: C_9  and  N_10
REMARK    5  A    between atoms: N_10  and  C_11
REMARK    6  A    between atoms: C_11  and  C_12
REMARK    7  A    between atoms: C_12  and  N_13
REMARK    8  A    between atoms: N_13  and  C_14
REMARK    9  A    between atoms: N_13  and  C_15
REMARK                            x       y       z     vdW  Elec       q    Type
REMARK                         _______ _______ _______ _____ _____    ______ ____
ROOT
ATOM      1  C   UNL     1       2.938   6.722  18.093  0.00  0.00    +0.000 A 
ATOM      2  C   UNL     1       2.415   5.451  17.947  0.00  0.00    +0.000 A 
ATOM      3  C   UNL     1       3.140   4.441  17.303  0.00  0.00    +0.000 A 
ATOM      4  C   UNL     1       4.468   4.737  16.899  0.00  0.00    +0.000 A 
ATOM      5  C   UNL     1       5.368   3.812  16.314  0.00  0.00    +0.000 A 
ATOM      6  C   UNL     1       6.652   4.195  15.908  0.00  0.00    +0.000 A 
ATOM      7  C   UNL     1       7.061   5.509  16.080  0.00  0.00    +0.000 A 
ATOM      8  C   UNL     1       6.192   6.427  16.666  0.00  0.00    +0.000 A 
ATOM      9  C   UNL     1       4.917   6.069  17.081  0.00  0.00    +0.000 A 
ATOM     10  N   UNL     1       4.171   7.033  17.636  0.00  0.00    +0.000 NA
ENDROOT
BRANCH   1  14
ATOM     11  C   UNL     1       0.708   9.970  19.830  0.00  0.00    +0.000 A 
ATOM     12  C   UNL     1       1.100  10.012  18.494  0.00  0.00    +0.000 A 
ATOM     13  C   UNL     1       1.827   8.952  17.940  0.00  0.00    +0.000 A 
ATOM     14  C   UNL     1       2.175   7.824  18.703  0.00  0.00    +0.000 A 
ATOM     15  C   UNL     1       1.753   7.807  20.041  0.00  0.00    +0.000 A 
ATOM     16  F   UNL     1       2.046   6.771  20.843  0.00  0.00    +0.000 F 
ATOM     17  C   UNL     1       1.027   8.856  20.599  0.00  0.00    +0.000 A 
BRANCH  11  19
ATOM     18  C   UNL     1      -0.918  11.691  19.717  0.00  0.00    +0.000 C 
ATOM     19  O   UNL     1       0.011  10.943  20.492  0.00  0.00    +0.000 OA
ENDBRANCH  11  19
ENDBRANCH   1  14
BRANCH   3  20
ATOM     20  N   UNL     1       2.545   3.171  17.149  0.00  0.00    +0.000 N 
ATOM     21  H   UNL     1       1.580   3.158  16.837  0.00  0.00    +0.000 HD
BRANCH  20  22
ATOM     22  C   UNL     1       2.832   2.186  18.205  0.00  0.00    +0.000 C 
BRANCH  22  23
ATOM     23  C   UNL     1       1.630   1.924  19.133  0.00  0.00    +0.000 C 
BRANCH  23  24
ATOM     24  N   UNL     1       1.750   2.443  20.509  0.00  0.00    +0.000 NA
ATOM     25  C   UNL     1       3.147   2.715  20.862  0.00  0.00    +0.000 C 
ATOM     26  C   UNL     1       0.960   3.671  20.638  0.00  0.00    +0.000 C 
ENDBRANCH  23  24
ENDBRANCH  22  23
ENDBRANCH  20  22
ENDBRANCH   3  20
TORSDOF 6
ENDMDL
MODEL 3
REMARK VINA RESULT:      -7.6      1.911      4.294
REMARK  Name = 
REMARK  9 active torsions:
REMARK  status: ('A' for Active; 'I' for Inactive)
REMARK    1  A    between atoms: C_1  and  O_2
REMARK    2  A    between atoms: O_2  and  C_3
REMARK    3  A    between atoms: C_6  and  C_7
REMARK    4  A    between atoms: C_9  and  N_10
REMARK    5  A    between atoms: N_10  and  C_11
REMARK    6  A    between atoms: C_11  and  C_12
REMARK    7  A    between atoms: C_12  and  N_13
REMARK    8  A    between atoms: N_13  and  C_14
REMARK    9  A    between atoms: N_13  and  C_15
REMARK                            x       y       z     vdW  Elec       q    Type
REMARK                         _______ _______ _______ _____ _____    ______ ____
ROOT
ATOM      1  C   UNL     1       2.760   6.462  18.997  0.00  0.00    +0.000 A 
ATOM      2  C   UNL     1       4.123   6.263  19.110  0.00  0.00    +0.000 A 
ATOM      3  C   UNL     1       4.667   4.973  19.096  0.00  0.00    +0.000 A 
ATOM      4  C   UNL     1       3.785   3.886  18.858  0.00  0.00    +0.000 A 
ATOM      5  C   UNL     1       4.177   2.531  18.726  0.00  0.00    +0.000 A 
ATOM      6  C   UNL     1       3.237   1.513  18.529  0.00  0.00    +0.000 A 
ATOM      7  C   UNL     1       1.889   1.828  18.459  0.00  0.00    +0.000 A 
ATOM      8  C   UNL     1       1.490   3.158  18.573  0.00  0.00    +0.000 A 
ATOM      9  C   UNL     1       2.403   4.185  18.763  0.00  0.00    +0.000 A 
ATOM     10  N   UNL     1       1.905   5.426  18.853  0.00  0.00    +0.000 NA
ENDROOT
BRANCH   1  14
ATOM     11  C   UNL     1       0.990  10.383  19.185  0.00  0.00    +0.000 A 
ATOM     12  C   UNL     1       1.625   9.946  18.025  0.00  0.00    +0.000 A 
ATOM     13  C   UNL     1       2.199   8.670  17.975  0.00  0.00    +0.000 A 
ATOM     14  C   UNL     1       2.150   7.800  19.078  0.00  0.00    +0.000 A 
ATOM     15  C   UNL     1       1.491   8.267  20.226  0.00  0.00    +0.000 A 
ATOM     16  F   UNL     1       1.400   7.504  21.326  0.00  0.00    +0.000 F 
ATOM     17  C   UNL     1       0.914   9.533  20.282  0.00  0.00    +0.000 A 
BRANCH  11  19
ATOM     18  C   UNL     1       1.275  12.731  19.334  0.00  0.00    +0.000 C 
ATOM     19  O   UNL     1       0.406  11.606  19.366  0.00  0.00    +0.000 OA
ENDBRANCH  11  19
ENDBRANCH   1  14
BRANCH   3  20
ATOM     20  N   UNL     1       6.062   4.823  19.251  0.00  0.00    +0.000 N 
ATOM     21  H   UNL     1       6.419   4.868  20.199  0.00  0.00    +0.000 HD
BRANCH  20  22
ATOM     22  C   UNL     1       6.905   5.531  18.273  0.00  0.00    +0.000 C 
BRANCH  22  23
ATOM     23  C   UNL     1       7.052   4.774  16.938  0.00  0.00    +0.000 C 
BRANCH  23  24
ATOM     24  N   UNL     1       6.789   5.561  15.717  0.00  0.00    +0.000 NA
ATOM     25  C   UNL     1       7.045   4.776  14.506  0.00  0.00    +0.000 C 
ATOM     26  C   UNL     1       5.399   6.022  15.724  0.00  0.00    +0.000 C 
ENDBRANCH  23  24
ENDBRANCH  22  23
ENDBRANCH  20  22
ENDBRANCH   3  20
TORSDOF 6
ENDMDL
MODEL 4
REMARK VINA RESULT:      -7.5      1.235      1.473
REMARK  Name = 
REMARK  9 active torsions:
REMARK  status: ('A' for Active; 'I' for Inactive)
REMARK    1  A    between atoms: C_1  and  O_2
REMARK    2  A    between atoms: O_2  and  C_3
REMARK    3  A    between atoms: C_6  and  C_7
REMARK    4  A    between atoms: C_9  and  N_10
REMARK    5  A    between atoms: N_10  and  C_11
REMARK    6  A    between atoms: C_11  and  C_12
REMARK    7  A    between atoms: C_12  and  N_13
REMARK    8  A    between atoms: N_13  and  C_14
REMARK    9  A    between atoms: N_13  and  C_15
REMARK                            x       y       z     vdW  Elec       q    Type
REMARK                         _______ _______ _______ _____ _____    ______ ____
ROOT
ATOM      1  C   UNL     1       3.496   6.409  18.586  0.00  0.00    +0.000 A 
ATOM      2  C   UNL     1       3.953   5.304  19.279  0.00  0.00    +0.000 A 
ATOM      3  C   UNL     1       4.817   4.381  18.678  0.00  0.00    +0.000 A 
ATOM      4  C   UNL     1       5.289   4.671  17.371  0.00  0.00    +0.000 A 
ATOM      5  C   UNL     1       6.231   3.894  16.652  0.00  0.00    +0.000 A 
ATOM      6  C   UNL     1       6.616   4.231  15.349  0.00  0.00    +0.000 A 
ATOM      7  C   UNL     1       6.069   5.351  14.741  0.00  0.00    +0.000 A 
ATOM      8  C   UNL     1       5.152   6.133  15.441  0.00  0.00    +0.000 A 
ATOM      9  C   UNL     1       4.760   5.822  16.734  0.00  0.00    +0.000 A 
ATOM     10  N   UNL     1       3.876   6.648  17.312  0.00  0.00    +0.000 NA
ENDROOT
BRANCH   1  14
ATOM     11  C   UNL     1       0.680   9.164  20.323  0.00  0.00    +0.000 A 
ATOM     12  C   UNL     1       1.150   8.075  21.052  0.00  0.00    +0.000 A 
ATOM     13  C   UNL     1       2.064   7.184  20.478  0.00  0.00    +0.000 A 
ATOM     14  C   UNL     1       2.534   7.360  19.164  0.00  0.00    +0.000 A 
ATOM     15  C   UNL     1       2.050   8.475  18.462  0.00  0.00    +0.000 A 
ATOM     16  F   UNL     1       2.441   8.717  17.201  0.00  0.00    +0.000 F 
ATOM     17  C   UNL     1       1.143   9.367  19.027  0.00  0.00    +0.000 A 
BRANCH  11  19
ATOM     18  C   UNL     1      -0.226  11.340  20.078  0.00  0.00    +0.000 C 
ATOM     19  O   UNL     1      -0.221  10.094  20.762  0.00  0.00    +0.000 OA
ENDBRANCH  11  19
ENDBRANCH   1  14
BRANCH   3  20
ATOM     20  N   UNL     1       5.225   3.251  19.418  0.00  0.00    +0.000 N 
ATOM     21  H   UNL     1       5.971   2.692  19.018  0.00  0.00    +0.000 HD
BRANCH  20  22
ATOM     22  C   UNL     1       4.149   2.446  20.021  0.00  0.00    +0.000 C 
BRANCH  22  23
ATOM     23  C   UNL     1       3.150   1.895  18.985  0.00  0.00    +0.000 C 
BRANCH  23  24
ATOM     24  N   UNL     1       1.725   2.164  19.256  0.00  0.00    +0.000 NA
ATOM     25  C   UNL     1       1.517   2.642  20.626  0.00  0.00    +0.000 C 
ATOM     26  C   UNL     1       1.227   3.160  18.304  0.00  0.00    +0.000 C 
ENDBRANCH  23  24
ENDBRANCH  22  23
ENDBRANCH  20  22
ENDBRANCH   3  20
TORSDOF 6
ENDMDL
MODEL 5
REMARK VINA RESULT:      -7.5      1.672      4.081
REMARK  Name = 
REMARK  9 active torsions:
REMARK  status: ('A' for Active; 'I' for Inactive)
REMARK    1  A    between atoms: C_1  and  O_2
REMARK    2  A    between atoms: O_2  and  C_3
REMARK    3  A    between atoms: C_6  and  C_7
REMARK    4  A    between atoms: C_9  and  N_10
REMARK    5  A    between atoms: N_10  and  C_11
REMARK    6  A    between atoms: C_11  and  C_12
REMARK    7  A    between atoms: C_12  and  N_13
REMARK    8  A    between atoms: N_13  and  C_14
REMARK    9  A    between atoms: N_13  and  C_15
REMARK                            x       y       z     vdW  Elec       q    Type
REMARK                         _______ _______ _______ _____ _____    ______ ____
ROOT
ATOM      1  C   UNL     1       2.713   6.399  19.233  0.00  0.00    +0.000 A 
ATOM      2  C   UNL     1       4.084   6.236  19.290  0.00  0.00    +0.000 A 
ATOM      3  C   UNL     1       4.664   4.965  19.199  0.00  0.00    +0.000 A 
ATOM      4  C   UNL     1       3.806   3.864  18.942  0.00  0.00    +0.000 A 
ATOM      5  C   UNL     1       4.232   2.529  18.735  0.00  0.00    +0.000 A 
ATOM      6  C   UNL     1       3.315   1.492  18.523  0.00  0.00    +0.000 A 
ATOM      7  C   UNL     1       1.957   1.770  18.514  0.00  0.00    +0.000 A 
ATOM      8  C   UNL     1       1.523   3.081  18.702  0.00  0.00    +0.000 A 
ATOM      9  C   UNL     1       2.413   4.125  18.908  0.00  0.00    +0.000 A 
ATOM     10  N   UNL     1       1.884   5.345  19.072  0.00  0.00    +0.000 NA
ENDROOT
BRANCH   1  14
ATOM     11  C   UNL     1       0.815  10.228  19.759  0.00  0.00    +0.000 A 
ATOM     12  C   UNL     1       0.879   9.317  20.811  0.00  0.00    +0.000 A 
ATOM     13  C   UNL     1       1.496   8.074  20.628  0.00  0.00    +0.000 A 
ATOM     14  C   UNL     1       2.068   7.713  19.396  0.00  0.00    +0.000 A 
ATOM     15  C   UNL     1       1.997   8.659  18.362  0.00  0.00    +0.000 A 
ATOM     16  F   UNL     1       2.513   8.396  17.151  0.00  0.00    +0.000 F 
ATOM     17  C   UNL     1       1.388   9.899  18.536  0.00  0.00    +0.000 A 
BRANCH  11  19
ATOM     18  C   UNL     1       0.819  12.471  18.993  0.00  0.00    +0.000 C 
ATOM     19  O   UNL     1       0.229  11.463  19.804  0.00  0.00    +0.000 OA
ENDBRANCH  11  19
ENDBRANCH   1  14
BRANCH   3  20
ATOM     20  N   UNL     1       6.067   4.851  19.299  0.00  0.00    +0.000 N 
ATOM     21  H   UNL     1       6.456   4.858  20.236  0.00  0.00    +0.000 HD
BRANCH  20  22
ATOM     22  C   UNL     1       6.854   5.634  18.332  0.00  0.00    +0.000 C 
BRANCH  22  23
ATOM     23  C   UNL     1       7.110   4.886  17.010  0.00  0.00    +0.000 C 
BRANCH  23  24
ATOM     24  N   UNL     1       6.764   5.617  15.775  0.00  0.00    +0.000 NA
ATOM     25  C   UNL     1       6.898   4.766  14.589  0.00  0.00    +0.000 C 
ATOM     26  C   UNL     1       5.390   6.116  15.874  0.00  0.00    +0.000 C 
ENDBRANCH  23  24
ENDBRANCH  22  23
ENDBRANCH  20  22
ENDBRANCH   3  20
TORSDOF 6
ENDMDL
MODEL 6
REMARK VINA RESULT:      -7.5      3.754      7.853
REMARK  Name = 
REMARK  9 active torsions:
REMARK  status: ('A' for Active; 'I' for Inactive)
REMARK    1  A    between atoms: C_1  and  O_2
REMARK    2  A    between atoms: O_2  and  C_3
REMARK    3  A    between atoms: C_6  and  C_7
REMARK    4  A    between atoms: C_9  and  N_10
REMARK    5  A    between atoms: N_10  and  C_11
REMARK    6  A    between atoms: C_11  and  C_12
REMARK    7  A    between atoms: C_12  and  N_13
REMARK    8  A    between atoms: N_13  and  C_14
REMARK    9  A    between atoms: N_13  and  C_15
REMARK                            x       y       z     vdW  Elec       q    Type
REMARK                         _______ _______ _______ _____ _____    ______ ____
ROOT
ATOM      1  C   UNL     1       2.131   7.846  18.647  0.00  0.00    +0.000 A 
ATOM      2  C   UNL     1       1.404   8.758  17.905  0.00  0.00    +0.000 A 
ATOM      3  C   UNL     1       0.522   9.652  18.523  0.00  0.00    +0.000 A 
ATOM      4  C   UNL     1       0.476   9.660  19.942  0.00  0.00    +0.000 A 
ATOM      5  C   UNL     1      -0.293  10.554  20.728  0.00  0.00    +0.000 A 
ATOM      6  C   UNL     1      -0.310  10.471  22.125  0.00  0.00    +0.000 A 
ATOM      7  C   UNL     1       0.439   9.495  22.763  0.00  0.00    +0.000 A 
ATOM      8  C   UNL     1       1.211   8.617  22.004  0.00  0.00    +0.000 A 
ATOM      9  C   UNL     1       1.249   8.684  20.619  0.00  0.00    +0.000 A 
ATOM     10  N   UNL     1       2.030   7.793  19.993  0.00  0.00    +0.000 NA
ENDROOT
BRANCH   1  14
ATOM     11  C   UNL     1       4.746   4.962  16.807  0.00  0.00    +0.000 A 
ATOM     12  C   UNL     1       5.047   6.321  16.766  0.00  0.00    +0.000 A 
ATOM     13  C   UNL     1       4.189   7.251  17.365  0.00  0.00    +0.000 A 
ATOM     14  C   UNL     1       3.014   6.847  18.023  0.00  0.00    +0.000 A 
ATOM     15  C   UNL     1       2.748   5.469  18.058  0.00  0.00    +0.000 A 
ATOM     16  F   UNL     1       1.646   4.995  18.661  0.00  0.00    +0.000 F 
ATOM     17  C   UNL     1       3.598   4.538  17.467  0.00  0.00    +0.000 A 
BRANCH  11  19
ATOM     18  C   UNL     1       6.161   4.271  15.036  0.00  0.00    +0.000 C 
ATOM     19  O   UNL     1       5.490   3.959  16.250  0.00  0.00    +0.000 OA
ENDBRANCH  11  19
ENDBRANCH   1  14
BRANCH   3  20
ATOM     20  N   UNL     1      -0.223  10.538  17.715  0.00  0.00    +0.000 N 
ATOM     21  H   UNL     1      -0.214  11.514  17.988  0.00  0.00    +0.000 HD
BRANCH  20  22
ATOM     22  C   UNL     1      -1.548  10.063  17.281  0.00  0.00    +0.000 C 
BRANCH  22  23
ATOM     23  C   UNL     1      -2.703  10.958  17.771  0.00  0.00    +0.000 C 
BRANCH  23  24
ATOM     24  N   UNL     1      -3.592  11.497  16.724  0.00  0.00    +0.000 NA
ATOM     25  C   UNL     1      -3.424  10.783  15.455  0.00  0.00    +0.000 C 
ATOM     26  C   UNL     1      -4.985  11.396  17.167  0.00  0.00    +0.000 C 
ENDBRANCH  23  24
ENDBRANCH  22  23
ENDBRANCH  20  22
ENDBRANCH   3  20
TORSDOF 6
ENDMDL
MODEL 7
REMARK VINA RESULT:      -7.3      1.459      2.010
REMARK  Name = 
REMARK  9 active torsions:
REMARK  status: ('A' for Active; 'I' for Inactive)
REMARK    1  A    between atoms: C_1  and  O_2
REMARK    2  A    between atoms: O_2  and  C_3
REMARK    3  A    between atoms: C_6  and  C_7
REMARK    4  A    between atoms: C_9  and  N_10
REMARK    5  A    between atoms: N_10  and  C_11
REMARK    6  A    between atoms: C_11  and  C_12
REMARK    7  A    between atoms: C_12  and  N_13
REMARK    8  A    between atoms: N_13  and  C_14
REMARK    9  A    between atoms: N_13  and  C_15
REMARK                            x       y       z     vdW  Elec       q    Type
REMARK                         _______ _______ _______ _____ _____    ______ ____
ROOT
ATOM      1  C   UNL     1       3.464   6.732  18.279  0.00  0.00    +0.000 A 
ATOM      2  C   UNL     1       3.835   5.693  19.111  0.00  0.00    +0.000 A 
ATOM      3  C   UNL     1       4.697   4.683  18.665  0.00  0.00    +0.000 A 
ATOM      4  C   UNL     1       5.257   4.818  17.367  0.00  0.00    +0.000 A 
ATOM      5  C   UNL     1       6.209   3.939  16.794  0.00  0.00    +0.000 A 
ATOM      6  C   UNL     1       6.684   4.124  15.491  0.00  0.00    +0.000 A 
ATOM      7  C   UNL     1       6.219   5.189  14.736  0.00  0.00    +0.000 A 
ATOM      8  C   UNL     1       5.293   6.071  15.291  0.00  0.00    +0.000 A 
ATOM      9  C   UNL     1       4.812   5.912  16.582  0.00  0.00    +0.000 A 
ATOM     10  N   UNL     1       3.929   6.822  17.013  0.00  0.00    +0.000 NA
ENDROOT
BRANCH   1  14
ATOM     11  C   UNL     1       0.668   9.792  19.445  0.00  0.00    +0.000 A 
ATOM     12  C   UNL     1       1.259   9.813  18.183  0.00  0.00    +0.000 A 
ATOM     13  C   UNL     1       2.168   8.814  17.815  0.00  0.00    +0.000 A 
ATOM     14  C   UNL     1       2.507   7.771  18.693  0.00  0.00    +0.000 A 
ATOM     15  C   UNL     1       1.884   7.773  19.951  0.00  0.00    +0.000 A 
ATOM     16  F   UNL     1       2.152   6.816  20.854  0.00  0.00    +0.000 F 
ATOM     17  C   UNL     1       0.976   8.760  20.324  0.00  0.00    +0.000 A 
BRANCH  11  19
ATOM     18  C   UNL     1       0.245  12.054  20.013  0.00  0.00    +0.000 C 
ATOM     19  O   UNL     1      -0.219  10.713  19.929  0.00  0.00    +0.000 OA
ENDBRANCH  11  19
ENDBRANCH   1  14
BRANCH   3  20
ATOM     20  N   UNL     1       5.015   3.626  19.543  0.00  0.00    +0.000 N 
ATOM     21  H   UNL     1       5.992   3.359  19.594  0.00  0.00    +0.000 HD
BRANCH  20  22
ATOM     22  C   UNL     1       4.094   2.477  19.538  0.00  0.00    +0.000 C 
BRANCH  22  23
ATOM     23  C   UNL     1       2.990   2.580  20.608  0.00  0.00    +0.000 C 
BRANCH  23  24
ATOM     24  N   UNL     1       1.602   2.554  20.110  0.00  0.00    +0.000 NA
ATOM     25  C   UNL     1       0.917   3.827  20.355  0.00  0.00    +0.000 C 
ATOM     26  C   UNL     1       1.605   2.262  18.674  0.00  0.00    +0.000 C 
ENDBRANCH  23  24
ENDBRANCH  22  23
ENDBRANCH  20  22
ENDBRANCH   3  20
TORSDOF 6
ENDMDL
MODEL 8
REMARK VINA RESULT:      -7.3      2.916      6.264
REMARK  Name = 
REMARK  9 active torsions:
REMARK  status: ('A' for Active; 'I' for Inactive)
REMARK    1  A    between atoms: C_1  and  O_2
REMARK    2  A    between atoms: O_2  and  C_3
REMARK    3  A    between atoms: C_6  and  C_7
REMARK    4  A    between atoms: C_9  and  N_10
REMARK    5  A    between atoms: N_10  and  C_11
REMARK    6  A    between atoms: C_11  and  C_12
REMARK    7  A    between atoms: C_12  and  N_13
REMARK    8  A    between atoms: N_13  and  C_14
REMARK    9  A    between atoms: N_13  and  C_15
REMARK                            x       y       z     vdW  Elec       q    Type
REMARK                         _______ _______ _______ _____ _____    ______ ____
ROOT
ATOM      1  C   UNL     1       3.573   6.445  17.855  0.00  0.00    +0.000 A 
ATOM      2  C   UNL     1       3.209   5.834  19.040  0.00  0.00    +0.000 A 
ATOM      3  C   UNL     1       2.416   6.501  19.982  0.00  0.00    +0.000 A 
ATOM      4  C   UNL     1       1.913   7.782  19.634  0.00  0.00    +0.000 A 
ATOM      5  C   UNL     1       1.031   8.555  20.429  0.00  0.00    +0.000 A 
ATOM      6  C   UNL     1       0.611   9.829  20.028  0.00  0.00    +0.000 A 
ATOM      7  C   UNL     1       1.064  10.354  18.828  0.00  0.00    +0.000 A 
ATOM      8  C   UNL     1       1.921   9.600  18.029  0.00  0.00    +0.000 A 
ATOM      9  C   UNL     1       2.346   8.333  18.402  0.00  0.00    +0.000 A 
ATOM     10  N   UNL     1       3.166   7.698  17.554  0.00  0.00    +0.000 NA
ENDROOT
BRANCH   1  14
ATOM     11  C   UNL     1       6.203   4.600  14.988  0.00  0.00    +0.000 A 
ATOM     12  C   UNL     1       6.434   5.901  15.429  0.00  0.00    +0.000 A 
ATOM     13  C   UNL     1       5.572   6.492  16.360  0.00  0.00    +0.000 A 
ATOM     14  C   UNL     1       4.462   5.800  16.875  0.00  0.00    +0.000 A 
ATOM     15  C   UNL     1       4.266   4.486  16.420  0.00  0.00    +0.000 A 
ATOM     16  F   UNL     1       3.229   3.754  16.855  0.00  0.00    +0.000 F 
ATOM     17  C   UNL     1       5.121   3.890  15.497  0.00  0.00    +0.000 A 
BRANCH  11  19
ATOM     18  C   UNL     1       6.334   3.626  12.832  0.00  0.00    +0.000 C 
ATOM     19  O   UNL     1       6.959   3.917  14.075  0.00  0.00    +0.000 OA
ENDBRANCH  11  19
ENDBRANCH   1  14
BRANCH   3  20
ATOM     20  N   UNL     1       2.103   5.845  21.192  0.00  0.00    +0.000 N 
ATOM     21  H   UNL     1       2.322   6.344  22.047  0.00  0.00    +0.000 HD
BRANCH  20  22
ATOM     22  C   UNL     1       2.424   4.409  21.254  0.00  0.00    +0.000 C 
BRANCH  22  23
ATOM     23  C   UNL     1       1.235   3.504  20.877  0.00  0.00    +0.000 C 
BRANCH  23  24
ATOM     24  N   UNL     1       1.551   2.346  20.018  0.00  0.00    +0.000 NA
ATOM     25  C   UNL     1       0.840   2.415  18.738  0.00  0.00    +0.000 C 
ATOM     26  C   UNL     1       2.996   2.296  19.779  0.00  0.00    +0.000 C 
ENDBRANCH  23  24
ENDBRANCH  22  23
ENDBRANCH  20  22
ENDBRANCH   3  20
TORSDOF 6
ENDMDL
MODEL 9
REMARK VINA RESULT:      -7.3      3.693      7.909
REMARK  Name = 
REMARK  9 active torsions:
REMARK  status: ('A' for Active; 'I' for Inactive)
REMARK    1  A    between atoms: C_1  and  O_2
REMARK    2  A    between atoms: O_2  and  C_3
REMARK    3  A    between atoms: C_6  and  C_7
REMARK    4  A    between atoms: C_9  and  N_10
REMARK    5  A    between atoms: N_10  and  C_11
REMARK    6  A    between atoms: C_11  and  C_12
REMARK    7  A    between atoms: C_12  and  N_13
REMARK    8  A    between atoms: N_13  and  C_14
REMARK    9  A    between atoms: N_13  and  C_15
REMARK                            x       y       z     vdW  Elec       q    Type
REMARK                         _______ _______ _______ _____ _____    ______ ____
ROOT
ATOM      1  C   UNL     1       1.763   8.365  19.096  0.00  0.00    +0.000 A 
ATOM      2  C   UNL     1       1.194   9.388  18.361  0.00  0.00    +0.000 A 
ATOM      3  C   UNL     1       0.323  10.307  18.957  0.00  0.00    +0.000 A 
ATOM      4  C   UNL     1       0.125  10.216  20.360  0.00  0.00    +0.000 A 
ATOM      5  C   UNL     1      -0.651  11.114  21.134  0.00  0.00    +0.000 A 
ATOM      6  C   UNL     1      -0.825  10.931  22.511  0.00  0.00    +0.000 A 
ATOM      7  C   UNL     1      -0.227   9.850  23.140  0.00  0.00    +0.000 A 
ATOM      8  C   UNL     1       0.551   8.966  22.394  0.00  0.00    +0.000 A 
ATOM      9  C   UNL     1       0.742   9.130  21.030  0.00  0.00    +0.000 A 
ATOM     10  N   UNL     1       1.514   8.223  20.416  0.00  0.00    +0.000 NA
ENDROOT
BRANCH   1  14
ATOM     11  C   UNL     1       4.315   5.409  17.283  0.00  0.00    +0.000 A 
ATOM     12  C   UNL     1       4.436   6.755  16.945  0.00  0.00    +0.000 A 
ATOM     13  C   UNL     1       3.601   7.707  17.539  0.00  0.00    +0.000 A 
ATOM     14  C   UNL     1       2.628   7.342  18.486  0.00  0.00    +0.000 A 
ATOM     15  C   UNL     1       2.541   5.979  18.813  0.00  0.00    +0.000 A 
ATOM     16  F   UNL     1       1.638   5.541  19.703  0.00  0.00    +0.000 F 
ATOM     17  C   UNL     1       3.371   5.026  18.229  0.00  0.00    +0.000 A 
BRANCH  11  19
ATOM     18  C   UNL     1       6.468   4.492  16.905  0.00  0.00    +0.000 C 
ATOM     19  O   UNL     1       5.057   4.383  16.765  0.00  0.00    +0.000 OA
ENDBRANCH  11  19
ENDBRANCH   1  14
BRANCH   3  20
ATOM     20  N   UNL     1      -0.259  11.310  18.154  0.00  0.00    +0.000 N 
ATOM     21  H   UNL     1       0.028  12.264  18.342  0.00  0.00    +0.000 HD
BRANCH  20  22
ATOM     22  C   UNL     1      -1.701  11.175  17.887  0.00  0.00    +0.000 C 
BRANCH  22  23
ATOM     23  C   UNL     1      -2.042   9.965  16.996  0.00  0.00    +0.000 C 
BRANCH  23  24
ATOM     24  N   UNL     1      -3.290  10.069  16.214  0.00  0.00    +0.000 NA
ATOM     25  C   UNL     1      -4.107  11.205  16.653  0.00  0.00    +0.000 C 
ATOM     26  C   UNL     1      -2.964  10.215  14.793  0.00  0.00    +0.000 C 
ENDBRANCH  23  24
ENDBRANCH  22  23
ENDBRANCH  20  22
ENDBRANCH   3  20
TORSDOF 6
ENDMDL
