MODEL 1
REMARK VINA RESULT:      -7.4      0.000      0.000
REMARK  Name = 
REMARK  3 active torsions:
REMARK  status: ('A' for Active; 'I' for Inactive)
REMARK    1  A    between atoms: C_1  and  O_2
REMARK    2  A    between atoms: O_2  and  C_3
REMARK    3  A    between atoms: C_14  and  O_15
REMARK                            x       y       z     vdW  Elec       q    Type
REMARK                         _______ _______ _______ _____ _____    ______ ____
ROOT
ATOM      1  C   UNL     1       3.275   5.021  19.313  0.00  0.00    +0.000 C 
ATOM      2  C   UNL     1       2.405   4.388  20.414  0.00  0.00    +0.000 C 
ATOM      3  C   UNL     1       1.065   3.892  19.869  0.00  0.00    +0.000 C 
ATOM      4  C   UNL     1       1.259   2.923  18.706  0.00  0.00    +0.000 C 
ATOM      5  C   UNL     1       2.123   3.530  17.600  0.00  0.00    +0.000 C 
ATOM      6  C   UNL     1       3.474   3.990  18.166  0.00  0.00    +0.000 C 
ATOM      7  C   UNL     1       4.429   4.588  17.101  0.00  0.00    +0.000 C 
ATOM      8  C   UNL     1       4.798   3.606  15.978  0.00  0.00    +0.000 C 
ATOM      9  C   UNL     1       5.795   4.221  14.993  0.00  0.00    +0.000 C 
ATOM     10  C   UNL     1       7.022   4.814  15.683  0.00  0.00    +0.000 C 
ATOM     11  C   UNL     1       6.629   5.781  16.801  0.00  0.00    +0.000 C 
ATOM     12  C   UNL     1       5.701   5.106  17.810  0.00  0.00    +0.000 C 
ATOM     13  O   UNL     1       5.316   6.055  18.810  0.00  0.00    +0.000 OA
ATOM     14  O   UNL     1       4.582   5.305  19.849  0.00  0.00    +0.000 OA
ENDROOT
BRANCH   1  16
ATOM     15  C   UNL     1       2.327   7.191  19.730  0.00  0.00    +0.000 C 
ATOM     16  O   UNL     1       2.652   6.196  18.767  0.00  0.00    +0.000 OA
ENDBRANCH   1  16
BRANCH  12  17
ATOM     17  O   UNL     1       6.396   4.021  18.423  0.00  0.00    +0.000 OA
ATOM     18  H   UNL     1       7.110   3.806  17.800  0.00  0.00    +0.000 HD
ENDBRANCH  12  17
TORSDOF 2
ENDMDL
MODEL 2
REMARK VINA RESULT:      -7.1      1.881      2.292
REMARK  Name = 
REMARK  3 active torsions:
REMARK  status: ('A' for Active; 'I' for Inactive)
REMARK    1  A    between atoms: C_1  and  O_2
REMARK    2  A    between atoms: O_2  and  C_3
REMARK    3  A    between atoms: C_14  and  O_15
REMARK                            x       y       z     vdW  Elec       q    Type
REMARK                         _______ _______ _______ _____ _____    ______ ____
ROOT
ATOM      1  C   UNL     1       3.480   3.476  19.251  0.00  0.00    +0.000 C 
ATOM      2  C   UNL     1       2.424   2.382  19.011  0.00  0.00    +0.000 C 
ATOM      3  C   UNL     1       1.048   2.975  18.700  0.00  0.00    +0.000 C 
ATOM      4  C   UNL     1       1.109   3.941  17.521  0.00  0.00    +0.000 C 
ATOM      5  C   UNL     1       2.154   5.035  17.736  0.00  0.00    +0.000 C 
ATOM      6  C   UNL     1       3.531   4.415  18.013  0.00  0.00    +0.000 C 
ATOM      7  C   UNL     1       4.661   5.459  18.209  0.00  0.00    +0.000 C 
ATOM      8  C   UNL     1       4.886   6.365  16.988  0.00  0.00    +0.000 C 
ATOM      9  C   UNL     1       6.055   7.329  17.207  0.00  0.00    +0.000 C 
ATOM     10  C   UNL     1       7.331   6.621  17.658  0.00  0.00    +0.000 C 
ATOM     11  C   UNL     1       7.080   5.721  18.868  0.00  0.00    +0.000 C 
ATOM     12  C   UNL     1       5.964   4.716  18.582  0.00  0.00    +0.000 C 
ATOM     13  O   UNL     1       5.724   3.927  19.752  0.00  0.00    +0.000 OA
ATOM     14  O   UNL     1       4.780   2.862  19.361  0.00  0.00    +0.000 OA
ENDROOT
BRANCH   1  16
ATOM     15  C   UNL     1       2.555   3.536  21.469  0.00  0.00    +0.000 C 
ATOM     16  O   UNL     1       3.160   4.265  20.409  0.00  0.00    +0.000 OA
ENDBRANCH   1  16
BRANCH  12  17
ATOM     17  O   UNL     1       6.369   3.868  17.508  0.00  0.00    +0.000 OA
ATOM     18  H   UNL     1       6.762   4.473  16.857  0.00  0.00    +0.000 HD
ENDBRANCH  12  17
TORSDOF 2
ENDMDL
MODEL 3
REMARK VINA RESULT:      -7.0      0.861      4.581
REMARK  Name = 
REMARK  3 active torsions:
REMARK  status: ('A' for Active; 'I' for Inactive)
REMARK    1  A    between atoms: C_1  and  O_2
REMARK    2  A    between atoms: O_2  and  C_3
REMARK    3  A    between atoms: C_14  and  O_15
REMARK                            x       y       z     vdW  Elec       q    Type
REMARK                         _______ _______ _______ _____ _____    ______ ____
ROOT
ATOM      1  C   UNL     1       5.391   5.433  17.730  0.00  0.00    +0.000 C 
ATOM      2  C   UNL     1       6.197   6.159  16.637  0.00  0.00    +0.000 C 
ATOM      3  C   UNL     1       6.962   5.179  15.745  0.00  0.00    +0.000 C 
ATOM      4  C   UNL     1       6.030   4.137  15.132  0.00  0.00    +0.000 C 
ATOM      5  C   UNL     1       5.216   3.405  16.200  0.00  0.00    +0.000 C 
ATOM      6  C   UNL     1       4.433   4.408  17.059  0.00  0.00    +0.000 C 
ATOM      7  C   UNL     1       3.550   3.745  18.148  0.00  0.00    +0.000 C 
ATOM      8  C   UNL     1       2.476   2.801  17.585  0.00  0.00    +0.000 C 
ATOM      9  C   UNL     1       1.589   2.229  18.694  0.00  0.00    +0.000 C 
ATOM     10  C   UNL     1       1.006   3.307  19.604  0.00  0.00    +0.000 C 
ATOM     11  C   UNL     1       2.093   4.238  20.144  0.00  0.00    +0.000 C 
ATOM     12  C   UNL     1       2.902   4.857  19.006  0.00  0.00    +0.000 C 
ATOM     13  O   UNL     1       3.939   5.678  19.552  0.00  0.00    +0.000 OA
ATOM     14  O   UNL     1       4.561   6.390  18.417  0.00  0.00    +0.000 OA
ENDROOT
BRANCH   1  16
ATOM     15  C   UNL     1       7.232   5.540  19.272  0.00  0.00    +0.000 C 
ATOM     16  O   UNL     1       6.256   4.726  18.634  0.00  0.00    +0.000 OA
ENDBRANCH   1  16
BRANCH  12  17
ATOM     17  O   UNL     1       2.034   5.653  18.201  0.00  0.00    +0.000 OA
ATOM     18  H   UNL     1       1.382   6.009  18.826  0.00  0.00    +0.000 HD
ENDBRANCH  12  17
TORSDOF 2
ENDMDL
MODEL 4
REMARK VINA RESULT:      -6.8      1.842      4.958
REMARK  Name = 
REMARK  3 active torsions:
REMARK  status: ('A' for Active; 'I' for Inactive)
REMARK    1  A    between atoms: C_1  and  O_2
REMARK    2  A    between atoms: O_2  and  C_3
REMARK    3  A    between atoms: C_14  and  O_15
REMARK                            x       y       z     vdW  Elec       q    Type
REMARK                         _______ _______ _______ _____ _____    ______ ____
ROOT
ATOM      1  C   UNL     1       5.262   4.462  17.227  0.00  0.00    +0.000 C 
ATOM      2  C   UNL     1       6.786   4.385  17.020  0.00  0.00    +0.000 C 
ATOM      3  C   UNL     1       7.518   5.521  17.738  0.00  0.00    +0.000 C 
ATOM      4  C   UNL     1       7.173   5.556  19.224  0.00  0.00    +0.000 C 
ATOM      5  C   UNL     1       5.663   5.629  19.454  0.00  0.00    +0.000 C 
ATOM      6  C   UNL     1       4.956   4.462  18.751  0.00  0.00    +0.000 C 
ATOM      7  C   UNL     1       3.420   4.440  18.964  0.00  0.00    +0.000 C 
ATOM      8  C   UNL     1       3.000   4.313  20.437  0.00  0.00    +0.000 C 
ATOM      9  C   UNL     1       1.479   4.226  20.586  0.00  0.00    +0.000 C 
ATOM     10  C   UNL     1       0.857   3.147  19.701  0.00  0.00    +0.000 C 
ATOM     11  C   UNL     1       1.296   3.291  18.244  0.00  0.00    +0.000 C 
ATOM     12  C   UNL     1       2.819   3.288  18.126  0.00  0.00    +0.000 C 
ATOM     13  O   UNL     1       3.191   3.475  16.756  0.00  0.00    +0.000 OA
ATOM     14  O   UNL     1       4.652   3.276  16.680  0.00  0.00    +0.000 OA
ENDROOT
BRANCH   1  16
ATOM     15  C   UNL     1       5.241   5.990  15.372  0.00  0.00    +0.000 C 
ATOM     16  O   UNL     1       4.717   5.661  16.652  0.00  0.00    +0.000 OA
ENDBRANCH   1  16
BRANCH  12  17
ATOM     17  O   UNL     1       3.317   2.034  18.590  0.00  0.00    +0.000 OA
ATOM     18  H   UNL     1       4.265   2.057  18.380  0.00  0.00    +0.000 HD
ENDBRANCH  12  17
TORSDOF 2
ENDMDL
MODEL 5
REMARK VINA RESULT:      -6.6      1.514      1.751
REMARK  Name = 
REMARK  3 active torsions:
REMARK  status: ('A' for Active; 'I' for Inactive)
REMARK    1  A    between atoms: C_1  and  O_2
REMARK    2  A    between atoms: O_2  and  C_3
REMARK    3  A    between atoms: C_14  and  O_15
REMARK                            x       y       z     vdW  Elec       q    Type
REMARK                         _______ _______ _______ _____ _____    ______ ____
ROOT
ATOM      1  C   UNL     1       3.971   3.555  19.486  0.00  0.00    +0.000 C 
ATOM      2  C   UNL     1       3.314   2.210  19.844  0.00  0.00    +0.000 C 
ATOM      3  C   UNL     1       1.960   2.034  19.155  0.00  0.00    +0.000 C 
ATOM      4  C   UNL     1       2.076   2.197  17.642  0.00  0.00    +0.000 C 
ATOM      5  C   UNL     1       2.728   3.527  17.263  0.00  0.00    +0.000 C 
ATOM      6  C   UNL     1       4.100   3.664  17.940  0.00  0.00    +0.000 C 
ATOM      7  C   UNL     1       4.849   4.974  17.580  0.00  0.00    +0.000 C 
ATOM      8  C   UNL     1       5.144   5.126  16.080  0.00  0.00    +0.000 C 
ATOM      9  C   UNL     1       5.943   6.398  15.788  0.00  0.00    +0.000 C 
ATOM     10  C   UNL     1       7.198   6.523  16.650  0.00  0.00    +0.000 C 
ATOM     11  C   UNL     1       6.879   6.359  18.137  0.00  0.00    +0.000 C 
ATOM     12  C   UNL     1       6.157   5.039  18.402  0.00  0.00    +0.000 C 
ATOM     13  O   UNL     1       5.831   4.946  19.793  0.00  0.00    +0.000 OA
ATOM     14  O   UNL     1       5.310   3.583  20.019  0.00  0.00    +0.000 OA
ENDROOT
BRANCH   1  16
ATOM     15  C   UNL     1       2.501   4.419  21.181  0.00  0.00    +0.000 C 
ATOM     16  O   UNL     1       3.183   4.662  19.958  0.00  0.00    +0.000 OA
ENDBRANCH   1  16
BRANCH  12  17
ATOM     17  O   UNL     1       7.017   3.960  18.039  0.00  0.00    +0.000 OA
ATOM     18  H   UNL     1       7.827   4.392  17.721  0.00  0.00    +0.000 HD
ENDBRANCH  12  17
TORSDOF 2
ENDMDL
MODEL 6
REMARK VINA RESULT:      -6.2      1.710      4.828
REMARK  Name = 
REMARK  3 active torsions:
REMARK  status: ('A' for Active; 'I' for Inactive)
REMARK    1  A    between atoms: C_1  and  O_2
REMARK    2  A    between atoms: O_2  and  C_3
REMARK    3  A    between atoms: C_14  and  O_15
REMARK                            x       y       z     vdW  Elec       q    Type
REMARK                         _______ _______ _______ _____ _____    ______ ____
ROOT
ATOM      1  C   UNL     1       3.905   5.385  17.623  0.00  0.00    +0.000 C 
ATOM      2  C   UNL     1       4.891   5.525  16.449  0.00  0.00    +0.000 C 
ATOM      3  C   UNL     1       6.319   5.789  16.931  0.00  0.00    +0.000 C 
ATOM      4  C   UNL     1       6.787   4.715  17.908  0.00  0.00    +0.000 C 
ATOM      5  C   UNL     1       5.820   4.556  19.083  0.00  0.00    +0.000 C 
ATOM      6  C   UNL     1       4.402   4.260  18.574  0.00  0.00    +0.000 C 
ATOM      7  C   UNL     1       3.362   4.048  19.704  0.00  0.00    +0.000 C 
ATOM      8  C   UNL     1       3.689   2.871  20.636  0.00  0.00    +0.000 C 
ATOM      9  C   UNL     1       2.598   2.663  21.689  0.00  0.00    +0.000 C 
ATOM     10  C   UNL     1       1.200   2.563  21.083  0.00  0.00    +0.000 C 
ATOM     11  C   UNL     1       0.901   3.740  20.155  0.00  0.00    +0.000 C 
ATOM     12  C   UNL     1       1.966   3.865  19.065  0.00  0.00    +0.000 C 
ATOM     13  O   UNL     1       1.680   5.006  18.250  0.00  0.00    +0.000 OA
ATOM     14  O   UNL     1       2.623   4.965  17.115  0.00  0.00    +0.000 OA
ENDROOT
BRANCH   1  16
ATOM     15  C   UNL     1       3.284   7.707  17.642  0.00  0.00    +0.000 C 
ATOM     16  O   UNL     1       3.810   6.607  18.373  0.00  0.00    +0.000 OA
ENDBRANCH   1  16
BRANCH  12  17
ATOM     17  O   UNL     1       1.946   2.686  18.263  0.00  0.00    +0.000 OA
ATOM     18  H   UNL     1       2.881   2.441  18.167  0.00  0.00    +0.000 HD
ENDBRANCH  12  17
TORSDOF 2
ENDMDL
MODEL 7
REMARK VINA RESULT:      -6.2      2.088      3.031
REMARK  Name = 
REMARK  3 active torsions:
REMARK  status: ('A' for Active; 'I' for Inactive)
REMARK    1  A    between atoms: C_1  and  O_2
REMARK    2  A    between atoms: O_2  and  C_3
REMARK    3  A    between atoms: C_14  and  O_15
REMARK                            x       y       z     vdW  Elec       q    Type
REMARK                         _______ _______ _______ _____ _____    ______ ____
ROOT
ATOM      1  C   UNL     1       3.091   2.884  19.240  0.00  0.00    +0.000 C 
ATOM      2  C   UNL     1       1.841   2.279  19.905  0.00  0.00    +0.000 C 
ATOM      3  C   UNL     1       1.356   3.124  21.085  0.00  0.00    +0.000 C 
ATOM      4  C   UNL     1       1.105   4.571  20.670  0.00  0.00    +0.000 C 
ATOM      5  C   UNL     1       2.334   5.192  20.004  0.00  0.00    +0.000 C 
ATOM      6  C   UNL     1       2.780   4.344  18.805  0.00  0.00    +0.000 C 
ATOM      7  C   UNL     1       4.003   4.924  18.047  0.00  0.00    +0.000 C 
ATOM      8  C   UNL     1       3.761   6.323  17.460  0.00  0.00    +0.000 C 
ATOM      9  C   UNL     1       4.972   6.819  16.665  0.00  0.00    +0.000 C 
ATOM     10  C   UNL     1       5.446   5.814  15.617  0.00  0.00    +0.000 C 
ATOM     11  C   UNL     1       5.671   4.429  16.224  0.00  0.00    +0.000 C 
ATOM     12  C   UNL     1       4.414   3.930  16.936  0.00  0.00    +0.000 C 
ATOM     13  O   UNL     1       4.680   2.657  17.534  0.00  0.00    +0.000 OA
ATOM     14  O   UNL     1       3.390   2.146  18.038  0.00  0.00    +0.000 OA
ENDROOT
BRANCH   1  16
ATOM     15  C   UNL     1       4.653   1.622  20.561  0.00  0.00    +0.000 C 
ATOM     16  O   UNL     1       4.206   2.906  20.147  0.00  0.00    +0.000 OA
ENDBRANCH   1  16
BRANCH  12  17
ATOM     17  O   UNL     1       3.363   3.801  15.981  0.00  0.00    +0.000 OA
ATOM     18  H   UNL     1       3.755   4.103  15.145  0.00  0.00    +0.000 HD
ENDBRANCH  12  17
TORSDOF 2
ENDMDL
MODEL 8
REMARK VINA RESULT:      -6.1      1.779      3.048
REMARK  Name = 
REMARK  3 active torsions:
REMARK  status: ('A' for Active; 'I' for Inactive)
REMARK    1  A    between atoms: C_1  and  O_2
REMARK    2  A    between atoms: O_2  and  C_3
REMARK    3  A    between atoms: C_14  and  O_15
REMARK                            x       y       z     vdW  Elec       q    Type
REMARK                         _______ _______ _______ _____ _____    ______ ____
ROOT
ATOM      1  C   UNL     1       3.030   3.669  18.188  0.00  0.00    +0.000 C 
ATOM      2  C   UNL     1       1.514   3.674  18.459  0.00  0.00    +0.000 C 
ATOM      3  C   UNL     1       1.195   4.010  19.917  0.00  0.00    +0.000 C 
ATOM      4  C   UNL     1       1.827   5.334  20.337  0.00  0.00    +0.000 C 
ATOM      5  C   UNL     1       3.334   5.353  20.075  0.00  0.00    +0.000 C 
ATOM      6  C   UNL     1       3.625   5.046  18.599  0.00  0.00    +0.000 C 
ATOM      7  C   UNL     1       5.133   5.080  18.237  0.00  0.00    +0.000 C 
ATOM      8  C   UNL     1       5.799   6.442  18.485  0.00  0.00    +0.000 C 
ATOM      9  C   UNL     1       7.266   6.442  18.048  0.00  0.00    +0.000 C 
ATOM     10  C   UNL     1       7.459   5.944  16.617  0.00  0.00    +0.000 C 
ATOM     11  C   UNL     1       6.780   4.592  16.394  0.00  0.00    +0.000 C 
ATOM     12  C   UNL     1       5.298   4.654  16.761  0.00  0.00    +0.000 C 
ATOM     13  O   UNL     1       4.711   3.360  16.587  0.00  0.00    +0.000 OA
ATOM     14  O   UNL     1       3.256   3.524  16.772  0.00  0.00    +0.000 OA
ENDROOT
BRANCH   1  16
ATOM     15  C   UNL     1       3.334   1.316  18.576  0.00  0.00    +0.000 C 
ATOM     16  O   UNL     1       3.691   2.642  18.945  0.00  0.00    +0.000 OA
ENDBRANCH   1  16
BRANCH  12  17
ATOM     17  O   UNL     1       4.649   5.592  15.905  0.00  0.00    +0.000 OA
ATOM     18  H   UNL     1       5.016   6.453  16.166  0.00  0.00    +0.000 HD
ENDBRANCH  12  17
TORSDOF 2
ENDMDL
MODEL 9
REMARK VINA RESULT:      -6.0      1.774      4.700
REMARK  Name = 
REMARK  3 active torsions:
REMARK  status: ('A' for Active; 'I' for Inactive)
REMARK    1  A    between atoms: C_1  and  O_2
REMARK    2  A    between atoms: O_2  and  C_3
REMARK    3  A    between atoms: C_14  and  O_15
REMARK                            x       y       z     vdW  Elec       q    Type
REMARK                         _______ _______ _______ _____ _____    ______ ____
ROOT
ATOM      1  C   UNL     1       5.958   4.936  18.355  0.00  0.00    +0.000 C 
ATOM      2  C   UNL     1       6.972   6.078  18.552  0.00  0.00    +0.000 C 
ATOM      3  C   UNL     1       6.964   7.058  17.378  0.00  0.00    +0.000 C 
ATOM      4  C   UNL     1       5.566   7.611  17.121  0.00  0.00    +0.000 C 
ATOM      5  C   UNL     1       4.540   6.494  16.925  0.00  0.00    +0.000 C 
ATOM      6  C   UNL     1       4.544   5.544  18.131  0.00  0.00    +0.000 C 
ATOM      7  C   UNL     1       3.504   4.398  18.030  0.00  0.00    +0.000 C 
ATOM      8  C   UNL     1       2.051   4.887  17.932  0.00  0.00    +0.000 C 
ATOM      9  C   UNL     1       1.062   3.719  17.904  0.00  0.00    +0.000 C 
ATOM     10  C   UNL     1       1.276   2.734  19.052  0.00  0.00    +0.000 C 
ATOM     11  C   UNL     1       2.730   2.269  19.133  0.00  0.00    +0.000 C 
ATOM     12  C   UNL     1       3.682   3.459  19.245  0.00  0.00    +0.000 C 
ATOM     13  O   UNL     1       5.033   2.987  19.268  0.00  0.00    +0.000 OA
ATOM     14  O   UNL     1       5.887   4.154  19.564  0.00  0.00    +0.000 OA
ENDROOT
BRANCH   1  16
ATOM     15  C   UNL     1       7.615   4.326  16.724  0.00  0.00    +0.000 C 
ATOM     16  O   UNL     1       6.294   4.130  17.214  0.00  0.00    +0.000 OA
ENDBRANCH   1  16
BRANCH  12  17
ATOM     17  O   UNL     1       3.401   4.164  20.454  0.00  0.00    +0.000 OA
ATOM     18  H   UNL     1       2.916   4.955  20.166  0.00  0.00    +0.000 HD
ENDBRANCH  12  17
TORSDOF 2
ENDMDL
