MODEL 1
REMARK VINA RESULT:      -8.0      0.000      0.000
REMARK  Name = 
REMARK  2 active torsions:
REMARK  status: ('A' for Active; 'I' for Inactive)
REMARK    1  A    between atoms: N_1  and  C_2
REMARK    2  A    between atoms: C_9  and  C_10
REMARK                            x       y       z     vdW  Elec       q    Type
REMARK                         _______ _______ _______ _____ _____    ______ ____
ROOT
ATOM      1  C   UNL     1       2.760   2.708  20.585  0.00  0.00    +0.000 C 
ATOM      2  C   UNL     1       1.978   3.980  20.940  0.00  0.00    +0.000 C 
ATOM      3  C   UNL     1       1.281   4.638  19.747  0.00  0.00    +0.000 C 
ATOM      4  C   UNL     1       2.233   5.461  18.899  0.00  0.00    +0.000 A 
ATOM      5  C   UNL     1       2.060   6.854  18.931  0.00  0.00    +0.000 A 
ATOM      6  C   UNL     1       2.894   7.692  18.213  0.00  0.00    +0.000 A 
ATOM      7  C   UNL     1       3.901   7.163  17.423  0.00  0.00    +0.000 A 
ATOM      8  C   UNL     1       4.109   5.772  17.324  0.00  0.00    +0.000 A 
ATOM      9  C   UNL     1       3.274   4.895  18.107  0.00  0.00    +0.000 A 
ATOM     10  C   UNL     1       3.502   3.391  18.162  0.00  0.00    +0.000 C 
ATOM     11  C   UNL     1       3.840   2.923  19.552  0.00  0.00    +0.000 C 
ATOM     12  O   UNL     1       4.995   2.601  19.801  0.00  0.00    +0.000 OA
ENDROOT
BRANCH   8  13
ATOM     13  C   UNL     1       5.196   5.327  16.377  0.00  0.00    +0.000 A 
ATOM     14  C   UNL     1       6.485   5.893  16.444  0.00  0.00    +0.000 A 
ATOM     15  N   UNL     1       7.459   5.503  15.582  0.00  0.00    +0.000 NA
ATOM     16  C   UNL     1       7.216   4.575  14.626  0.00  0.00    +0.000 A 
ATOM     17  N   UNL     1       5.980   4.032  14.508  0.00  0.00    +0.000 NA
ATOM     18  C   UNL     1       4.975   4.387  15.350  0.00  0.00    +0.000 A 
ENDBRANCH   8  13
BRANCH   1  19
ATOM     19  N   UNL     1       3.334   2.131  21.807  0.00  0.00    +0.000 NA
ATOM     20  H   UNL     1       2.583   1.667  22.367  0.00  0.00    +0.000 HD
ATOM     21  H   UNL     1       3.768   2.884  22.389  0.00  0.00    +0.000 HD
ENDBRANCH   1  19
TORSDOF 2
ENDMDL
MODEL 2
REMARK VINA RESULT:      -7.9      0.082      1.091
REMARK  Name = 
REMARK  2 active torsions:
REMARK  status: ('A' for Active; 'I' for Inactive)
REMARK    1  A    between atoms: N_1  and  C_2
REMARK    2  A    between atoms: C_9  and  C_10
REMARK                            x       y       z     vdW  Elec       q    Type
REMARK                         _______ _______ _______ _____ _____    ______ ____
ROOT
ATOM      1  C   UNL     1       2.755   2.778  20.597  0.00  0.00    +0.000 C 
ATOM      2  C   UNL     1       1.966   4.046  20.950  0.00  0.00    +0.000 C 
ATOM      3  C   UNL     1       1.276   4.706  19.756  0.00  0.00    +0.000 C 
ATOM      4  C   UNL     1       2.230   5.535  18.916  0.00  0.00    +0.000 A 
ATOM      5  C   UNL     1       2.054   6.927  18.951  0.00  0.00    +0.000 A 
ATOM      6  C   UNL     1       2.890   7.770  18.242  0.00  0.00    +0.000 A 
ATOM      7  C   UNL     1       3.903   7.247  17.456  0.00  0.00    +0.000 A 
ATOM      8  C   UNL     1       4.116   5.856  17.354  0.00  0.00    +0.000 A 
ATOM      9  C   UNL     1       3.279   4.974  18.130  0.00  0.00    +0.000 A 
ATOM     10  C   UNL     1       3.511   3.471  18.181  0.00  0.00    +0.000 C 
ATOM     11  C   UNL     1       3.841   2.999  19.572  0.00  0.00    +0.000 C 
ATOM     12  O   UNL     1       4.996   2.679  19.827  0.00  0.00    +0.000 OA
ENDROOT
BRANCH   8  13
ATOM     13  C   UNL     1       5.210   5.417  16.413  0.00  0.00    +0.000 A 
ATOM     14  C   UNL     1       4.976   4.405  15.459  0.00  0.00    +0.000 A 
ATOM     15  N   UNL     1       5.965   4.000  14.622  0.00  0.00    +0.000 NA
ATOM     16  C   UNL     1       7.204   4.542  14.690  0.00  0.00    +0.000 A 
ATOM     17  N   UNL     1       7.478   5.494  15.615  0.00  0.00    +0.000 NA
ATOM     18  C   UNL     1       6.520   5.935  16.471  0.00  0.00    +0.000 A 
ENDBRANCH   8  13
BRANCH   1  19
ATOM     19  N   UNL     1       3.322   2.198  21.821  0.00  0.00    +0.000 NA
ATOM     20  H   UNL     1       2.696   1.443  22.180  0.00  0.00    +0.000 HD
ATOM     21  H   UNL     1       3.412   2.936  22.557  0.00  0.00    +0.000 HD
ENDBRANCH   1  19
TORSDOF 2
ENDMDL
MODEL 3
REMARK VINA RESULT:      -7.2      1.515      5.437
REMARK  Name = 
REMARK  2 active torsions:
REMARK  status: ('A' for Active; 'I' for Inactive)
REMARK    1  A    between atoms: N_1  and  C_2
REMARK    2  A    between atoms: C_9  and  C_10
REMARK                            x       y       z     vdW  Elec       q    Type
REMARK                         _______ _______ _______ _____ _____    ______ ____
ROOT
ATOM      1  C   UNL     1       6.084   4.419  15.887  0.00  0.00    +0.000 C 
ATOM      2  C   UNL     1       5.754   5.875  15.531  0.00  0.00    +0.000 C 
ATOM      3  C   UNL     1       5.722   6.820  16.733  0.00  0.00    +0.000 C 
ATOM      4  C   UNL     1       4.428   6.721  17.518  0.00  0.00    +0.000 A 
ATOM      5  C   UNL     1       3.566   7.827  17.456  0.00  0.00    +0.000 A 
ATOM      6  C   UNL     1       2.350   7.822  18.115  0.00  0.00    +0.000 A 
ATOM      7  C   UNL     1       1.976   6.728  18.877  0.00  0.00    +0.000 A 
ATOM      8  C   UNL     1       2.808   5.596  19.005  0.00  0.00    +0.000 A 
ATOM      9  C   UNL     1       4.055   5.575  18.281  0.00  0.00    +0.000 A 
ATOM     10  C   UNL     1       4.960   4.352  18.258  0.00  0.00    +0.000 C 
ATOM     11  C   UNL     1       5.120   3.796  16.869  0.00  0.00    +0.000 C 
ATOM     12  O   UNL     1       4.545   2.753  16.581  0.00  0.00    +0.000 OA
ENDROOT
BRANCH   8  13
ATOM     13  C   UNL     1       2.310   4.504  19.918  0.00  0.00    +0.000 A 
ATOM     14  C   UNL     1       1.454   3.494  19.432  0.00  0.00    +0.000 A 
ATOM     15  N   UNL     1       0.994   2.520  20.257  0.00  0.00    +0.000 NA
ATOM     16  C   UNL     1       1.330   2.498  21.569  0.00  0.00    +0.000 A 
ATOM     17  N   UNL     1       2.123   3.470  22.082  0.00  0.00    +0.000 NA
ATOM     18  C   UNL     1       2.611   4.463  21.295  0.00  0.00    +0.000 A 
ENDBRANCH   8  13
BRANCH   1  19
ATOM     19  N   UNL     1       6.147   3.617  14.659  0.00  0.00    +0.000 NA
ATOM     20  H   UNL     1       7.143   3.482  14.373  0.00  0.00    +0.000 HD
ATOM     21  H   UNL     1       5.641   4.107  13.886  0.00  0.00    +0.000 HD
ENDBRANCH   1  19
TORSDOF 2
ENDMDL
MODEL 4
REMARK VINA RESULT:      -7.1      1.512      5.334
REMARK  Name = 
REMARK  2 active torsions:
REMARK  status: ('A' for Active; 'I' for Inactive)
REMARK    1  A    between atoms: N_1  and  C_2
REMARK    2  A    between atoms: C_9  and  C_10
REMARK                            x       y       z     vdW  Elec       q    Type
REMARK                         _______ _______ _______ _____ _____    ______ ____
ROOT
ATOM      1  C   UNL     1       5.981   4.535  15.862  0.00  0.00    +0.000 C 
ATOM      2  C   UNL     1       5.653   5.996  15.527  0.00  0.00    +0.000 C 
ATOM      3  C   UNL     1       5.626   6.924  16.742  0.00  0.00    +0.000 C 
ATOM      4  C   UNL     1       4.333   6.816  17.529  0.00  0.00    +0.000 A 
ATOM      5  C   UNL     1       3.473   7.924  17.485  0.00  0.00    +0.000 A 
ATOM      6  C   UNL     1       2.259   7.912  18.146  0.00  0.00    +0.000 A 
ATOM      7  C   UNL     1       1.884   6.809  18.894  0.00  0.00    +0.000 A 
ATOM      8  C   UNL     1       2.714   5.673  19.004  0.00  0.00    +0.000 A 
ATOM      9  C   UNL     1       3.960   5.660  18.277  0.00  0.00    +0.000 A 
ATOM     10  C   UNL     1       4.863   4.436  18.234  0.00  0.00    +0.000 C 
ATOM     11  C   UNL     1       5.018   3.899  16.836  0.00  0.00    +0.000 C 
ATOM     12  O   UNL     1       4.441   2.862  16.535  0.00  0.00    +0.000 OA
ENDROOT
BRANCH   8  13
ATOM     13  C   UNL     1       2.217   4.569  19.902  0.00  0.00    +0.000 A 
ATOM     14  C   UNL     1       2.624   4.499  21.250  0.00  0.00    +0.000 A 
ATOM     15  N   UNL     1       2.188   3.497  22.055  0.00  0.00    +0.000 NA
ATOM     16  C   UNL     1       1.365   2.529  21.583  0.00  0.00    +0.000 A 
ATOM     17  N   UNL     1       0.978   2.543  20.285  0.00  0.00    +0.000 NA
ATOM     18  C   UNL     1       1.384   3.528  19.443  0.00  0.00    +0.000 A 
ENDBRANCH   8  13
BRANCH   1  19
ATOM     19  N   UNL     1       6.040   3.751  14.622  0.00  0.00    +0.000 NA
ATOM     20  H   UNL     1       6.214   2.745  14.846  0.00  0.00    +0.000 HD
ATOM     21  H   UNL     1       6.818   4.098  14.016  0.00  0.00    +0.000 HD
ENDBRANCH   1  19
TORSDOF 2
ENDMDL
MODEL 5
REMARK VINA RESULT:      -7.0      2.352      3.525
REMARK  Name = 
REMARK  2 active torsions:
REMARK  status: ('A' for Active; 'I' for Inactive)
REMARK    1  A    between atoms: N_1  and  C_2
REMARK    2  A    between atoms: C_9  and  C_10
REMARK                            x       y       z     vdW  Elec       q    Type
REMARK                         _______ _______ _______ _____ _____    ______ ____
ROOT
ATOM      1  C   UNL     1       2.155   7.197  20.171  0.00  0.00    +0.000 C 
ATOM      2  C   UNL     1       1.377   5.945  20.598  0.00  0.00    +0.000 C 
ATOM      3  C   UNL     1       2.263   4.757  20.976  0.00  0.00    +0.000 C 
ATOM      4  C   UNL     1       2.791   4.015  19.763  0.00  0.00    +0.000 A 
ATOM      5  C   UNL     1       2.283   2.724  19.544  0.00  0.00    +0.000 A 
ATOM      6  C   UNL     1       2.682   1.977  18.451  0.00  0.00    +0.000 A 
ATOM      7  C   UNL     1       3.619   2.483  17.565  0.00  0.00    +0.000 A 
ATOM      8  C   UNL     1       4.190   3.761  17.743  0.00  0.00    +0.000 A 
ATOM      9  C   UNL     1       3.743   4.565  18.855  0.00  0.00    +0.000 A 
ATOM     10  C   UNL     1       4.208   5.999  19.059  0.00  0.00    +0.000 C 
ATOM     11  C   UNL     1       3.066   6.977  18.987  0.00  0.00    +0.000 C 
ATOM     12  O   UNL     1       2.957   7.685  17.994  0.00  0.00    +0.000 OA
ENDROOT
BRANCH   8  13
ATOM     13  C   UNL     1       5.246   4.163  16.745  0.00  0.00    +0.000 A 
ATOM     14  C   UNL     1       4.924   4.321  15.381  0.00  0.00    +0.000 A 
ATOM     15  N   UNL     1       5.878   4.669  14.480  0.00  0.00    +0.000 NA
ATOM     16  C   UNL     1       7.164   4.858  14.860  0.00  0.00    +0.000 A 
ATOM     17  N   UNL     1       7.520   4.683  16.156  0.00  0.00    +0.000 NA
ATOM     18  C   UNL     1       6.600   4.340  17.095  0.00  0.00    +0.000 A 
ENDBRANCH   8  13
BRANCH   1  19
ATOM     19  N   UNL     1       1.211   8.286  19.890  0.00  0.00    +0.000 NA
ATOM     20  H   UNL     1       0.969   8.784  20.776  0.00  0.00    +0.000 HD
ATOM     21  H   UNL     1       0.334   7.900  19.473  0.00  0.00    +0.000 HD
ENDBRANCH   1  19
TORSDOF 2
ENDMDL
MODEL 6
REMARK VINA RESULT:      -7.0      2.356      3.403
REMARK  Name = 
REMARK  2 active torsions:
REMARK  status: ('A' for Active; 'I' for Inactive)
REMARK    1  A    between atoms: N_1  and  C_2
REMARK    2  A    between atoms: C_9  and  C_10
REMARK                            x       y       z     vdW  Elec       q    Type
REMARK                         _______ _______ _______ _____ _____    ______ ____
ROOT
ATOM      1  C   UNL     1       2.197   7.227  20.130  0.00  0.00    +0.000 C 
ATOM      2  C   UNL     1       1.413   5.990  20.588  0.00  0.00    +0.000 C 
ATOM      3  C   UNL     1       2.293   4.802  20.978  0.00  0.00    +0.000 C 
ATOM      4  C   UNL     1       2.801   4.033  19.774  0.00  0.00    +0.000 A 
ATOM      5  C   UNL     1       2.280   2.743  19.584  0.00  0.00    +0.000 A 
ATOM      6  C   UNL     1       2.660   1.973  18.500  0.00  0.00    +0.000 A 
ATOM      7  C   UNL     1       3.591   2.454  17.595  0.00  0.00    +0.000 A 
ATOM      8  C   UNL     1       4.175   3.730  17.743  0.00  0.00    +0.000 A 
ATOM      9  C   UNL     1       3.747   4.557  18.844  0.00  0.00    +0.000 A 
ATOM     10  C   UNL     1       4.227   5.991  19.017  0.00  0.00    +0.000 C 
ATOM     11  C   UNL     1       3.093   6.978  18.940  0.00  0.00    +0.000 C 
ATOM     12  O   UNL     1       2.979   7.668  17.935  0.00  0.00    +0.000 OA
ENDROOT
BRANCH   8  13
ATOM     13  C   UNL     1       5.223   4.105  16.726  0.00  0.00    +0.000 A 
ATOM     14  C   UNL     1       6.555   4.345  17.120  0.00  0.00    +0.000 A 
ATOM     15  N   UNL     1       7.495   4.697  16.206  0.00  0.00    +0.000 NA
ATOM     16  C   UNL     1       7.178   4.842  14.897  0.00  0.00    +0.000 A 
ATOM     17  N   UNL     1       5.902   4.652  14.484  0.00  0.00    +0.000 NA
ATOM     18  C   UNL     1       4.927   4.295  15.360  0.00  0.00    +0.000 A 
ENDBRANCH   8  13
BRANCH   1  19
ATOM     19  N   UNL     1       1.260   8.319  19.839  0.00  0.00    +0.000 NA
ATOM     20  H   UNL     1       0.689   8.534  20.688  0.00  0.00    +0.000 HD
ATOM     21  H   UNL     1       0.615   8.040  19.065  0.00  0.00    +0.000 HD
ENDBRANCH   1  19
TORSDOF 2
ENDMDL
MODEL 7
REMARK VINA RESULT:      -7.0      3.594      6.231
REMARK  Name = 
REMARK  2 active torsions:
REMARK  status: ('A' for Active; 'I' for Inactive)
REMARK    1  A    between atoms: N_1  and  C_2
REMARK    2  A    between atoms: C_9  and  C_10
REMARK                            x       y       z     vdW  Elec       q    Type
REMARK                         _______ _______ _______ _____ _____    ______ ____
ROOT
ATOM      1  C   UNL     1       2.359   3.480  19.215  0.00  0.00    +0.000 C 
ATOM      2  C   UNL     1       2.848   4.088  17.894  0.00  0.00    +0.000 C 
ATOM      3  C   UNL     1       3.800   5.272  18.065  0.00  0.00    +0.000 C 
ATOM      4  C   UNL     1       3.072   6.563  18.387  0.00  0.00    +0.000 A 
ATOM      5  C   UNL     1       3.071   7.552  17.391  0.00  0.00    +0.000 A 
ATOM      6  C   UNL     1       2.411   8.753  17.578  0.00  0.00    +0.000 A 
ATOM      7  C   UNL     1       1.763   9.012  18.775  0.00  0.00    +0.000 A 
ATOM      8  C   UNL     1       1.751   8.073  19.827  0.00  0.00    +0.000 A 
ATOM      9  C   UNL     1       2.396   6.800  19.620  0.00  0.00    +0.000 A 
ATOM     10  C   UNL     1       2.330   5.680  20.648  0.00  0.00    +0.000 C 
ATOM     11  C   UNL     1       1.634   4.459  20.108  0.00  0.00    +0.000 C 
ATOM     12  O   UNL     1       0.501   4.205  20.499  0.00  0.00    +0.000 OA
ENDROOT
BRANCH   8  13
ATOM     13  C   UNL     1       1.067   8.508  21.099  0.00  0.00    +0.000 A 
ATOM     14  C   UNL     1      -0.304   8.248  21.304  0.00  0.00    +0.000 A 
ATOM     15  N   UNL     1      -0.923   8.652  22.442  0.00  0.00    +0.000 NA
ATOM     16  C   UNL     1      -0.249   9.329  23.402  0.00  0.00    +0.000 A 
ATOM     17  N   UNL     1       1.061   9.628  23.228  0.00  0.00    +0.000 NA
ATOM     18  C   UNL     1       1.725   9.241  22.108  0.00  0.00    +0.000 A 
ENDBRANCH   8  13
BRANCH   1  19
ATOM     19  N   UNL     1       1.504   2.320  18.934  0.00  0.00    +0.000 NA
ATOM     20  H   UNL     1       2.095   1.499  18.674  0.00  0.00    +0.000 HD
ATOM     21  H   UNL     1       0.861   2.535  18.138  0.00  0.00    +0.000 HD
ENDBRANCH   1  19
TORSDOF 2
ENDMDL
MODEL 8
REMARK VINA RESULT:      -6.9      3.600      6.149
REMARK  Name = 
REMARK  2 active torsions:
REMARK  status: ('A' for Active; 'I' for Inactive)
REMARK    1  A    between atoms: N_1  and  C_2
REMARK    2  A    between atoms: C_9  and  C_10
REMARK                            x       y       z     vdW  Elec       q    Type
REMARK                         _______ _______ _______ _____ _____    ______ ____
ROOT
ATOM      1  C   UNL     1       2.376   3.520  19.263  0.00  0.00    +0.000 C 
ATOM      2  C   UNL     1       2.877   4.114  17.940  0.00  0.00    +0.000 C 
ATOM      3  C   UNL     1       3.818   5.308  18.108  0.00  0.00    +0.000 C 
ATOM      4  C   UNL     1       3.075   6.598  18.403  0.00  0.00    +0.000 A 
ATOM      5  C   UNL     1       3.079   7.573  17.394  0.00  0.00    +0.000 A 
ATOM      6  C   UNL     1       2.407   8.771  17.557  0.00  0.00    +0.000 A 
ATOM      7  C   UNL     1       1.741   9.041  18.741  0.00  0.00    +0.000 A 
ATOM      8  C   UNL     1       1.723   8.116  19.806  0.00  0.00    +0.000 A 
ATOM      9  C   UNL     1       2.380   6.845  19.624  0.00  0.00    +0.000 A 
ATOM     10  C   UNL     1       2.310   5.738  20.666  0.00  0.00    +0.000 C 
ATOM     11  C   UNL     1       1.631   4.505  20.132  0.00  0.00    +0.000 C 
ATOM     12  O   UNL     1       0.496   4.246  20.512  0.00  0.00    +0.000 OA
ENDROOT
BRANCH   8  13
ATOM     13  C   UNL     1       1.018   8.562  21.062  0.00  0.00    +0.000 A 
ATOM     14  C   UNL     1       1.718   9.248  22.075  0.00  0.00    +0.000 A 
ATOM     15  N   UNL     1       1.087   9.636  23.213  0.00  0.00    +0.000 NA
ATOM     16  C   UNL     1      -0.224   9.362  23.413  0.00  0.00    +0.000 A 
ATOM     17  N   UNL     1      -0.924   8.675  22.478  0.00  0.00    +0.000 NA
ATOM     18  C   UNL     1      -0.337   8.270  21.322  0.00  0.00    +0.000 A 
ENDBRANCH   8  13
BRANCH   1  19
ATOM     19  N   UNL     1       1.534   2.350  18.986  0.00  0.00    +0.000 NA
ATOM     20  H   UNL     1       1.619   2.082  17.980  0.00  0.00    +0.000 HD
ATOM     21  H   UNL     1       0.533   2.573  19.190  0.00  0.00    +0.000 HD
ENDBRANCH   1  19
TORSDOF 2
ENDMDL
MODEL 9
REMARK VINA RESULT:      -6.7      3.144      4.952
REMARK  Name = 
REMARK  2 active torsions:
REMARK  status: ('A' for Active; 'I' for Inactive)
REMARK    1  A    between atoms: N_1  and  C_2
REMARK    2  A    between atoms: C_9  and  C_10
REMARK                            x       y       z     vdW  Elec       q    Type
REMARK                         _______ _______ _______ _____ _____    ______ ____
ROOT
ATOM      1  C   UNL     1       2.586   2.450  19.292  0.00  0.00    +0.000 C 
ATOM      2  C   UNL     1       3.753   2.421  18.297  0.00  0.00    +0.000 C 
ATOM      3  C   UNL     1       4.853   3.441  18.594  0.00  0.00    +0.000 C 
ATOM      4  C   UNL     1       4.493   4.838  18.127  0.00  0.00    +0.000 A 
ATOM      5  C   UNL     1       5.222   5.348  17.040  0.00  0.00    +0.000 A 
ATOM      6  C   UNL     1       4.950   6.601  16.524  0.00  0.00    +0.000 A 
ATOM      7  C   UNL     1       3.967   7.392  17.095  0.00  0.00    +0.000 A 
ATOM      8  C   UNL     1       3.217   6.952  18.206  0.00  0.00    +0.000 A 
ATOM      9  C   UNL     1       3.463   5.626  18.719  0.00  0.00    +0.000 A 
ATOM     10  C   UNL     1       2.623   5.019  19.834  0.00  0.00    +0.000 C 
ATOM     11  C   UNL     1       1.888   3.787  19.376  0.00  0.00    +0.000 C 
ATOM     12  O   UNL     1       0.680   3.858  19.188  0.00  0.00    +0.000 OA
ENDROOT
BRANCH   8  13
ATOM     13  C   UNL     1       2.225   7.937  18.772  0.00  0.00    +0.000 A 
ATOM     14  C   UNL     1       1.656   8.935  17.955  0.00  0.00    +0.000 A 
ATOM     15  N   UNL     1       0.774   9.830  18.467  0.00  0.00    +0.000 NA
ATOM     16  C   UNL     1       0.429   9.801  19.777  0.00  0.00    +0.000 A 
ATOM     17  N   UNL     1       0.979   8.878  20.602  0.00  0.00    +0.000 NA
ATOM     18  C   UNL     1       1.863   7.958  20.134  0.00  0.00    +0.000 A 
ENDBRANCH   8  13
BRANCH   1  19
ATOM     19  N   UNL     1       1.623   1.396  18.948  0.00  0.00    +0.000 NA
ATOM     20  H   UNL     1       0.710   1.825  18.674  0.00  0.00    +0.000 HD
ATOM     21  H   UNL     1       1.466   0.773  19.773  0.00  0.00    +0.000 HD
ENDBRANCH   1  19
TORSDOF 2
ENDMDL
