MODEL 1
REMARK VINA RESULT:      -7.4      0.000      0.000
REMARK  Name = 
REMARK  13 active torsions:
REMARK  status: ('A' for Active; 'I' for Inactive)
REMARK    1  A    between atoms: C_2  and  C_3
REMARK    2  A    between atoms: C_2  and  C_4
REMARK    3  A    between atoms: C_7  and  C_8
REMARK    4  A    between atoms: C_10  and  C_11
REMARK    5  A    between atoms: C_12  and  O_13
REMARK    6  A    between atoms: C_15  and  C_16
REMARK    7  A    between atoms: C_16  and  C_17
REMARK    8  A    between atoms: C_17  and  C_18
REMARK    9  A    between atoms: C_18  and  C_19
REMARK   10  A    between atoms: C_19  and  C_20
REMARK   11  A    between atoms: C_20  and  C_21
REMARK   12  A    between atoms: C_21  and  C_22
REMARK   13  A    between atoms: C_28  and  O_29
REMARK                            x       y       z     vdW  Elec       q    Type
REMARK                         _______ _______ _______ _____ _____    ______ ____
ROOT
ATOM      1  C   UNL     1       3.348   5.689  19.415  0.00  0.00    +0.000 A 
ATOM      2  C   UNL     1       3.431   6.802  18.566  0.00  0.00    +0.000 A 
ATOM      3  C   UNL     1       2.598   7.902  18.713  0.00  0.00    +0.000 A 
ATOM      4  C   UNL     1       1.682   7.982  19.772  0.00  0.00    +0.000 A 
ATOM      5  C   UNL     1       1.671   6.921  20.685  0.00  0.00    +0.000 A 
ATOM      6  C   UNL     1       2.491   5.809  20.517  0.00  0.00    +0.000 A 
ENDROOT
BRANCH   1  13
ATOM      7  C   UNL     1       3.312   3.548  17.964  0.00  0.00    +0.000 C 
ATOM      8  C   UNL     1       3.874   3.968  16.589  0.00  0.00    +0.000 C 
ATOM      9  C   UNL     1       5.406   3.988  16.510  0.00  0.00    +0.000 C 
ATOM     10  C   UNL     1       6.133   4.352  17.781  0.00  0.00    +0.000 C 
ATOM     11  C   UNL     1       7.594   4.690  17.661  0.00  0.00    +0.000 C 
ATOM     12  C   UNL     1       5.500   4.486  18.957  0.00  0.00    +0.000 C 
ATOM     13  C   UNL     1       4.001   4.336  19.131  0.00  0.00    +0.000 C 
BRANCH   7  15
ATOM     14  C   UNL     1       0.974   4.361  17.309  0.00  0.00    +0.000 C 
ATOM     15  C   UNL     1       1.766   3.527  18.009  0.00  0.00    +0.000 C 
ATOM     16  C   UNL     1       1.117   2.481  18.881  0.00  0.00    +0.000 C 
ENDBRANCH   7  15
ENDBRANCH   1  13
BRANCH   4  17
ATOM     17  C   UNL     1       0.725   9.163  19.893  0.00  0.00    +0.000 C 
ATOM     18  C   UNL     1      -0.456   9.014  20.833  0.00  0.00    +0.000 C 
ATOM     19  C   UNL     1       0.661   9.944  21.214  0.00  0.00    +0.000 C 
ATOM     20 CL   UNL     1       1.657   9.484  22.599  0.00  0.00    +0.000 Cl
ATOM     21 CL   UNL     1       0.279  11.670  21.239  0.00  0.00    +0.000 Cl
BRANCH  17  22
ATOM     22  C   UNL     1       0.566   9.961  18.608  0.00  0.00    +0.000 C 
BRANCH  22  23
ATOM     23  C   UNL     1      -0.758   9.796  17.853  0.00  0.00    +0.000 C 
BRANCH  23  24
ATOM     24  C   UNL     1      -1.498  11.138  17.932  0.00  0.00    +0.000 C 
BRANCH  24  25
ATOM     25  C   UNL     1      -2.790  11.174  17.132  0.00  0.00    +0.000 C 
BRANCH  25  26
ATOM     26  C   UNL     1      -2.923   9.906  16.286  0.00  0.00    +0.000 C 
ATOM     27  C   UNL     1      -2.975  10.239  14.809  0.00  0.00    +0.000 C 
ENDBRANCH  25  26
ENDBRANCH  24  25
ENDBRANCH  23  24
ENDBRANCH  22  23
ENDBRANCH  17  22
ENDBRANCH   4  17
BRANCH   2  28
ATOM     28  O   UNL     1       4.319   6.924  17.528  0.00  0.00    +0.000 OA
ATOM     29  H   UNL     1       4.070   6.269  16.859  0.00  0.00    +0.000 HD
ENDBRANCH   2  28
BRANCH   6  30
ATOM     30  O   UNL     1       2.441   4.797  21.440  0.00  0.00    +0.000 OA
ATOM     31  H   UNL     1       1.846   5.052  22.162  0.00  0.00    +0.000 HD
ENDBRANCH   6  30
TORSDOF 10
ENDMDL
MODEL 2
REMARK VINA RESULT:      -7.0      1.399      1.887
REMARK  Name = 
REMARK  13 active torsions:
REMARK  status: ('A' for Active; 'I' for Inactive)
REMARK    1  A    between atoms: C_2  and  C_3
REMARK    2  A    between atoms: C_2  and  C_4
REMARK    3  A    between atoms: C_7  and  C_8
REMARK    4  A    between atoms: C_10  and  C_11
REMARK    5  A    between atoms: C_12  and  O_13
REMARK    6  A    between atoms: C_15  and  C_16
REMARK    7  A    between atoms: C_16  and  C_17
REMARK    8  A    between atoms: C_17  and  C_18
REMARK    9  A    between atoms: C_18  and  C_19
REMARK   10  A    between atoms: C_19  and  C_20
REMARK   11  A    between atoms: C_20  and  C_21
REMARK   12  A    between atoms: C_21  and  C_22
REMARK   13  A    between atoms: C_28  and  O_29
REMARK                            x       y       z     vdW  Elec       q    Type
REMARK                         _______ _______ _______ _____ _____    ______ ____
ROOT
ATOM      1  C   UNL     1       2.968   6.817  19.222  0.00  0.00    +0.000 A 
ATOM      2  C   UNL     1       2.972   7.630  18.079  0.00  0.00    +0.000 A 
ATOM      3  C   UNL     1       2.031   8.632  17.885  0.00  0.00    +0.000 A 
ATOM      4  C   UNL     1       1.073   8.927  18.867  0.00  0.00    +0.000 A 
ATOM      5  C   UNL     1       1.134   8.189  20.056  0.00  0.00    +0.000 A 
ATOM      6  C   UNL     1       2.064   7.169  20.233  0.00  0.00    +0.000 A 
ENDROOT
BRANCH   1  13
ATOM      7  C   UNL     1       3.245   4.376  18.416  0.00  0.00    +0.000 C 
ATOM      8  C   UNL     1       3.883   4.471  17.013  0.00  0.00    +0.000 C 
ATOM      9  C   UNL     1       5.409   4.634  17.021  0.00  0.00    +0.000 C 
ATOM     10  C   UNL     1       5.990   5.402  18.184  0.00  0.00    +0.000 C 
ATOM     11  C   UNL     1       7.420   5.852  18.061  0.00  0.00    +0.000 C 
ATOM     12  C   UNL     1       5.249   5.776  19.239  0.00  0.00    +0.000 C 
ATOM     13  C   UNL     1       3.760   5.517  19.359  0.00  0.00    +0.000 C 
BRANCH   7  15
ATOM     14  C   UNL     1       0.941   4.474  17.303  0.00  0.00    +0.000 C 
ATOM     15  C   UNL     1       1.709   4.200  18.375  0.00  0.00    +0.000 C 
ATOM     16  C   UNL     1       1.044   3.661  19.617  0.00  0.00    +0.000 C 
ENDBRANCH   7  15
ENDBRANCH   1  13
BRANCH   4  17
ATOM     17  C   UNL     1       0.002   9.983  18.624  0.00  0.00    +0.000 C 
ATOM     18  C   UNL     1      -0.663  10.600  19.840  0.00  0.00    +0.000 C 
ATOM     19  C   UNL     1       0.280  11.440  19.026  0.00  0.00    +0.000 C 
ATOM     20 CL   UNL     1       1.807  11.904  19.784  0.00  0.00    +0.000 Cl
ATOM     21 CL   UNL     1      -0.433  12.788  18.131  0.00  0.00    +0.000 Cl
BRANCH  17  22
ATOM     22  C   UNL     1      -0.811   9.757  17.358  0.00  0.00    +0.000 C 
BRANCH  22  23
ATOM     23  C   UNL     1      -2.333   9.677  17.520  0.00  0.00    +0.000 C 
BRANCH  23  24
ATOM     24  C   UNL     1      -2.955  10.037  16.165  0.00  0.00    +0.000 C 
BRANCH  24  25
ATOM     25  C   UNL     1      -3.911  11.218  16.223  0.00  0.00    +0.000 C 
BRANCH  25  26
ATOM     26  C   UNL     1      -4.317  11.497  17.672  0.00  0.00    +0.000 C 
ATOM     27  C   UNL     1      -5.795  11.233  17.884  0.00  0.00    +0.000 C 
ENDBRANCH  25  26
ENDBRANCH  24  25
ENDBRANCH  23  24
ENDBRANCH  22  23
ENDBRANCH  17  22
ENDBRANCH   4  17
BRANCH   2  28
ATOM     28  O   UNL     1       3.881   7.530  17.056  0.00  0.00    +0.000 OA
ATOM     29  H   UNL     1       4.607   6.971  17.371  0.00  0.00    +0.000 HD
ENDBRANCH   2  28
BRANCH   6  30
ATOM     30  O   UNL     1       2.080   6.479  21.416  0.00  0.00    +0.000 OA
ATOM     31  H   UNL     1       1.411   6.850  22.012  0.00  0.00    +0.000 HD
ENDBRANCH   6  30
TORSDOF 10
ENDMDL
MODEL 3
REMARK VINA RESULT:      -6.9      1.434      1.825
REMARK  Name = 
REMARK  13 active torsions:
REMARK  status: ('A' for Active; 'I' for Inactive)
REMARK    1  A    between atoms: C_2  and  C_3
REMARK    2  A    between atoms: C_2  and  C_4
REMARK    3  A    between atoms: C_7  and  C_8
REMARK    4  A    between atoms: C_10  and  C_11
REMARK    5  A    between atoms: C_12  and  O_13
REMARK    6  A    between atoms: C_15  and  C_16
REMARK    7  A    between atoms: C_16  and  C_17
REMARK    8  A    between atoms: C_17  and  C_18
REMARK    9  A    between atoms: C_18  and  C_19
REMARK   10  A    between atoms: C_19  and  C_20
REMARK   11  A    between atoms: C_20  and  C_21
REMARK   12  A    between atoms: C_21  and  C_22
REMARK   13  A    between atoms: C_28  and  O_29
REMARK                            x       y       z     vdW  Elec       q    Type
REMARK                         _______ _______ _______ _____ _____    ______ ____
ROOT
ATOM      1  C   UNL     1       2.989   6.901  19.224  0.00  0.00    +0.000 A 
ATOM      2  C   UNL     1       2.986   7.728  18.092  0.00  0.00    +0.000 A 
ATOM      3  C   UNL     1       2.053   8.742  17.924  0.00  0.00    +0.000 A 
ATOM      4  C   UNL     1       1.115   9.037  18.924  0.00  0.00    +0.000 A 
ATOM      5  C   UNL     1       1.185   8.285  20.103  0.00  0.00    +0.000 A 
ATOM      6  C   UNL     1       2.105   7.252  20.253  0.00  0.00    +0.000 A 
ENDROOT
BRANCH   1  13
ATOM      7  C   UNL     1       3.242   4.475  18.366  0.00  0.00    +0.000 C 
ATOM      8  C   UNL     1       3.883   4.594  16.966  0.00  0.00    +0.000 C 
ATOM      9  C   UNL     1       5.410   4.741  16.979  0.00  0.00    +0.000 C 
ATOM     10  C   UNL     1       5.997   5.478  18.159  0.00  0.00    +0.000 C 
ATOM     11  C   UNL     1       7.433   5.916  18.047  0.00  0.00    +0.000 C 
ATOM     12  C   UNL     1       5.259   5.837  19.221  0.00  0.00    +0.000 C 
ATOM     13  C   UNL     1       3.768   5.590  19.335  0.00  0.00    +0.000 C 
BRANCH   7  15
ATOM     14  C   UNL     1       0.938   4.644  17.263  0.00  0.00    +0.000 C 
ATOM     15  C   UNL     1       1.705   4.316  18.320  0.00  0.00    +0.000 C 
ATOM     16  C   UNL     1       1.036   3.730  19.539  0.00  0.00    +0.000 C 
ENDBRANCH   7  15
ENDBRANCH   1  13
BRANCH   4  17
ATOM     17  C   UNL     1       0.052  10.109  18.710  0.00  0.00    +0.000 C 
ATOM     18  C   UNL     1      -0.373  10.925  19.916  0.00  0.00    +0.000 C 
ATOM     19  C   UNL     1       0.443  11.589  18.843  0.00  0.00    +0.000 C 
ATOM     20 CL   UNL     1       2.091  12.066  19.261  0.00  0.00    +0.000 Cl
ATOM     21 CL   UNL     1      -0.370  12.838  17.891  0.00  0.00    +0.000 Cl
BRANCH  17  22
ATOM     22  C   UNL     1      -0.973   9.756  17.643  0.00  0.00    +0.000 C 
BRANCH  22  23
ATOM     23  C   UNL     1      -2.449   9.926  18.021  0.00  0.00    +0.000 C 
BRANCH  23  24
ATOM     24  C   UNL     1      -3.278   9.644  16.761  0.00  0.00    +0.000 C 
BRANCH  24  25
ATOM     25  C   UNL     1      -3.075  10.665  15.653  0.00  0.00    +0.000 C 
BRANCH  25  26
ATOM     26  C   UNL     1      -2.855   9.954  14.315  0.00  0.00    +0.000 C 
ATOM     27  C   UNL     1      -4.072  10.090  13.421  0.00  0.00    +0.000 C 
ENDBRANCH  25  26
ENDBRANCH  24  25
ENDBRANCH  23  24
ENDBRANCH  22  23
ENDBRANCH  17  22
ENDBRANCH   4  17
BRANCH   2  28
ATOM     28  O   UNL     1       3.877   7.629  17.054  0.00  0.00    +0.000 OA
ATOM     29  H   UNL     1       3.395   7.839  16.240  0.00  0.00    +0.000 HD
ENDBRANCH   2  28
BRANCH   6  30
ATOM     30  O   UNL     1       2.131   6.547  21.428  0.00  0.00    +0.000 OA
ATOM     31  H   UNL     1       2.801   5.849  21.367  0.00  0.00    +0.000 HD
ENDBRANCH   6  30
TORSDOF 10
ENDMDL
MODEL 4
REMARK VINA RESULT:      -6.8      1.902      3.041
REMARK  Name = 
REMARK  13 active torsions:
REMARK  status: ('A' for Active; 'I' for Inactive)
REMARK    1  A    between atoms: C_2  and  C_3
REMARK    2  A    between atoms: C_2  and  C_4
REMARK    3  A    between atoms: C_7  and  C_8
REMARK    4  A    between atoms: C_10  and  C_11
REMARK    5  A    between atoms: C_12  and  O_13
REMARK    6  A    between atoms: C_15  and  C_16
REMARK    7  A    between atoms: C_16  and  C_17
REMARK    8  A    between atoms: C_17  and  C_18
REMARK    9  A    between atoms: C_18  and  C_19
REMARK   10  A    between atoms: C_19  and  C_20
REMARK   11  A    between atoms: C_20  and  C_21
REMARK   12  A    between atoms: C_21  and  C_22
REMARK   13  A    between atoms: C_28  and  O_29
REMARK                            x       y       z     vdW  Elec       q    Type
REMARK                         _______ _______ _______ _____ _____    ______ ____
ROOT
ATOM      1  C   UNL     1       3.343   5.544  19.590  0.00  0.00    +0.000 A 
ATOM      2  C   UNL     1       3.414   6.713  18.819  0.00  0.00    +0.000 A 
ATOM      3  C   UNL     1       2.578   7.797  19.048  0.00  0.00    +0.000 A 
ATOM      4  C   UNL     1       1.671   7.800  20.119  0.00  0.00    +0.000 A 
ATOM      5  C   UNL     1       1.674   6.679  20.958  0.00  0.00    +0.000 A 
ATOM      6  C   UNL     1       2.497   5.585  20.706  0.00  0.00    +0.000 A 
ENDROOT
BRANCH   1  13
ATOM      7  C   UNL     1       3.288   3.497  18.010  0.00  0.00    +0.000 C 
ATOM      8  C   UNL     1       3.815   4.007  16.651  0.00  0.00    +0.000 C 
ATOM      9  C   UNL     1       5.345   4.043  16.539  0.00  0.00    +0.000 C 
ATOM     10  C   UNL     1       6.099   4.334  17.814  0.00  0.00    +0.000 C 
ATOM     11  C   UNL     1       7.555   4.691  17.682  0.00  0.00    +0.000 C 
ATOM     12  C   UNL     1       5.492   4.390  19.010  0.00  0.00    +0.000 C 
ATOM     13  C   UNL     1       3.999   4.217  19.208  0.00  0.00    +0.000 C 
BRANCH   7  15
ATOM     14  C   UNL     1       1.042   2.581  18.828  0.00  0.00    +0.000 C 
ATOM     15  C   UNL     1       1.744   3.461  18.089  0.00  0.00    +0.000 C 
ATOM     16  C   UNL     1       0.989   4.502  17.300  0.00  0.00    +0.000 C 
ENDBRANCH   7  15
ENDBRANCH   1  13
BRANCH   4  17
ATOM     17  C   UNL     1       0.711   8.965  20.329  0.00  0.00    +0.000 C 
ATOM     18  C   UNL     1       1.209  10.355  19.983  0.00  0.00    +0.000 C 
ATOM     19  C   UNL     1       0.168   9.720  19.106  0.00  0.00    +0.000 C 
ATOM     20 CL   UNL     1       0.655   9.277  17.467  0.00  0.00    +0.000 Cl
ATOM     21 CL   UNL     1      -1.440  10.457  19.126  0.00  0.00    +0.000 Cl
BRANCH  17  22
ATOM     22  C   UNL     1      -0.237   8.778  21.505  0.00  0.00    +0.000 C 
BRANCH  22  23
ATOM     23  C   UNL     1       0.150   9.466  22.819  0.00  0.00    +0.000 C 
BRANCH  23  24
ATOM     24  C   UNL     1      -1.011  10.391  23.207  0.00  0.00    +0.000 C 
BRANCH  24  25
ATOM     25  C   UNL     1      -0.900  11.792  22.627  0.00  0.00    +0.000 C 
BRANCH  25  26
ATOM     26  C   UNL     1      -2.278  12.293  22.189  0.00  0.00    +0.000 C 
ATOM     27  C   UNL     1      -2.362  13.804  22.279  0.00  0.00    +0.000 C 
ENDBRANCH  25  26
ENDBRANCH  24  25
ENDBRANCH  23  24
ENDBRANCH  22  23
ENDBRANCH  17  22
ENDBRANCH   4  17
BRANCH   2  28
ATOM     28  O   UNL     1       4.291   6.910  17.783  0.00  0.00    +0.000 OA
ATOM     29  H   UNL     1       5.031   6.299  17.914  0.00  0.00    +0.000 HD
ENDBRANCH   2  28
BRANCH   6  30
ATOM     30  O   UNL     1       2.460   4.512  21.558  0.00  0.00    +0.000 OA
ATOM     31  H   UNL     1       2.828   4.773  22.416  0.00  0.00    +0.000 HD
ENDBRANCH   6  30
TORSDOF 10
ENDMDL
MODEL 5
REMARK VINA RESULT:      -6.7      0.755      1.507
REMARK  Name = 
REMARK  13 active torsions:
REMARK  status: ('A' for Active; 'I' for Inactive)
REMARK    1  A    between atoms: C_2  and  C_3
REMARK    2  A    between atoms: C_2  and  C_4
REMARK    3  A    between atoms: C_7  and  C_8
REMARK    4  A    between atoms: C_10  and  C_11
REMARK    5  A    between atoms: C_12  and  O_13
REMARK    6  A    between atoms: C_15  and  C_16
REMARK    7  A    between atoms: C_16  and  C_17
REMARK    8  A    between atoms: C_17  and  C_18
REMARK    9  A    between atoms: C_18  and  C_19
REMARK   10  A    between atoms: C_19  and  C_20
REMARK   11  A    between atoms: C_20  and  C_21
REMARK   12  A    between atoms: C_21  and  C_22
REMARK   13  A    between atoms: C_28  and  O_29
REMARK                            x       y       z     vdW  Elec       q    Type
REMARK                         _______ _______ _______ _____ _____    ______ ____
ROOT
ATOM      1  C   UNL     1       3.361   5.652  19.447  0.00  0.00    +0.000 A 
ATOM      2  C   UNL     1       3.448   6.779  18.616  0.00  0.00    +0.000 A 
ATOM      3  C   UNL     1       2.617   7.879  18.779  0.00  0.00    +0.000 A 
ATOM      4  C   UNL     1       1.699   7.943  19.838  0.00  0.00    +0.000 A 
ATOM      5  C   UNL     1       1.685   6.867  20.734  0.00  0.00    +0.000 A 
ATOM      6  C   UNL     1       2.503   5.756  20.549  0.00  0.00    +0.000 A 
ENDROOT
BRANCH   1  13
ATOM      7  C   UNL     1       3.289   3.511  17.999  0.00  0.00    +0.000 C 
ATOM      8  C   UNL     1       3.804   3.933  16.606  0.00  0.00    +0.000 C 
ATOM      9  C   UNL     1       5.332   3.961  16.477  0.00  0.00    +0.000 C 
ATOM     10  C   UNL     1       6.099   4.330  17.723  0.00  0.00    +0.000 C 
ATOM     11  C   UNL     1       7.554   4.676  17.556  0.00  0.00    +0.000 C 
ATOM     12  C   UNL     1       5.503   4.461  18.920  0.00  0.00    +0.000 C 
ATOM     13  C   UNL     1       4.012   4.303  19.143  0.00  0.00    +0.000 C 
BRANCH   7  15
ATOM     14  C   UNL     1       1.049   2.634  18.875  0.00  0.00    +0.000 C 
ATOM     15  C   UNL     1       1.746   3.481  18.094  0.00  0.00    +0.000 C 
ATOM     16  C   UNL     1       0.986   4.492  17.272  0.00  0.00    +0.000 C 
ENDBRANCH   7  15
ENDBRANCH   1  13
BRANCH   4  17
ATOM     17  C   UNL     1       0.744   9.123  19.976  0.00  0.00    +0.000 C 
ATOM     18  C   UNL     1      -0.416   8.977  20.943  0.00  0.00    +0.000 C 
ATOM     19  C   UNL     1       0.709   9.908  21.296  0.00  0.00    +0.000 C 
ATOM     20 CL   UNL     1       1.735   9.453  22.660  0.00  0.00    +0.000 Cl
ATOM     21 CL   UNL     1       0.326  11.635  21.324  0.00  0.00    +0.000 Cl
BRANCH  17  22
ATOM     22  C   UNL     1       0.556   9.918  18.693  0.00  0.00    +0.000 C 
BRANCH  22  23
ATOM     23  C   UNL     1      -0.537   9.431  17.734  0.00  0.00    +0.000 C 
BRANCH  23  24
ATOM     24  C   UNL     1      -1.465  10.622  17.459  0.00  0.00    +0.000 C 
BRANCH  24  25
ATOM     25  C   UNL     1      -2.432  10.920  18.594  0.00  0.00    +0.000 C 
BRANCH  25  26
ATOM     26  C   UNL     1      -2.253  12.362  19.074  0.00  0.00    +0.000 C 
ATOM     27  C   UNL     1      -3.027  12.610  20.353  0.00  0.00    +0.000 C 
ENDBRANCH  25  26
ENDBRANCH  24  25
ENDBRANCH  23  24
ENDBRANCH  22  23
ENDBRANCH  17  22
ENDBRANCH   4  17
BRANCH   2  28
ATOM     28  O   UNL     1       4.338   6.916  17.581  0.00  0.00    +0.000 OA
ATOM     29  H   UNL     1       4.796   7.761  17.708  0.00  0.00    +0.000 HD
ENDBRANCH   2  28
BRANCH   6  30
ATOM     30  O   UNL     1       2.449   4.730  21.456  0.00  0.00    +0.000 OA
ATOM     31  H   UNL     1       3.307   4.279  21.479  0.00  0.00    +0.000 HD
ENDBRANCH   6  30
TORSDOF 10
ENDMDL
MODEL 6
REMARK VINA RESULT:      -6.6      0.839      1.544
REMARK  Name = 
REMARK  13 active torsions:
REMARK  status: ('A' for Active; 'I' for Inactive)
REMARK    1  A    between atoms: C_2  and  C_3
REMARK    2  A    between atoms: C_2  and  C_4
REMARK    3  A    between atoms: C_7  and  C_8
REMARK    4  A    between atoms: C_10  and  C_11
REMARK    5  A    between atoms: C_12  and  O_13
REMARK    6  A    between atoms: C_15  and  C_16
REMARK    7  A    between atoms: C_16  and  C_17
REMARK    8  A    between atoms: C_17  and  C_18
REMARK    9  A    between atoms: C_18  and  C_19
REMARK   10  A    between atoms: C_19  and  C_20
REMARK   11  A    between atoms: C_20  and  C_21
REMARK   12  A    between atoms: C_21  and  C_22
REMARK   13  A    between atoms: C_28  and  O_29
REMARK                            x       y       z     vdW  Elec       q    Type
REMARK                         _______ _______ _______ _____ _____    ______ ____
ROOT
ATOM      1  C   UNL     1       3.340   5.672  19.449  0.00  0.00    +0.000 A 
ATOM      2  C   UNL     1       3.407   6.806  18.627  0.00  0.00    +0.000 A 
ATOM      3  C   UNL     1       2.571   7.899  18.812  0.00  0.00    +0.000 A 
ATOM      4  C   UNL     1       1.668   7.947  19.884  0.00  0.00    +0.000 A 
ATOM      5  C   UNL     1       1.674   6.863  20.771  0.00  0.00    +0.000 A 
ATOM      6  C   UNL     1       2.497   5.760  20.564  0.00  0.00    +0.000 A 
ENDROOT
BRANCH   1  13
ATOM      7  C   UNL     1       3.312   3.580  17.929  0.00  0.00    +0.000 C 
ATOM      8  C   UNL     1       3.877   4.046  16.570  0.00  0.00    +0.000 C 
ATOM      9  C   UNL     1       5.410   4.069  16.497  0.00  0.00    +0.000 C 
ATOM     10  C   UNL     1       6.132   4.393  17.781  0.00  0.00    +0.000 C 
ATOM     11  C   UNL     1       7.594   4.736  17.678  0.00  0.00    +0.000 C 
ATOM     12  C   UNL     1       5.495   4.487  18.960  0.00  0.00    +0.000 C 
ATOM     13  C   UNL     1       3.996   4.330  19.123  0.00  0.00    +0.000 C 
BRANCH   7  15
ATOM     14  C   UNL     1       0.974   4.405  17.286  0.00  0.00    +0.000 C 
ATOM     15  C   UNL     1       1.766   3.556  17.968  0.00  0.00    +0.000 C 
ATOM     16  C   UNL     1       1.115   2.487  18.812  0.00  0.00    +0.000 C 
ENDBRANCH   7  15
ENDBRANCH   1  13
BRANCH   4  17
ATOM     17  C   UNL     1       0.707   9.120  20.047  0.00  0.00    +0.000 C 
ATOM     18  C   UNL     1      -0.449   8.949  21.014  0.00  0.00    +0.000 C 
ATOM     19  C   UNL     1       0.671   9.880  21.381  0.00  0.00    +0.000 C 
ATOM     20 CL   UNL     1       1.703   9.406  22.733  0.00  0.00    +0.000 Cl
ATOM     21 CL   UNL     1       0.279  11.604  21.441  0.00  0.00    +0.000 Cl
BRANCH  17  22
ATOM     22  C   UNL     1       0.511   9.936  18.778  0.00  0.00    +0.000 C 
BRANCH  22  23
ATOM     23  C   UNL     1      -0.742   9.634  17.949  0.00  0.00    +0.000 C 
BRANCH  23  24
ATOM     24  C   UNL     1      -1.404  10.978  17.617  0.00  0.00    +0.000 C 
BRANCH  24  25
ATOM     25  C   UNL     1      -1.249  12.024  18.708  0.00  0.00    +0.000 C 
BRANCH  25  26
ATOM     26  C   UNL     1      -0.489  13.239  18.170  0.00  0.00    +0.000 C 
ATOM     27  C   UNL     1      -0.451  14.355  19.195  0.00  0.00    +0.000 C 
ENDBRANCH  25  26
ENDBRANCH  24  25
ENDBRANCH  23  24
ENDBRANCH  22  23
ENDBRANCH  17  22
ENDBRANCH   4  17
BRANCH   2  28
ATOM     28  O   UNL     1       4.281   6.959  17.581  0.00  0.00    +0.000 OA
ATOM     29  H   UNL     1       4.936   7.621  17.849  0.00  0.00    +0.000 HD
ENDBRANCH   2  28
BRANCH   6  30
ATOM     30  O   UNL     1       2.464   4.726  21.463  0.00  0.00    +0.000 OA
ATOM     31  H   UNL     1       2.631   5.070  22.353  0.00  0.00    +0.000 HD
ENDBRANCH   6  30
TORSDOF 10
ENDMDL
MODEL 7
REMARK VINA RESULT:      -6.4      0.835      1.773
REMARK  Name = 
REMARK  13 active torsions:
REMARK  status: ('A' for Active; 'I' for Inactive)
REMARK    1  A    between atoms: C_2  and  C_3
REMARK    2  A    between atoms: C_2  and  C_4
REMARK    3  A    between atoms: C_7  and  C_8
REMARK    4  A    between atoms: C_10  and  C_11
REMARK    5  A    between atoms: C_12  and  O_13
REMARK    6  A    between atoms: C_15  and  C_16
REMARK    7  A    between atoms: C_16  and  C_17
REMARK    8  A    between atoms: C_17  and  C_18
REMARK    9  A    between atoms: C_18  and  C_19
REMARK   10  A    between atoms: C_19  and  C_20
REMARK   11  A    between atoms: C_20  and  C_21
REMARK   12  A    between atoms: C_21  and  C_22
REMARK   13  A    between atoms: C_28  and  O_29
REMARK                            x       y       z     vdW  Elec       q    Type
REMARK                         _______ _______ _______ _____ _____    ______ ____
ROOT
ATOM      1  C   UNL     1       3.287   5.974  19.321  0.00  0.00    +0.000 A 
ATOM      2  C   UNL     1       2.394   5.915  20.401  0.00  0.00    +0.000 A 
ATOM      3  C   UNL     1       1.516   6.951  20.686  0.00  0.00    +0.000 A 
ATOM      4  C   UNL     1       1.429   8.077  19.854  0.00  0.00    +0.000 A 
ATOM      5  C   UNL     1       2.242   8.091  18.715  0.00  0.00    +0.000 A 
ATOM      6  C   UNL     1       3.139   7.060  18.450  0.00  0.00    +0.000 A 
ENDROOT
BRANCH   1  13
ATOM      7  C   UNL     1       4.233   3.940  18.034  0.00  0.00    +0.000 C 
ATOM      8  C   UNL     1       4.584   4.466  16.625  0.00  0.00    +0.000 C 
ATOM      9  C   UNL     1       5.952   5.154  16.529  0.00  0.00    +0.000 C 
ATOM     10  C   UNL     1       6.414   5.892  17.763  0.00  0.00    +0.000 C 
ATOM     11  C   UNL     1       7.579   6.831  17.603  0.00  0.00    +0.000 C 
ATOM     12  C   UNL     1       5.759   5.815  18.932  0.00  0.00    +0.000 C 
ATOM     13  C   UNL     1       4.477   5.032  19.132  0.00  0.00    +0.000 C 
BRANCH   7  15
ATOM     14  C   UNL     1       1.751   3.679  17.461  0.00  0.00    +0.000 C 
ATOM     15  C   UNL     1       2.855   3.241  18.097  0.00  0.00    +0.000 C 
ATOM     16  C   UNL     1       2.762   1.973  18.908  0.00  0.00    +0.000 C 
ENDBRANCH   7  15
ENDBRANCH   1  13
BRANCH   4  17
ATOM     17  C   UNL     1       0.509   9.241  20.206  0.00  0.00    +0.000 C 
ATOM     18  C   UNL     1      -0.471   9.041  21.345  0.00  0.00    +0.000 C 
ATOM     19  C   UNL     1       0.695   9.965  21.548  0.00  0.00    +0.000 C 
ATOM     20 CL   UNL     1       1.937   9.458  22.697  0.00  0.00    +0.000 Cl
ATOM     21 CL   UNL     1       0.320  11.685  21.719  0.00  0.00    +0.000 Cl
BRANCH  17  22
ATOM     22  C   UNL     1       0.107  10.091  19.010  0.00  0.00    +0.000 C 
BRANCH  22  23
ATOM     23  C   UNL     1      -1.369  10.049  18.598  0.00  0.00    +0.000 C 
BRANCH  23  24
ATOM     24  C   UNL     1      -1.677  11.364  17.870  0.00  0.00    +0.000 C 
BRANCH  24  25
ATOM     25  C   UNL     1      -2.785  11.248  16.836  0.00  0.00    +0.000 C 
BRANCH  25  26
ATOM     26  C   UNL     1      -2.588   9.987  15.991  0.00  0.00    +0.000 C 
ATOM     27  C   UNL     1      -3.220  10.143  14.623  0.00  0.00    +0.000 C 
ENDBRANCH  25  26
ENDBRANCH  24  25
ENDBRANCH  23  24
ENDBRANCH  22  23
ENDBRANCH  17  22
ENDBRANCH   4  17
BRANCH   2  28
ATOM     28  O   UNL     1       2.291   4.858  21.269  0.00  0.00    +0.000 OA
ATOM     29  H   UNL     1       1.715   5.139  21.996  0.00  0.00    +0.000 HD
ENDBRANCH   2  28
BRANCH   6  30
ATOM     30  O   UNL     1       3.912   7.123  17.320  0.00  0.00    +0.000 OA
ATOM     31  H   UNL     1       4.845   7.022  17.565  0.00  0.00    +0.000 HD
ENDBRANCH   6  30
TORSDOF 10
ENDMDL
MODEL 8
REMARK VINA RESULT:      -6.2      1.827      3.489
REMARK  Name = 
REMARK  13 active torsions:
REMARK  status: ('A' for Active; 'I' for Inactive)
REMARK    1  A    between atoms: C_2  and  C_3
REMARK    2  A    between atoms: C_2  and  C_4
REMARK    3  A    between atoms: C_7  and  C_8
REMARK    4  A    between atoms: C_10  and  C_11
REMARK    5  A    between atoms: C_12  and  O_13
REMARK    6  A    between atoms: C_15  and  C_16
REMARK    7  A    between atoms: C_16  and  C_17
REMARK    8  A    between atoms: C_17  and  C_18
REMARK    9  A    between atoms: C_18  and  C_19
REMARK   10  A    between atoms: C_19  and  C_20
REMARK   11  A    between atoms: C_20  and  C_21
REMARK   12  A    between atoms: C_21  and  C_22
REMARK   13  A    between atoms: C_28  and  O_29
REMARK                            x       y       z     vdW  Elec       q    Type
REMARK                         _______ _______ _______ _____ _____    ______ ____
ROOT
ATOM      1  C   UNL     1       3.151   6.143  19.237  0.00  0.00    +0.000 A 
ATOM      2  C   UNL     1       2.266   6.340  20.306  0.00  0.00    +0.000 A 
ATOM      3  C   UNL     1       1.564   7.526  20.471  0.00  0.00    +0.000 A 
ATOM      4  C   UNL     1       1.652   8.559  19.526  0.00  0.00    +0.000 A 
ATOM      5  C   UNL     1       2.450   8.323  18.400  0.00  0.00    +0.000 A 
ATOM      6  C   UNL     1       3.171   7.142  18.254  0.00  0.00    +0.000 A 
ENDROOT
BRANCH   1  13
ATOM      7  C   UNL     1       3.725   3.831  18.231  0.00  0.00    +0.000 C 
ATOM      8  C   UNL     1       4.097   4.100  16.756  0.00  0.00    +0.000 C 
ATOM      9  C   UNL     1       5.548   4.547  16.541  0.00  0.00    +0.000 C 
ATOM     10  C   UNL     1       6.165   5.364  17.650  0.00  0.00    +0.000 C 
ATOM     11  C   UNL     1       7.452   6.080  17.340  0.00  0.00    +0.000 C 
ATOM     12  C   UNL     1       5.552   5.550  18.830  0.00  0.00    +0.000 C 
ATOM     13  C   UNL     1       4.175   5.011  19.161  0.00  0.00    +0.000 C 
BRANCH   7  15
ATOM     14  C   UNL     1       1.861   2.445  19.307  0.00  0.00    +0.000 C 
ATOM     15  C   UNL     1       2.260   3.371  18.415  0.00  0.00    +0.000 C 
ATOM     16  C   UNL     1       1.217   4.032  17.548  0.00  0.00    +0.000 C 
ENDBRANCH   7  15
ENDBRANCH   1  13
BRANCH   4  17
ATOM     17  C   UNL     1       0.930   9.884  19.743  0.00  0.00    +0.000 C 
ATOM     18  C   UNL     1       1.146  10.976  18.713  0.00  0.00    +0.000 C 
ATOM     19  C   UNL     1      -0.191  10.294  18.776  0.00  0.00    +0.000 C 
ATOM     20 CL   UNL     1      -0.640   9.271  17.408  0.00  0.00    +0.000 Cl
ATOM     21 CL   UNL     1      -1.556  11.277  19.322  0.00  0.00    +0.000 Cl
BRANCH  17  22
ATOM     22  C   UNL     1       0.753  10.256  21.207  0.00  0.00    +0.000 C 
BRANCH  22  23
ATOM     23  C   UNL     1      -0.091   9.306  22.063  0.00  0.00    +0.000 C 
BRANCH  23  24
ATOM     24  C   UNL     1      -0.856  10.165  23.079  0.00  0.00    +0.000 C 
BRANCH  24  25
ATOM     25  C   UNL     1      -0.929  11.637  22.705  0.00  0.00    +0.000 C 
BRANCH  25  26
ATOM     26  C   UNL     1      -2.178  12.275  23.319  0.00  0.00    +0.000 C 
ATOM     27  C   UNL     1      -3.180  12.652  22.245  0.00  0.00    +0.000 C 
ENDBRANCH  25  26
ENDBRANCH  24  25
ENDBRANCH  23  24
ENDBRANCH  22  23
ENDBRANCH  17  22
ENDBRANCH   4  17
BRANCH   2  28
ATOM     28  O   UNL     1       2.002   5.410  21.280  0.00  0.00    +0.000 OA
ATOM     29  H   UNL     1       2.684   4.725  21.214  0.00  0.00    +0.000 HD
ENDBRANCH   2  28
BRANCH   6  30
ATOM     30  O   UNL     1       3.938   6.963  17.133  0.00  0.00    +0.000 OA
ATOM     31  H   UNL     1       4.579   7.687  17.065  0.00  0.00    +0.000 HD
ENDBRANCH   6  30
TORSDOF 10
ENDMDL
MODEL 9
REMARK VINA RESULT:      -6.1      1.651      2.498
REMARK  Name = 
REMARK  13 active torsions:
REMARK  status: ('A' for Active; 'I' for Inactive)
REMARK    1  A    between atoms: C_2  and  C_3
REMARK    2  A    between atoms: C_2  and  C_4
REMARK    3  A    between atoms: C_7  and  C_8
REMARK    4  A    between atoms: C_10  and  C_11
REMARK    5  A    between atoms: C_12  and  O_13
REMARK    6  A    between atoms: C_15  and  C_16
REMARK    7  A    between atoms: C_16  and  C_17
REMARK    8  A    between atoms: C_17  and  C_18
REMARK    9  A    between atoms: C_18  and  C_19
REMARK   10  A    between atoms: C_19  and  C_20
REMARK   11  A    between atoms: C_20  and  C_21
REMARK   12  A    between atoms: C_21  and  C_22
REMARK   13  A    between atoms: C_28  and  O_29
REMARK                            x       y       z     vdW  Elec       q    Type
REMARK                         _______ _______ _______ _____ _____    ______ ____
ROOT
ATOM      1  C   UNL     1       3.406   5.747  19.334  0.00  0.00    +0.000 A 
ATOM      2  C   UNL     1       3.496   6.840  18.461  0.00  0.00    +0.000 A 
ATOM      3  C   UNL     1       2.678   7.954  18.591  0.00  0.00    +0.000 A 
ATOM      4  C   UNL     1       1.773   8.069  19.656  0.00  0.00    +0.000 A 
ATOM      5  C   UNL     1       1.757   7.028  20.593  0.00  0.00    +0.000 A 
ATOM      6  C   UNL     1       2.561   5.902  20.441  0.00  0.00    +0.000 A 
ENDROOT
BRANCH   1  13
ATOM      7  C   UNL     1       3.332   3.579  17.926  0.00  0.00    +0.000 C 
ATOM      8  C   UNL     1       3.893   3.964  16.540  0.00  0.00    +0.000 C 
ATOM      9  C   UNL     1       5.425   3.960  16.454  0.00  0.00    +0.000 C 
ATOM     10  C   UNL     1       6.163   4.338  17.714  0.00  0.00    +0.000 C 
ATOM     11  C   UNL     1       7.629   4.653  17.581  0.00  0.00    +0.000 C 
ATOM     12  C   UNL     1       5.538   4.504  18.891  0.00  0.00    +0.000 C 
ATOM     13  C   UNL     1       4.038   4.379  19.074  0.00  0.00    +0.000 C 
BRANCH   7  15
ATOM     14  C   UNL     1       1.003   4.431  17.288  0.00  0.00    +0.000 C 
ATOM     15  C   UNL     1       1.786   3.581  17.979  0.00  0.00    +0.000 C 
ATOM     16  C   UNL     1       1.126   2.539  18.846  0.00  0.00    +0.000 C 
ENDBRANCH   7  15
ENDBRANCH   1  13
BRANCH   4  17
ATOM     17  C   UNL     1       0.833   9.265  19.760  0.00  0.00    +0.000 C 
ATOM     18  C   UNL     1      -0.435   9.091  20.574  0.00  0.00    +0.000 C 
ATOM     19  C   UNL     1       0.659   9.966  21.116  0.00  0.00    +0.000 C 
ATOM     20 CL   UNL     1       1.508   9.398  22.556  0.00  0.00    +0.000 Cl
ATOM     21 CL   UNL     1       0.311  11.698  21.212  0.00  0.00    +0.000 Cl
BRANCH  17  22
ATOM     22  C   UNL     1       0.814  10.143  18.518  0.00  0.00    +0.000 C 
BRANCH  22  23
ATOM     23  C   UNL     1       2.071  10.977  18.243  0.00  0.00    +0.000 C 
BRANCH  23  24
ATOM     24  C   UNL     1       1.659  12.454  18.300  0.00  0.00    +0.000 C 
BRANCH  24  25
ATOM     25  C   UNL     1       2.834  13.419  18.297  0.00  0.00    +0.000 C 
BRANCH  25  26
ATOM     26  C   UNL     1       2.587  14.555  19.292  0.00  0.00    +0.000 C 
ATOM     27  C   UNL     1       1.206  15.152  19.105  0.00  0.00    +0.000 C 
ENDBRANCH  25  26
ENDBRANCH  24  25
ENDBRANCH  23  24
ENDBRANCH  22  23
ENDBRANCH  17  22
ENDBRANCH   4  17
BRANCH   2  28
ATOM     28  O   UNL     1       4.375   6.928  17.412  0.00  0.00    +0.000 OA
ATOM     29  H   UNL     1       5.228   7.210  17.776  0.00  0.00    +0.000 HD
ENDBRANCH   2  28
BRANCH   6  30
ATOM     30  O   UNL     1       2.506   4.912  21.386  0.00  0.00    +0.000 OA
ATOM     31  H   UNL     1       2.604   4.050  20.953  0.00  0.00    +0.000 HD
ENDBRANCH   6  30
TORSDOF 10
ENDMDL
