MODEL 1
REMARK VINA RESULT:      -8.2      0.000      0.000
REMARK  Name = 
REMARK  5 active torsions:
REMARK  status: ('A' for Active; 'I' for Inactive)
REMARK    1  A    between atoms: N_3  and  N_4
REMARK    2  A    between atoms: C_5  and  C_6
REMARK    3  A    between atoms: C_11  and  O_12
REMARK    4  A    between atoms: N_13  and  C_14
REMARK    5  A    between atoms: N_13  and  C_20
REMARK                            x       y       z     vdW  Elec       q    Type
REMARK                         _______ _______ _______ _____ _____    ______ ____
ROOT
ATOM      1  O   UNL     1       3.564   7.798  17.395  0.00  0.00    +0.000 OA
ATOM      2  C   UNL     1       3.058   7.120  18.294  0.00  0.00    +0.000 C 
ATOM      3  N   UNL     1       2.095   7.646  19.151  0.00  0.00    +0.000 N 
ATOM      4  N   UNL     1       3.437   5.784  18.545  0.00  0.00    +0.000 N 
ATOM      5  H   UNL     1       1.921   7.203  20.044  0.00  0.00    +0.000 HD
ENDROOT
BRANCH   4   6
ATOM      6  C   UNL     1       4.674   5.344  17.965  0.00  0.00    +0.000 A 
ATOM      7  C   UNL     1       5.874   5.522  18.670  0.00  0.00    +0.000 A 
ATOM      8  C   UNL     1       7.084   5.078  18.132  0.00  0.00    +0.000 A 
ATOM      9  C   UNL     1       7.111   4.486  16.870  0.00  0.00    +0.000 A 
ATOM     10  C   UNL     1       5.931   4.331  16.148  0.00  0.00    +0.000 A 
ATOM     11  C   UNL     1       4.714   4.750  16.695  0.00  0.00    +0.000 A 
ENDBRANCH   4   6
BRANCH   4  12
ATOM     12  C   UNL     1       2.657   4.788  19.234  0.00  0.00    +0.000 A 
ATOM     13  C   UNL     1       1.697   4.004  18.576  0.00  0.00    +0.000 A 
ATOM     14  C   UNL     1       0.911   3.080  19.276  0.00  0.00    +0.000 A 
ATOM     15  C   UNL     1       1.092   2.895  20.644  0.00  0.00    +0.000 A 
ATOM     16  C   UNL     1       2.061   3.633  21.313  0.00  0.00    +0.000 A 
ATOM     17  C   UNL     1       2.827   4.573  20.617  0.00  0.00    +0.000 A 
ENDBRANCH   4  12
BRANCH   3  18
ATOM     18  N   UNL     1       1.632   8.911  18.929  0.00  0.00    +0.000 NA
ATOM     19  C   UNL     1       0.856   9.429  19.826  0.00  0.00    +0.000 C 
BRANCH  19  20
ATOM     20  C   UNL     1       0.313  10.797  19.647  0.00  0.00    +0.000 A 
ATOM     21  C   UNL     1       0.577  11.776  20.615  0.00  0.00    +0.000 A 
ATOM     22  C   UNL     1       0.084  13.072  20.460  0.00  0.00    +0.000 A 
ATOM     23  C   UNL     1      -0.679  13.396  19.339  0.00  0.00    +0.000 A 
ATOM     24  C   UNL     1      -0.948  12.428  18.371  0.00  0.00    +0.000 A 
ATOM     25  C   UNL     1      -0.453  11.127  18.526  0.00  0.00    +0.000 A 
BRANCH  25  26
ATOM     26  O   UNL     1      -0.717  10.185  17.570  0.00  0.00    +0.000 OA
ATOM     27  H   UNL     1      -1.017   9.368  18.007  0.00  0.00    +0.000 HD
ENDBRANCH  25  26
ENDBRANCH  19  20
ENDBRANCH   3  18
TORSDOF 5
ENDMDL
MODEL 2
REMARK VINA RESULT:      -8.2      0.139      1.369
REMARK  Name = 
REMARK  5 active torsions:
REMARK  status: ('A' for Active; 'I' for Inactive)
REMARK    1  A    between atoms: N_3  and  N_4
REMARK    2  A    between atoms: C_5  and  C_6
REMARK    3  A    between atoms: C_11  and  O_12
REMARK    4  A    between atoms: N_13  and  C_14
REMARK    5  A    between atoms: N_13  and  C_20
REMARK                            x       y       z     vdW  Elec       q    Type
REMARK                         _______ _______ _______ _____ _____    ______ ____
ROOT
ATOM      1  O   UNL     1       3.582   7.805  17.349  0.00  0.00    +0.000 OA
ATOM      2  C   UNL     1       3.053   7.136  18.242  0.00  0.00    +0.000 C 
ATOM      3  N   UNL     1       2.069   7.671  19.070  0.00  0.00    +0.000 N 
ATOM      4  N   UNL     1       3.425   5.802  18.515  0.00  0.00    +0.000 N 
ATOM      5  H   UNL     1       1.873   7.236  19.962  0.00  0.00    +0.000 HD
ENDROOT
BRANCH   4   6
ATOM      6  C   UNL     1       4.675   5.356  17.971  0.00  0.00    +0.000 A 
ATOM      7  C   UNL     1       4.706   4.747  16.708  0.00  0.00    +0.000 A 
ATOM      8  C   UNL     1       5.917   4.329  16.152  0.00  0.00    +0.000 A 
ATOM      9  C   UNL     1       7.103   4.483  16.868  0.00  0.00    +0.000 A 
ATOM     10  C   UNL     1       7.083   5.059  18.136  0.00  0.00    +0.000 A 
ATOM     11  C   UNL     1       5.875   5.503  18.684  0.00  0.00    +0.000 A 
ENDBRANCH   4   6
BRANCH   4  12
ATOM     12  C   UNL     1       2.627   4.813  19.194  0.00  0.00    +0.000 A 
ATOM     13  C   UNL     1       2.725   4.596  20.577  0.00  0.00    +0.000 A 
ATOM     14  C   UNL     1       1.980   3.592  21.209  0.00  0.00    +0.000 A 
ATOM     15  C   UNL     1       1.095   2.806  20.476  0.00  0.00    +0.000 A 
ATOM     16  C   UNL     1       0.954   3.023  19.111  0.00  0.00    +0.000 A 
ATOM     17  C   UNL     1       1.716   4.009  18.478  0.00  0.00    +0.000 A 
ENDBRANCH   4  12
BRANCH   3  18
ATOM     18  N   UNL     1       1.613   8.934  18.824  0.00  0.00    +0.000 NA
ATOM     19  C   UNL     1       0.974   9.534  19.776  0.00  0.00    +0.000 C 
BRANCH  19  20
ATOM     20  C   UNL     1       0.446  10.905  19.577  0.00  0.00    +0.000 A 
ATOM     21  C   UNL     1       0.808  11.920  20.473  0.00  0.00    +0.000 A 
ATOM     22  C   UNL     1       0.330  13.219  20.297  0.00  0.00    +0.000 A 
ATOM     23  C   UNL     1      -0.513  13.510  19.226  0.00  0.00    +0.000 A 
ATOM     24  C   UNL     1      -0.880  12.506  18.330  0.00  0.00    +0.000 A 
ATOM     25  C   UNL     1      -0.401  11.202  18.506  0.00  0.00    +0.000 A 
BRANCH  25  26
ATOM     26  O   UNL     1      -0.761  10.224  17.620  0.00  0.00    +0.000 OA
ATOM     27  H   UNL     1      -1.482  10.558  17.057  0.00  0.00    +0.000 HD
ENDBRANCH  25  26
ENDBRANCH  19  20
ENDBRANCH   3  18
TORSDOF 5
ENDMDL
MODEL 3
REMARK VINA RESULT:      -8.1      0.875      1.337
REMARK  Name = 
REMARK  5 active torsions:
REMARK  status: ('A' for Active; 'I' for Inactive)
REMARK    1  A    between atoms: N_3  and  N_4
REMARK    2  A    between atoms: C_5  and  C_6
REMARK    3  A    between atoms: C_11  and  O_12
REMARK    4  A    between atoms: N_13  and  C_14
REMARK    5  A    between atoms: N_13  and  C_20
REMARK                            x       y       z     vdW  Elec       q    Type
REMARK                         _______ _______ _______ _____ _____    ______ ____
ROOT
ATOM      1  O   UNL     1       3.544   7.752  17.326  0.00  0.00    +0.000 OA
ATOM      2  C   UNL     1       3.029   7.091  18.233  0.00  0.00    +0.000 C 
ATOM      3  N   UNL     1       2.027   7.619  19.044  0.00  0.00    +0.000 N 
ATOM      4  N   UNL     1       3.436   5.774  18.540  0.00  0.00    +0.000 N 
ATOM      5  H   UNL     1       1.839   7.201  19.946  0.00  0.00    +0.000 HD
ENDROOT
BRANCH   4   6
ATOM      6  C   UNL     1       4.700   5.349  18.011  0.00  0.00    +0.000 A 
ATOM      7  C   UNL     1       4.753   4.705  16.767  0.00  0.00    +0.000 A 
ATOM      8  C   UNL     1       5.977   4.306  16.226  0.00  0.00    +0.000 A 
ATOM      9  C   UNL     1       7.156   4.515  16.940  0.00  0.00    +0.000 A 
ATOM     10  C   UNL     1       7.114   5.127  18.190  0.00  0.00    +0.000 A 
ATOM     11  C   UNL     1       5.893   5.551  18.723  0.00  0.00    +0.000 A 
ENDBRANCH   4   6
BRANCH   4  12
ATOM     12  C   UNL     1       2.662   4.781  19.240  0.00  0.00    +0.000 A 
ATOM     13  C   UNL     1       1.722   3.969  18.586  0.00  0.00    +0.000 A 
ATOM     14  C   UNL     1       0.941   3.048  19.296  0.00  0.00    +0.000 A 
ATOM     15  C   UNL     1       1.107   2.895  20.669  0.00  0.00    +0.000 A 
ATOM     16  C   UNL     1       2.056   3.661  21.335  0.00  0.00    +0.000 A 
ATOM     17  C   UNL     1       2.817   4.598  20.630  0.00  0.00    +0.000 A 
ENDBRANCH   4  12
BRANCH   3  18
ATOM     18  N   UNL     1       1.539   8.863  18.765  0.00  0.00    +0.000 NA
ATOM     19  C   UNL     1       1.027   9.536  19.744  0.00  0.00    +0.000 C 
BRANCH  19  20
ATOM     20  C   UNL     1       0.473  10.891  19.513  0.00  0.00    +0.000 A 
ATOM     21  C   UNL     1      -0.718  11.267  20.151  0.00  0.00    +0.000 A 
ATOM     22  C   UNL     1      -1.251  12.542  19.955  0.00  0.00    +0.000 A 
ATOM     23  C   UNL     1      -0.598  13.447  19.118  0.00  0.00    +0.000 A 
ATOM     24  C   UNL     1       0.586  13.081  18.478  0.00  0.00    +0.000 A 
ATOM     25  C   UNL     1       1.121  11.802  18.674  0.00  0.00    +0.000 A 
BRANCH  25  26
ATOM     26  O   UNL     1       2.285  11.452  18.047  0.00  0.00    +0.000 OA
ATOM     27  H   UNL     1       2.381  10.484  18.076  0.00  0.00    +0.000 HD
ENDBRANCH  25  26
ENDBRANCH  19  20
ENDBRANCH   3  18
TORSDOF 5
ENDMDL
MODEL 4
REMARK VINA RESULT:      -8.0      0.938      1.346
REMARK  Name = 
REMARK  5 active torsions:
REMARK  status: ('A' for Active; 'I' for Inactive)
REMARK    1  A    between atoms: N_3  and  N_4
REMARK    2  A    between atoms: C_5  and  C_6
REMARK    3  A    between atoms: C_11  and  O_12
REMARK    4  A    between atoms: N_13  and  C_14
REMARK    5  A    between atoms: N_13  and  C_20
REMARK                            x       y       z     vdW  Elec       q    Type
REMARK                         _______ _______ _______ _____ _____    ______ ____
ROOT
ATOM      1  O   UNL     1       3.554   7.765  17.415  0.00  0.00    +0.000 OA
ATOM      2  C   UNL     1       3.057   7.095  18.326  0.00  0.00    +0.000 C 
ATOM      3  N   UNL     1       2.099   7.626  19.185  0.00  0.00    +0.000 N 
ATOM      4  N   UNL     1       3.443   5.762  18.588  0.00  0.00    +0.000 N 
ATOM      5  H   UNL     1       1.933   7.192  20.084  0.00  0.00    +0.000 HD
ENDROOT
BRANCH   4   6
ATOM      6  C   UNL     1       4.677   5.320  18.003  0.00  0.00    +0.000 A 
ATOM      7  C   UNL     1       5.881   5.511  18.696  0.00  0.00    +0.000 A 
ATOM      8  C   UNL     1       7.089   5.066  18.154  0.00  0.00    +0.000 A 
ATOM      9  C   UNL     1       7.108   4.459  16.899  0.00  0.00    +0.000 A 
ATOM     10  C   UNL     1       5.922   4.290  16.188  0.00  0.00    +0.000 A 
ATOM     11  C   UNL     1       4.708   4.711  16.740  0.00  0.00    +0.000 A 
ENDBRANCH   4   6
BRANCH   4  12
ATOM     12  C   UNL     1       2.671   4.771  19.294  0.00  0.00    +0.000 A 
ATOM     13  C   UNL     1       1.705   3.981  18.652  0.00  0.00    +0.000 A 
ATOM     14  C   UNL     1       0.928   3.061  19.368  0.00  0.00    +0.000 A 
ATOM     15  C   UNL     1       1.123   2.888  20.735  0.00  0.00    +0.000 A 
ATOM     16  C   UNL     1       2.097   3.634  21.388  0.00  0.00    +0.000 A 
ATOM     17  C   UNL     1       2.855   4.569  20.677  0.00  0.00    +0.000 A 
ENDBRANCH   4  12
BRANCH   3  18
ATOM     18  N   UNL     1       1.631   8.888  18.953  0.00  0.00    +0.000 NA
ATOM     19  C   UNL     1       0.736   9.351  19.765  0.00  0.00    +0.000 C 
BRANCH  19  20
ATOM     20  C   UNL     1       0.179  10.711  19.569  0.00  0.00    +0.000 A 
ATOM     21  C   UNL     1      -0.685  10.954  18.493  0.00  0.00    +0.000 A 
ATOM     22  C   UNL     1      -1.228  12.224  18.297  0.00  0.00    +0.000 A 
ATOM     23  C   UNL     1      -0.908  13.260  19.175  0.00  0.00    +0.000 A 
ATOM     24  C   UNL     1      -0.047  13.028  20.248  0.00  0.00    +0.000 A 
ATOM     25  C   UNL     1       0.498  11.753  20.445  0.00  0.00    +0.000 A 
BRANCH  25  26
ATOM     26  O   UNL     1       1.337  11.532  21.502  0.00  0.00    +0.000 OA
ATOM     27  H   UNL     1       2.065  12.177  21.467  0.00  0.00    +0.000 HD
ENDBRANCH  25  26
ENDBRANCH  19  20
ENDBRANCH   3  18
TORSDOF 5
ENDMDL
MODEL 5
REMARK VINA RESULT:      -8.0      1.629      1.947
REMARK  Name = 
REMARK  5 active torsions:
REMARK  status: ('A' for Active; 'I' for Inactive)
REMARK    1  A    between atoms: N_3  and  N_4
REMARK    2  A    between atoms: C_5  and  C_6
REMARK    3  A    between atoms: C_11  and  O_12
REMARK    4  A    between atoms: N_13  and  C_14
REMARK    5  A    between atoms: N_13  and  C_20
REMARK                            x       y       z     vdW  Elec       q    Type
REMARK                         _______ _______ _______ _____ _____    ______ ____
ROOT
ATOM      1  O   UNL     1       3.503   7.747  18.197  0.00  0.00    +0.000 OA
ATOM      2  C   UNL     1       3.050   6.835  18.896  0.00  0.00    +0.000 C 
ATOM      3  N   UNL     1       2.155   7.086  19.933  0.00  0.00    +0.000 N 
ATOM      4  N   UNL     1       3.426   5.485  18.724  0.00  0.00    +0.000 N 
ATOM      5  H   UNL     1       2.036   6.403  20.671  0.00  0.00    +0.000 HD
ENDROOT
BRANCH   4   6
ATOM      6  C   UNL     1       4.614   5.239  17.958  0.00  0.00    +0.000 A 
ATOM      7  C   UNL     1       5.865   5.247  18.593  0.00  0.00    +0.000 A 
ATOM      8  C   UNL     1       7.030   4.986  17.868  0.00  0.00    +0.000 A 
ATOM      9  C   UNL     1       6.959   4.749  16.497  0.00  0.00    +0.000 A 
ATOM     10  C   UNL     1       5.726   4.767  15.849  0.00  0.00    +0.000 A 
ATOM     11  C   UNL     1       4.555   5.003  16.577  0.00  0.00    +0.000 A 
ENDBRANCH   4   6
BRANCH   4  12
ATOM     12  C   UNL     1       2.681   4.328  19.151  0.00  0.00    +0.000 A 
ATOM     13  C   UNL     1       1.672   3.757  18.359  0.00  0.00    +0.000 A 
ATOM     14  C   UNL     1       0.923   2.666  18.817  0.00  0.00    +0.000 A 
ATOM     15  C   UNL     1       1.189   2.101  20.061  0.00  0.00    +0.000 A 
ATOM     16  C   UNL     1       2.205   2.626  20.849  0.00  0.00    +0.000 A 
ATOM     17  C   UNL     1       2.936   3.731  20.402  0.00  0.00    +0.000 A 
ENDBRANCH   4  12
BRANCH   3  18
ATOM     18  N   UNL     1       1.697   8.359  20.117  0.00  0.00    +0.000 NA
ATOM     19  C   UNL     1       0.923   8.574  21.132  0.00  0.00    +0.000 C 
BRANCH  19  20
ATOM     20  C   UNL     1       0.383   9.931  21.389  0.00  0.00    +0.000 A 
ATOM     21  C   UNL     1       0.662  10.965  20.485  0.00  0.00    +0.000 A 
ATOM     22  C   UNL     1       0.155  12.247  20.704  0.00  0.00    +0.000 A 
ATOM     23  C   UNL     1      -0.630  12.502  21.828  0.00  0.00    +0.000 A 
ATOM     24  C   UNL     1      -0.910  11.479  22.733  0.00  0.00    +0.000 A 
ATOM     25  C   UNL     1      -0.402  10.192  22.514  0.00  0.00    +0.000 A 
BRANCH  25  26
ATOM     26  O   UNL     1      -0.686   9.193  23.404  0.00  0.00    +0.000 OA
ATOM     27  H   UNL     1      -0.538   8.334  22.971  0.00  0.00    +0.000 HD
ENDBRANCH  25  26
ENDBRANCH  19  20
ENDBRANCH   3  18
TORSDOF 5
ENDMDL
MODEL 6
REMARK VINA RESULT:      -8.0      0.945      1.918
REMARK  Name = 
REMARK  5 active torsions:
REMARK  status: ('A' for Active; 'I' for Inactive)
REMARK    1  A    between atoms: N_3  and  N_4
REMARK    2  A    between atoms: C_5  and  C_6
REMARK    3  A    between atoms: C_11  and  O_12
REMARK    4  A    between atoms: N_13  and  C_14
REMARK    5  A    between atoms: N_13  and  C_20
REMARK                            x       y       z     vdW  Elec       q    Type
REMARK                         _______ _______ _______ _____ _____    ______ ____
ROOT
ATOM      1  O   UNL     1       3.577   7.784  17.418  0.00  0.00    +0.000 OA
ATOM      2  C   UNL     1       3.061   7.117  18.321  0.00  0.00    +0.000 C 
ATOM      3  N   UNL     1       2.085   7.652  19.158  0.00  0.00    +0.000 N 
ATOM      4  N   UNL     1       3.440   5.785  18.594  0.00  0.00    +0.000 N 
ATOM      5  H   UNL     1       1.901   7.221  20.054  0.00  0.00    +0.000 HD
ENDROOT
BRANCH   4   6
ATOM      6  C   UNL     1       4.686   5.341  18.037  0.00  0.00    +0.000 A 
ATOM      7  C   UNL     1       4.701   4.709  16.785  0.00  0.00    +0.000 A 
ATOM      8  C   UNL     1       5.906   4.292  16.216  0.00  0.00    +0.000 A 
ATOM      9  C   UNL     1       7.103   4.470  16.909  0.00  0.00    +0.000 A 
ATOM     10  C   UNL     1       7.098   5.069  18.166  0.00  0.00    +0.000 A 
ATOM     11  C   UNL     1       5.895   5.511  18.727  0.00  0.00    +0.000 A 
ENDBRANCH   4   6
BRANCH   4  12
ATOM     12  C   UNL     1       2.654   4.796  19.287  0.00  0.00    +0.000 A 
ATOM     13  C   UNL     1       2.775   4.580  20.668  0.00  0.00    +0.000 A 
ATOM     14  C   UNL     1       2.040   3.576  21.312  0.00  0.00    +0.000 A 
ATOM     15  C   UNL     1       1.143   2.790  20.595  0.00  0.00    +0.000 A 
ATOM     16  C   UNL     1       0.978   3.008  19.232  0.00  0.00    +0.000 A 
ATOM     17  C   UNL     1       1.731   3.993  18.586  0.00  0.00    +0.000 A 
ENDBRANCH   4  12
BRANCH   3  18
ATOM     18  N   UNL     1       1.623   8.913  18.912  0.00  0.00    +0.000 NA
ATOM     19  C   UNL     1       0.804   9.426  19.773  0.00  0.00    +0.000 C 
BRANCH  19  20
ATOM     20  C   UNL     1       0.258  10.789  19.567  0.00  0.00    +0.000 A 
ATOM     21  C   UNL     1      -0.599  11.032  18.484  0.00  0.00    +0.000 A 
ATOM     22  C   UNL     1      -1.132  12.305  18.278  0.00  0.00    +0.000 A 
ATOM     23  C   UNL     1      -0.810  13.343  19.152  0.00  0.00    +0.000 A 
ATOM     24  C   UNL     1       0.043  13.111  20.231  0.00  0.00    +0.000 A 
ATOM     25  C   UNL     1       0.579  11.833  20.438  0.00  0.00    +0.000 A 
BRANCH  25  26
ATOM     26  O   UNL     1       1.410  11.613  21.501  0.00  0.00    +0.000 OA
ATOM     27  H   UNL     1       2.331  11.602  21.185  0.00  0.00    +0.000 HD
ENDBRANCH  25  26
ENDBRANCH  19  20
ENDBRANCH   3  18
TORSDOF 5
ENDMDL
MODEL 7
REMARK VINA RESULT:      -8.0      1.667      2.196
REMARK  Name = 
REMARK  5 active torsions:
REMARK  status: ('A' for Active; 'I' for Inactive)
REMARK    1  A    between atoms: N_3  and  N_4
REMARK    2  A    between atoms: C_5  and  C_6
REMARK    3  A    between atoms: C_11  and  O_12
REMARK    4  A    between atoms: N_13  and  C_14
REMARK    5  A    between atoms: N_13  and  C_20
REMARK                            x       y       z     vdW  Elec       q    Type
REMARK                         _______ _______ _______ _____ _____    ______ ____
ROOT
ATOM      1  O   UNL     1       3.408   7.958  17.871  0.00  0.00    +0.000 OA
ATOM      2  C   UNL     1       3.039   7.007  18.568  0.00  0.00    +0.000 C 
ATOM      3  N   UNL     1       2.168   7.183  19.641  0.00  0.00    +0.000 N 
ATOM      4  N   UNL     1       3.493   5.687  18.357  0.00  0.00    +0.000 N 
ATOM      5  H   UNL     1       2.120   6.481  20.368  0.00  0.00    +0.000 HD
ENDROOT
BRANCH   4   6
ATOM      6  C   UNL     1       4.666   5.530  17.545  0.00  0.00    +0.000 A 
ATOM      7  C   UNL     1       4.555   4.970  16.264  0.00  0.00    +0.000 A 
ATOM      8  C   UNL     1       5.681   4.832  15.451  0.00  0.00    +0.000 A 
ATOM      9  C   UNL     1       6.935   5.218  15.923  0.00  0.00    +0.000 A 
ATOM     10  C   UNL     1       7.063   5.748  17.205  0.00  0.00    +0.000 A 
ATOM     11  C   UNL     1       5.933   5.912  18.012  0.00  0.00    +0.000 A 
ENDBRANCH   4   6
BRANCH   4  12
ATOM     12  C   UNL     1       2.839   4.478  18.787  0.00  0.00    +0.000 A 
ATOM     13  C   UNL     1       1.686   3.988  18.154  0.00  0.00    +0.000 A 
ATOM     14  C   UNL     1       1.035   2.840  18.622  0.00  0.00    +0.000 A 
ATOM     15  C   UNL     1       1.540   2.138  19.713  0.00  0.00    +0.000 A 
ATOM     16  C   UNL     1       2.700   2.583  20.336  0.00  0.00    +0.000 A 
ATOM     17  C   UNL     1       3.336   3.743  19.883  0.00  0.00    +0.000 A 
ENDBRANCH   4  12
BRANCH   3  18
ATOM     18  N   UNL     1       1.638   8.420  19.865  0.00  0.00    +0.000 NA
ATOM     19  C   UNL     1       1.042   8.618  20.997  0.00  0.00    +0.000 C 
BRANCH  19  20
ATOM     20  C   UNL     1       0.437   9.936  21.305  0.00  0.00    +0.000 A 
ATOM     21  C   UNL     1       0.665  11.017  20.443  0.00  0.00    +0.000 A 
ATOM     22  C   UNL     1       0.097  12.264  20.710  0.00  0.00    +0.000 A 
ATOM     23  C   UNL     1      -0.700  12.436  21.841  0.00  0.00    +0.000 A 
ATOM     24  C   UNL     1      -0.931  11.366  22.706  0.00  0.00    +0.000 A 
ATOM     25  C   UNL     1      -0.361  10.115  22.438  0.00  0.00    +0.000 A 
BRANCH  25  26
ATOM     26  O   UNL     1      -0.596   9.069  23.287  0.00  0.00    +0.000 OA
ATOM     27  H   UNL     1      -0.867   8.293  22.765  0.00  0.00    +0.000 HD
ENDBRANCH  25  26
ENDBRANCH  19  20
ENDBRANCH   3  18
TORSDOF 5
ENDMDL
MODEL 8
REMARK VINA RESULT:      -7.9      1.548      1.828
REMARK  Name = 
REMARK  5 active torsions:
REMARK  status: ('A' for Active; 'I' for Inactive)
REMARK    1  A    between atoms: N_3  and  N_4
REMARK    2  A    between atoms: C_5  and  C_6
REMARK    3  A    between atoms: C_11  and  O_12
REMARK    4  A    between atoms: N_13  and  C_14
REMARK    5  A    between atoms: N_13  and  C_20
REMARK                            x       y       z     vdW  Elec       q    Type
REMARK                         _______ _______ _______ _____ _____    ______ ____
ROOT
ATOM      1  O   UNL     1       3.432   7.882  18.049  0.00  0.00    +0.000 OA
ATOM      2  C   UNL     1       3.130   6.864  18.680  0.00  0.00    +0.000 C 
ATOM      3  N   UNL     1       2.323   6.920  19.813  0.00  0.00    +0.000 N 
ATOM      4  N   UNL     1       3.603   5.582  18.327  0.00  0.00    +0.000 N 
ATOM      5  H   UNL     1       2.336   6.158  20.478  0.00  0.00    +0.000 HD
ENDROOT
BRANCH   4   6
ATOM      6  C   UNL     1       4.727   5.530  17.437  0.00  0.00    +0.000 A 
ATOM      7  C   UNL     1       5.940   6.127  17.813  0.00  0.00    +0.000 A 
ATOM      8  C   UNL     1       7.051   6.066  16.970  0.00  0.00    +0.000 A 
ATOM      9  C   UNL     1       6.952   5.440  15.729  0.00  0.00    +0.000 A 
ATOM     10  C   UNL     1       5.745   4.869  15.331  0.00  0.00    +0.000 A 
ATOM     11  C   UNL     1       4.637   4.906  16.184  0.00  0.00    +0.000 A 
ENDBRANCH   4   6
BRANCH   4  12
ATOM     12  C   UNL     1       3.005   4.321  18.686  0.00  0.00    +0.000 A 
ATOM     13  C   UNL     1       1.781   3.895  18.149  0.00  0.00    +0.000 A 
ATOM     14  C   UNL     1       1.192   2.690  18.553  0.00  0.00    +0.000 A 
ATOM     15  C   UNL     1       1.830   1.870  19.479  0.00  0.00    +0.000 A 
ATOM     16  C   UNL     1       3.060   2.252  20.000  0.00  0.00    +0.000 A 
ATOM     17  C   UNL     1       3.635   3.466  19.614  0.00  0.00    +0.000 A 
ENDBRANCH   4  12
BRANCH   3  18
ATOM     18  N   UNL     1       1.776   8.118  20.176  0.00  0.00    +0.000 NA
ATOM     19  C   UNL     1       0.758   8.091  20.975  0.00  0.00    +0.000 C 
BRANCH  19  20
ATOM     20  C   UNL     1       0.112   9.354  21.406  0.00  0.00    +0.000 A 
ATOM     21  C   UNL     1      -0.312   9.492  22.735  0.00  0.00    +0.000 A 
ATOM     22  C   UNL     1      -0.913  10.676  23.164  0.00  0.00    +0.000 A 
ATOM     23  C   UNL     1      -1.098  11.727  22.266  0.00  0.00    +0.000 A 
ATOM     24  C   UNL     1      -0.681  11.597  20.941  0.00  0.00    +0.000 A 
ATOM     25  C   UNL     1      -0.077  10.409  20.510  0.00  0.00    +0.000 A 
BRANCH  25  26
ATOM     26  O   UNL     1       0.333  10.292  19.211  0.00  0.00    +0.000 OA
ATOM     27  H   UNL     1       0.610  11.167  18.887  0.00  0.00    +0.000 HD
ENDBRANCH  25  26
ENDBRANCH  19  20
ENDBRANCH   3  18
TORSDOF 5
ENDMDL
MODEL 9
REMARK VINA RESULT:      -7.9      1.695      2.403
REMARK  Name = 
REMARK  5 active torsions:
REMARK  status: ('A' for Active; 'I' for Inactive)
REMARK    1  A    between atoms: N_3  and  N_4
REMARK    2  A    between atoms: C_5  and  C_6
REMARK    3  A    between atoms: C_11  and  O_12
REMARK    4  A    between atoms: N_13  and  C_14
REMARK    5  A    between atoms: N_13  and  C_20
REMARK                            x       y       z     vdW  Elec       q    Type
REMARK                         _______ _______ _______ _____ _____    ______ ____
ROOT
ATOM      1  O   UNL     1       3.361   7.977  18.124  0.00  0.00    +0.000 OA
ATOM      2  C   UNL     1       2.954   7.033  18.809  0.00  0.00    +0.000 C 
ATOM      3  N   UNL     1       2.032   7.220  19.836  0.00  0.00    +0.000 N 
ATOM      4  N   UNL     1       3.411   5.709  18.629  0.00  0.00    +0.000 N 
ATOM      5  H   UNL     1       1.945   6.524  20.565  0.00  0.00    +0.000 HD
ENDROOT
BRANCH   4   6
ATOM      6  C   UNL     1       4.622   5.541  17.877  0.00  0.00    +0.000 A 
ATOM      7  C   UNL     1       4.557   5.355  16.488  0.00  0.00    +0.000 A 
ATOM      8  C   UNL     1       5.725   5.214  15.737  0.00  0.00    +0.000 A 
ATOM      9  C   UNL     1       6.967   5.221  16.370  0.00  0.00    +0.000 A 
ATOM     10  C   UNL     1       7.044   5.375  17.752  0.00  0.00    +0.000 A 
ATOM     11  C   UNL     1       5.877   5.543  18.504  0.00  0.00    +0.000 A 
ENDBRANCH   4   6
BRANCH   4  12
ATOM     12  C   UNL     1       2.731   4.506  19.035  0.00  0.00    +0.000 A 
ATOM     13  C   UNL     1       3.039   3.841  20.232  0.00  0.00    +0.000 A 
ATOM     14  C   UNL     1       2.402   2.643  20.580  0.00  0.00    +0.000 A 
ATOM     15  C   UNL     1       1.421   2.102  19.755  0.00  0.00    +0.000 A 
ATOM     16  C   UNL     1       1.073   2.758  18.582  0.00  0.00    +0.000 A 
ATOM     17  C   UNL     1       1.726   3.941  18.223  0.00  0.00    +0.000 A 
ENDBRANCH   4  12
BRANCH   3  18
ATOM     18  N   UNL     1       1.497   8.462  20.026  0.00  0.00    +0.000 NA
ATOM     19  C   UNL     1       0.827   8.663  21.114  0.00  0.00    +0.000 C 
BRANCH  19  20
ATOM     20  C   UNL     1       0.214   9.985  21.383  0.00  0.00    +0.000 A 
ATOM     21  C   UNL     1       0.285  10.989  20.407  0.00  0.00    +0.000 A 
ATOM     22  C   UNL     1      -0.295  12.237  20.636  0.00  0.00    +0.000 A 
ATOM     23  C   UNL     1      -0.948  12.490  21.843  0.00  0.00    +0.000 A 
ATOM     24  C   UNL     1      -1.021  11.497  22.820  0.00  0.00    +0.000 A 
ATOM     25  C   UNL     1      -0.440  10.244  22.591  0.00  0.00    +0.000 A 
BRANCH  25  26
ATOM     26  O   UNL     1      -0.521   9.275  23.552  0.00  0.00    +0.000 OA
ATOM     27  H   UNL     1      -0.375   9.682  24.424  0.00  0.00    +0.000 HD
ENDBRANCH  25  26
ENDBRANCH  19  20
ENDBRANCH   3  18
TORSDOF 5
ENDMDL
