MODEL 1
REMARK VINA RESULT:      -6.3      0.000      0.000
REMARK  Name = 
REMARK  3 active torsions:
REMARK  status: ('A' for Active; 'I' for Inactive)
REMARK    1  A    between atoms: C_1  and  N_2
REMARK    2  A    between atoms: N_11  and  C_12
REMARK    3  A    between atoms: C_12  and  C_13
REMARK                            x       y       z     vdW  Elec       q    Type
REMARK                         _______ _______ _______ _____ _____    ______ ____
ROOT
ATOM      1  C   UNL     1       2.651   4.479  21.325  0.00  0.00    +0.000 C 
ATOM      2  N   UNL     1       2.236   4.234  19.957  0.00  0.00    +0.000 N 
ATOM      3  C   UNL     1       1.638   3.045  19.569  0.00  0.00    +0.000 C 
ATOM      4  O   UNL     1       1.279   2.138  20.302  0.00  0.00    +0.000 OA
ATOM      5  C   UNL     1       1.561   3.018  18.070  0.00  0.00    +0.000 C 
ATOM      6  C   UNL     1       1.788   4.470  17.670  0.00  0.00    +0.000 C 
ATOM      7  C   UNL     1       2.598   5.096  18.828  0.00  0.00    +0.000 C 
ATOM      8  C   UNL     1       2.156   6.553  19.066  0.00  0.00    +0.000 C 
ATOM      9  C   UNL     1       2.564   7.447  17.904  0.00  0.00    +0.000 C 
ATOM     10  C   UNL     1       4.065   7.353  17.639  0.00  0.00    +0.000 C 
ATOM     11  N   UNL     1       4.495   5.965  17.385  0.00  0.00    +0.000 NA
ATOM     12  C   UNL     1       4.126   5.081  18.514  0.00  0.00    +0.000 C 
ENDROOT
BRANCH  11  13
ATOM     13  C   UNL     1       5.963   5.906  17.152  0.00  0.00    +0.000 C 
BRANCH  13  14
ATOM     14  C   UNL     1       6.338   5.276  15.828  0.00  0.00    +0.000 A 
ATOM     15  N   UNL     1       7.419   5.590  15.138  0.00  0.00    +0.000 NA
ATOM     16  C   UNL     1       7.429   4.897  13.944  0.00  0.00    +0.000 A 
ATOM     17  C   UNL     1       6.378   4.029  13.753  0.00  0.00    +0.000 A 
ATOM     18  S   UNL     1       5.322   4.090  15.101  0.00  0.00    +0.000 S 
ENDBRANCH  13  14
ENDBRANCH  11  13
TORSDOF 2
ENDMDL
MODEL 2
REMARK VINA RESULT:      -6.1      2.832      5.504
REMARK  Name = 
REMARK  3 active torsions:
REMARK  status: ('A' for Active; 'I' for Inactive)
REMARK    1  A    between atoms: C_1  and  N_2
REMARK    2  A    between atoms: N_11  and  C_12
REMARK    3  A    between atoms: C_12  and  C_13
REMARK                            x       y       z     vdW  Elec       q    Type
REMARK                         _______ _______ _______ _____ _____    ______ ____
ROOT
ATOM      1  C   UNL     1       5.574   3.898  15.970  0.00  0.00    +0.000 C 
ATOM      2  N   UNL     1       6.099   4.873  16.907  0.00  0.00    +0.000 N 
ATOM      3  C   UNL     1       7.397   4.811  17.387  0.00  0.00    +0.000 C 
ATOM      4  O   UNL     1       8.275   4.048  17.017  0.00  0.00    +0.000 OA
ATOM      5  C   UNL     1       7.539   5.803  18.506  0.00  0.00    +0.000 C 
ATOM      6  C   UNL     1       6.332   6.716  18.334  0.00  0.00    +0.000 C 
ATOM      7  C   UNL     1       5.271   5.865  17.601  0.00  0.00    +0.000 C 
ATOM      8  C   UNL     1       4.479   6.735  16.605  0.00  0.00    +0.000 C 
ATOM      9  C   UNL     1       3.599   7.740  17.333  0.00  0.00    +0.000 C 
ATOM     10  C   UNL     1       2.672   7.040  18.326  0.00  0.00    +0.000 C 
ATOM     11  N   UNL     1       3.421   6.223  19.299  0.00  0.00    +0.000 NA
ATOM     12  C   UNL     1       4.271   5.224  18.611  0.00  0.00    +0.000 C 
ENDROOT
BRANCH  11  13
ATOM     13  C   UNL     1       2.490   5.540  20.236  0.00  0.00    +0.000 C 
BRANCH  13  14
ATOM     14  C   UNL     1       2.076   4.160  19.777  0.00  0.00    +0.000 A 
ATOM     15  N   UNL     1       1.232   3.930  18.787  0.00  0.00    +0.000 NA
ATOM     16  C   UNL     1       1.005   2.573  18.672  0.00  0.00    +0.000 A 
ATOM     17  C   UNL     1       1.712   1.777  19.545  0.00  0.00    +0.000 A 
ATOM     18  S   UNL     1       2.681   2.753  20.566  0.00  0.00    +0.000 S 
ENDBRANCH  13  14
ENDBRANCH  11  13
TORSDOF 2
ENDMDL
MODEL 3
REMARK VINA RESULT:      -6.0      2.739      5.924
REMARK  Name = 
REMARK  3 active torsions:
REMARK  status: ('A' for Active; 'I' for Inactive)
REMARK    1  A    between atoms: C_1  and  N_2
REMARK    2  A    between atoms: N_11  and  C_12
REMARK    3  A    between atoms: C_12  and  C_13
REMARK                            x       y       z     vdW  Elec       q    Type
REMARK                         _______ _______ _______ _____ _____    ______ ____
ROOT
ATOM      1  C   UNL     1       5.632   5.133  14.732  0.00  0.00    +0.000 C 
ATOM      2  N   UNL     1       5.939   5.318  16.137  0.00  0.00    +0.000 N 
ATOM      3  C   UNL     1       7.111   4.845  16.705  0.00  0.00    +0.000 C 
ATOM      4  O   UNL     1       8.056   4.345  16.116  0.00  0.00    +0.000 OA
ATOM      5  C   UNL     1       7.005   4.982  18.197  0.00  0.00    +0.000 C 
ATOM      6  C   UNL     1       5.849   5.953  18.390  0.00  0.00    +0.000 C 
ATOM      7  C   UNL     1       4.973   5.810  17.125  0.00  0.00    +0.000 C 
ATOM      8  C   UNL     1       4.394   7.178  16.715  0.00  0.00    +0.000 C 
ATOM      9  C   UNL     1       3.369   7.666  17.728  0.00  0.00    +0.000 C 
ATOM     10  C   UNL     1       2.266   6.629  17.937  0.00  0.00    +0.000 C 
ATOM     11  N   UNL     1       2.808   5.322  18.353  0.00  0.00    +0.000 NA
ATOM     12  C   UNL     1       3.794   4.819  17.369  0.00  0.00    +0.000 C 
ENDROOT
BRANCH  11  13
ATOM     13  C   UNL     1       1.712   4.332  18.527  0.00  0.00    +0.000 C 
BRANCH  13  14
ATOM     14  C   UNL     1       1.824   3.526  19.802  0.00  0.00    +0.000 A 
ATOM     15  N   UNL     1       0.855   3.407  20.692  0.00  0.00    +0.000 NA
ATOM     16  C   UNL     1       1.301   2.674  21.774  0.00  0.00    +0.000 A 
ATOM     17  C   UNL     1       2.592   2.203  21.680  0.00  0.00    +0.000 A 
ATOM     18  S   UNL     1       3.288   2.709  20.198  0.00  0.00    +0.000 S 
ENDBRANCH  13  14
ENDBRANCH  11  13
TORSDOF 2
ENDMDL
MODEL 4
REMARK VINA RESULT:      -6.0      3.434      5.826
REMARK  Name = 
REMARK  3 active torsions:
REMARK  status: ('A' for Active; 'I' for Inactive)
REMARK    1  A    between atoms: C_1  and  N_2
REMARK    2  A    between atoms: N_11  and  C_12
REMARK    3  A    between atoms: C_12  and  C_13
REMARK                            x       y       z     vdW  Elec       q    Type
REMARK                         _______ _______ _______ _____ _____    ______ ____
ROOT
ATOM      1  C   UNL     1       7.322   5.505  19.063  0.00  0.00    +0.000 C 
ATOM      2  N   UNL     1       6.301   5.424  18.037  0.00  0.00    +0.000 N 
ATOM      3  C   UNL     1       6.508   5.897  16.750  0.00  0.00    +0.000 C 
ATOM      4  O   UNL     1       7.559   6.310  16.287  0.00  0.00    +0.000 OA
ATOM      5  C   UNL     1       5.195   5.888  16.023  0.00  0.00    +0.000 C 
ATOM      6  C   UNL     1       4.316   4.981  16.873  0.00  0.00    +0.000 C 
ATOM      7  C   UNL     1       4.907   5.053  18.300  0.00  0.00    +0.000 C 
ATOM      8  C   UNL     1       4.810   3.679  18.992  0.00  0.00    +0.000 C 
ATOM      9  C   UNL     1       3.363   3.317  19.291  0.00  0.00    +0.000 C 
ATOM     10  C   UNL     1       2.682   4.408  20.114  0.00  0.00    +0.000 C 
ATOM     11  N   UNL     1       2.747   5.723  19.449  0.00  0.00    +0.000 NA
ATOM     12  C   UNL     1       4.150   6.105  19.167  0.00  0.00    +0.000 C 
ENDROOT
BRANCH  11  13
ATOM     13  C   UNL     1       2.094   6.766  20.285  0.00  0.00    +0.000 C 
BRANCH  13  14
ATOM     14  C   UNL     1       1.754   8.026  19.521  0.00  0.00    +0.000 A 
ATOM     15  N   UNL     1       2.077   8.238  18.258  0.00  0.00    +0.000 NA
ATOM     16  C   UNL     1       1.693   9.510  17.883  0.00  0.00    +0.000 A 
ATOM     17  C   UNL     1       1.041  10.241  18.851  0.00  0.00    +0.000 A 
ATOM     18  S   UNL     1       0.919   9.322  20.291  0.00  0.00    +0.000 S 
ENDBRANCH  13  14
ENDBRANCH  11  13
TORSDOF 2
ENDMDL
MODEL 5
REMARK VINA RESULT:      -5.9      1.746      2.339
REMARK  Name = 
REMARK  3 active torsions:
REMARK  status: ('A' for Active; 'I' for Inactive)
REMARK    1  A    between atoms: C_1  and  N_2
REMARK    2  A    between atoms: N_11  and  C_12
REMARK    3  A    between atoms: C_12  and  C_13
REMARK                            x       y       z     vdW  Elec       q    Type
REMARK                         _______ _______ _______ _____ _____    ______ ____
ROOT
ATOM      1  C   UNL     1       2.721   4.380  21.349  0.00  0.00    +0.000 C 
ATOM      2  N   UNL     1       2.128   4.165  20.043  0.00  0.00    +0.000 N 
ATOM      3  C   UNL     1       1.345   3.057  19.761  0.00  0.00    +0.000 C 
ATOM      4  O   UNL     1       0.961   2.215  20.557  0.00  0.00    +0.000 OA
ATOM      5  C   UNL     1       1.098   3.013  18.280  0.00  0.00    +0.000 C 
ATOM      6  C   UNL     1       1.458   4.417  17.812  0.00  0.00    +0.000 C 
ATOM      7  C   UNL     1       2.465   4.954  18.854  0.00  0.00    +0.000 C 
ATOM      8  C   UNL     1       2.238   6.460  19.093  0.00  0.00    +0.000 C 
ATOM      9  C   UNL     1       2.622   7.274  17.866  0.00  0.00    +0.000 C 
ATOM     10  C   UNL     1       4.060   6.984  17.442  0.00  0.00    +0.000 C 
ATOM     11  N   UNL     1       4.282   5.549  17.186  0.00  0.00    +0.000 NA
ATOM     12  C   UNL     1       3.934   4.738  18.376  0.00  0.00    +0.000 C 
ENDROOT
BRANCH  11  13
ATOM     13  C   UNL     1       5.695   5.298  16.796  0.00  0.00    +0.000 C 
BRANCH  13  14
ATOM     14  C   UNL     1       6.672   6.280  17.403  0.00  0.00    +0.000 A 
ATOM     15  N   UNL     1       6.976   7.450  16.871  0.00  0.00    +0.000 NA
ATOM     16  C   UNL     1       7.953   8.068  17.626  0.00  0.00    +0.000 A 
ATOM     17  C   UNL     1       8.354   7.384  18.751  0.00  0.00    +0.000 A 
ATOM     18  S   UNL     1       7.500   5.903  18.867  0.00  0.00    +0.000 S 
ENDBRANCH  13  14
ENDBRANCH  11  13
TORSDOF 2
ENDMDL
MODEL 6
REMARK VINA RESULT:      -5.8      3.222      5.996
REMARK  Name = 
REMARK  3 active torsions:
REMARK  status: ('A' for Active; 'I' for Inactive)
REMARK    1  A    between atoms: C_1  and  N_2
REMARK    2  A    between atoms: N_11  and  C_12
REMARK    3  A    between atoms: C_12  and  C_13
REMARK                            x       y       z     vdW  Elec       q    Type
REMARK                         _______ _______ _______ _____ _____    ______ ____
ROOT
ATOM      1  C   UNL     1       7.798   5.443  19.762  0.00  0.00    +0.000 C 
ATOM      2  N   UNL     1       7.443   6.182  18.565  0.00  0.00    +0.000 N 
ATOM      3  C   UNL     1       7.944   7.447  18.303  0.00  0.00    +0.000 C 
ATOM      4  O   UNL     1       8.804   8.036  18.939  0.00  0.00    +0.000 OA
ATOM      5  C   UNL     1       7.199   8.021  17.133  0.00  0.00    +0.000 C 
ATOM      6  C   UNL     1       6.527   6.809  16.502  0.00  0.00    +0.000 C 
ATOM      7  C   UNL     1       6.374   5.780  17.646  0.00  0.00    +0.000 C 
ATOM      8  C   UNL     1       6.594   4.350  17.114  0.00  0.00    +0.000 C 
ATOM      9  C   UNL     1       5.464   3.929  16.187  0.00  0.00    +0.000 C 
ATOM     10  C   UNL     1       4.107   4.069  16.874  0.00  0.00    +0.000 C 
ATOM     11  N   UNL     1       3.876   5.440  17.365  0.00  0.00    +0.000 NA
ATOM     12  C   UNL     1       4.955   5.863  18.287  0.00  0.00    +0.000 C 
ENDROOT
BRANCH  11  13
ATOM     13  C   UNL     1       2.557   5.537  18.047  0.00  0.00    +0.000 C 
BRANCH  13  14
ATOM     14  C   UNL     1       2.072   4.220  18.612  0.00  0.00    +0.000 A 
ATOM     15  N   UNL     1       1.241   3.406  17.987  0.00  0.00    +0.000 NA
ATOM     16  C   UNL     1       0.935   2.334  18.801  0.00  0.00    +0.000 A 
ATOM     17  C   UNL     1       1.570   2.317  20.022  0.00  0.00    +0.000 A 
ATOM     18  S   UNL     1       2.571   3.699  20.177  0.00  0.00    +0.000 S 
ENDBRANCH  13  14
ENDBRANCH  11  13
TORSDOF 2
ENDMDL
MODEL 7
REMARK VINA RESULT:      -5.7      2.064      3.309
REMARK  Name = 
REMARK  3 active torsions:
REMARK  status: ('A' for Active; 'I' for Inactive)
REMARK    1  A    between atoms: C_1  and  N_2
REMARK    2  A    between atoms: N_11  and  C_12
REMARK    3  A    between atoms: C_12  and  C_13
REMARK                            x       y       z     vdW  Elec       q    Type
REMARK                         _______ _______ _______ _____ _____    ______ ____
ROOT
ATOM      1  C   UNL     1       3.288   4.475  19.923  0.00  0.00    +0.000 C 
ATOM      2  N   UNL     1       3.682   5.626  19.133  0.00  0.00    +0.000 N 
ATOM      3  C   UNL     1       2.826   6.692  18.902  0.00  0.00    +0.000 C 
ATOM      4  O   UNL     1       1.727   6.865  19.404  0.00  0.00    +0.000 OA
ATOM      5  C   UNL     1       3.445   7.582  17.864  0.00  0.00    +0.000 C 
ATOM      6  C   UNL     1       4.904   7.148  17.837  0.00  0.00    +0.000 C 
ATOM      7  C   UNL     1       4.908   5.683  18.331  0.00  0.00    +0.000 C 
ATOM      8  C   UNL     1       6.158   5.410  19.190  0.00  0.00    +0.000 C 
ATOM      9  C   UNL     1       7.423   5.439  18.344  0.00  0.00    +0.000 C 
ATOM     10  C   UNL     1       7.323   4.463  17.173  0.00  0.00    +0.000 C 
ATOM     11  N   UNL     1       6.143   4.731  16.330  0.00  0.00    +0.000 NA
ATOM     12  C   UNL     1       4.898   4.688  17.130  0.00  0.00    +0.000 C 
ENDROOT
BRANCH  11  13
ATOM     13  C   UNL     1       6.064   3.752  15.212  0.00  0.00    +0.000 C 
BRANCH  13  14
ATOM     14  C   UNL     1       6.720   4.237  13.939  0.00  0.00    +0.000 A 
ATOM     15  N   UNL     1       7.564   5.251  13.878  0.00  0.00    +0.000 NA
ATOM     16  C   UNL     1       7.920   5.487  12.565  0.00  0.00    +0.000 A 
ATOM     17  C   UNL     1       7.378   4.623  11.640  0.00  0.00    +0.000 A 
ATOM     18  S   UNL     1       6.370   3.484  12.429  0.00  0.00    +0.000 S 
ENDBRANCH  13  14
ENDBRANCH  11  13
TORSDOF 2
ENDMDL
MODEL 8
REMARK VINA RESULT:      -5.7      3.222      6.054
REMARK  Name = 
REMARK  3 active torsions:
REMARK  status: ('A' for Active; 'I' for Inactive)
REMARK    1  A    between atoms: C_1  and  N_2
REMARK    2  A    between atoms: N_11  and  C_12
REMARK    3  A    between atoms: C_12  and  C_13
REMARK                            x       y       z     vdW  Elec       q    Type
REMARK                         _______ _______ _______ _____ _____    ______ ____
ROOT
ATOM      1  C   UNL     1       7.552   5.388  19.776  0.00  0.00    +0.000 C 
ATOM      2  N   UNL     1       7.113   6.046  18.561  0.00  0.00    +0.000 N 
ATOM      3  C   UNL     1       7.640   7.259  18.146  0.00  0.00    +0.000 C 
ATOM      4  O   UNL     1       8.583   7.852  18.645  0.00  0.00    +0.000 OA
ATOM      5  C   UNL     1       6.808   7.774  17.007  0.00  0.00    +0.000 C 
ATOM      6  C   UNL     1       6.026   6.552  16.548  0.00  0.00    +0.000 C 
ATOM      7  C   UNL     1       5.942   5.627  17.784  0.00  0.00    +0.000 C 
ATOM      8  C   UNL     1       6.047   4.150  17.357  0.00  0.00    +0.000 C 
ATOM      9  C   UNL     1       4.814   3.714  16.579  0.00  0.00    +0.000 C 
ATOM     10  C   UNL     1       3.539   3.977  17.379  0.00  0.00    +0.000 C 
ATOM     11  N   UNL     1       3.416   5.394  17.771  0.00  0.00    +0.000 NA
ATOM     12  C   UNL     1       4.598   5.834  18.548  0.00  0.00    +0.000 C 
ENDROOT
BRANCH  11  13
ATOM     13  C   UNL     1       2.177   5.612  18.564  0.00  0.00    +0.000 C 
BRANCH  13  14
ATOM     14  C   UNL     1       1.983   4.599  19.671  0.00  0.00    +0.000 A 
ATOM     15  N   UNL     1       2.531   4.694  20.868  0.00  0.00    +0.000 NA
ATOM     16  C   UNL     1       2.223   3.574  21.615  0.00  0.00    +0.000 A 
ATOM     17  C   UNL     1       1.406   2.655  20.995  0.00  0.00    +0.000 A 
ATOM     18  S   UNL     1       1.021   3.192  19.414  0.00  0.00    +0.000 S 
ENDBRANCH  13  14
ENDBRANCH  11  13
TORSDOF 2
ENDMDL
MODEL 9
REMARK VINA RESULT:      -5.6      1.796      2.458
REMARK  Name = 
REMARK  3 active torsions:
REMARK  status: ('A' for Active; 'I' for Inactive)
REMARK    1  A    between atoms: C_1  and  N_2
REMARK    2  A    between atoms: N_11  and  C_12
REMARK    3  A    between atoms: C_12  and  C_13
REMARK                            x       y       z     vdW  Elec       q    Type
REMARK                         _______ _______ _______ _____ _____    ______ ____
ROOT
ATOM      1  C   UNL     1       2.752   4.379  21.340  0.00  0.00    +0.000 C 
ATOM      2  N   UNL     1       2.117   4.164  20.054  0.00  0.00    +0.000 N 
ATOM      3  C   UNL     1       1.286   3.081  19.814  0.00  0.00    +0.000 C 
ATOM      4  O   UNL     1       0.891   2.269  20.635  0.00  0.00    +0.000 OA
ATOM      5  C   UNL     1       0.999   3.020  18.341  0.00  0.00    +0.000 C 
ATOM      6  C   UNL     1       1.400   4.400  17.837  0.00  0.00    +0.000 C 
ATOM      7  C   UNL     1       2.454   4.917  18.842  0.00  0.00    +0.000 C 
ATOM      8  C   UNL     1       2.290   6.435  19.057  0.00  0.00    +0.000 C 
ATOM      9  C   UNL     1       2.672   7.211  17.806  0.00  0.00    +0.000 C 
ATOM     10  C   UNL     1       4.087   6.858  17.351  0.00  0.00    +0.000 C 
ATOM     11  N   UNL     1       4.247   5.410  17.118  0.00  0.00    +0.000 NA
ATOM     12  C   UNL     1       3.900   4.636  18.332  0.00  0.00    +0.000 C 
ENDROOT
BRANCH  11  13
ATOM     13  C   UNL     1       5.639   5.098  16.697  0.00  0.00    +0.000 C 
BRANCH  13  14
ATOM     14  C   UNL     1       6.690   5.621  17.651  0.00  0.00    +0.000 A 
ATOM     15  N   UNL     1       7.116   4.967  18.716  0.00  0.00    +0.000 NA
ATOM     16  C   UNL     1       8.014   5.747  19.417  0.00  0.00    +0.000 A 
ATOM     17  C   UNL     1       8.297   6.973  18.857  0.00  0.00    +0.000 A 
ATOM     18  S   UNL     1       7.397   7.175  17.413  0.00  0.00    +0.000 S 
ENDBRANCH  13  14
ENDBRANCH  11  13
TORSDOF 2
ENDMDL
