MODEL 1
REMARK VINA RESULT:      -7.5      0.000      0.000
REMARK  Name = 
REMARK  12 active torsions:
REMARK  status: ('A' for Active; 'I' for Inactive)
REMARK    1  A    between atoms: C_1  and  N_2
REMARK    2  A    between atoms: N_2  and  C_3
REMARK    3  A    between atoms: C_3  and  C_4
REMARK    4  A    between atoms: C_3  and  C_5
REMARK    5  A    between atoms: N_7  and  C_8
REMARK    6  A    between atoms: C_8  and  C_9
REMARK    7  A    between atoms: C_8  and  C_31
REMARK    8  A    between atoms: C_17  and  N_18
REMARK    9  A    between atoms: C_19  and  C_21
REMARK   10  A    between atoms: C_31  and  C_32
REMARK   11  A    between atoms: C_31  and  C_33
REMARK   12  A    between atoms: C_31  and  C_34
REMARK                            x       y       z     vdW  Elec       q    Type
REMARK                         _______ _______ _______ _____ _____    ______ ____
ROOT
ATOM      1  C   UNL     1       4.602   4.843  17.407  0.00  0.00    +0.000 C 
ATOM      2  O   UNL     1       4.007   5.857  17.019  0.00  0.00    +0.000 OA
ATOM      3  N   UNL     1       3.905   3.826  18.046  0.00  0.00    +0.000 N 
ATOM      4  C   UNL     1       4.456   2.623  18.655  0.00  0.00    +0.000 C 
ATOM      5  C   UNL     1       3.310   1.616  18.728  0.00  0.00    +0.000 C 
ATOM      6  C   UNL     1       2.147   2.265  17.976  0.00  0.00    +0.000 C 
ATOM      7  C   UNL     1       0.796   2.046  18.640  0.00  0.00    +0.000 C 
ATOM      8  C   UNL     1       0.540   3.274  19.508  0.00  0.00    +0.000 C 
ATOM      9  C   UNL     1       1.777   4.181  19.389  0.00  0.00    +0.000 C 
ATOM     10  C   UNL     1       2.440   3.763  18.056  0.00  0.00    +0.000 C 
ENDROOT
BRANCH   9  11
ATOM     11  N   UNL     1       1.416   5.585  19.421  0.00  0.00    +0.000 N 
ATOM     12  C   UNL     1       2.291   6.542  19.888  0.00  0.00    +0.000 C 
ATOM     13  O   UNL     1       3.427   6.296  20.287  0.00  0.00    +0.000 OA
ATOM     14  H   UNL     1       0.635   5.871  18.840  0.00  0.00    +0.000 HD
BRANCH  12  15
ATOM     15  C   UNL     1       1.790   7.938  19.883  0.00  0.00    +0.000 A 
ATOM     16  C   UNL     1       1.788   8.635  18.635  0.00  0.00    +0.000 A 
ATOM     17  C   UNL     1       1.307   9.950  18.488  0.00  0.00    +0.000 A 
ATOM     18  C   UNL     1       0.839  10.532  19.680  0.00  0.00    +0.000 A 
ATOM     19  N   UNL     1       0.314  11.745  19.883  0.00  0.00    +0.000 NA
ATOM     20  O   UNL     1       0.031  11.813  21.236  0.00  0.00    +0.000 OA
ATOM     21  N   UNL     1       0.378  10.646  21.896  0.00  0.00    +0.000 NA
ATOM     22  C   UNL     1       0.873   9.832  20.957  0.00  0.00    +0.000 A 
ATOM     23  C   UNL     1       1.362   8.523  21.092  0.00  0.00    +0.000 A 
ENDBRANCH  12  15
ENDBRANCH   9  11
BRANCH   1  24
ATOM     24  C   UNL     1       6.143   4.659  17.130  0.00  0.00    +0.000 C 
BRANCH  24  27
ATOM     25  C   UNL     1       6.272   4.201  14.665  0.00  0.00    +0.000 C 
ATOM     26  O   UNL     1       5.888   3.039  14.792  0.00  0.00    +0.000 OA
ATOM     27  N   UNL     1       6.431   5.056  15.737  0.00  0.00    +0.000 N 
ATOM     28  H   UNL     1       6.579   6.038  15.516  0.00  0.00    +0.000 HD
BRANCH  25  29
ATOM     29  C   UNL     1       6.695   4.767  13.285  0.00  0.00    +0.000 C 
ATOM     30  C   UNL     1       6.711   3.639  12.248  0.00  0.00    +0.000 C 
BRANCH  29  32
ATOM     31  C   UNL     1       8.369   6.126  12.145  0.00  0.00    +0.000 C 
ATOM     32  N   UNL     1       8.012   5.447  13.392  0.00  0.00    +0.000 NA
ATOM     33  H   UNL     1       7.930   6.156  14.123  0.00  0.00    +0.000 HD
ENDBRANCH  29  32
ENDBRANCH  25  29
ENDBRANCH  24  27
BRANCH  24  34
ATOM     34  C   UNL     1       7.126   5.356  18.130  0.00  0.00    +0.000 C 
ATOM     35  C   UNL     1       8.440   4.564  18.269  0.00  0.00    +0.000 C 
ATOM     36  C   UNL     1       7.497   6.759  17.583  0.00  0.00    +0.000 C 
ATOM     37  C   UNL     1       6.527   5.547  19.534  0.00  0.00    +0.000 C 
ENDBRANCH  24  34
ENDBRANCH   1  24
TORSDOF 7
ENDMDL
MODEL 2
REMARK VINA RESULT:      -7.2      0.602      1.175
REMARK  Name = 
REMARK  12 active torsions:
REMARK  status: ('A' for Active; 'I' for Inactive)
REMARK    1  A    between atoms: C_1  and  N_2
REMARK    2  A    between atoms: N_2  and  C_3
REMARK    3  A    between atoms: C_3  and  C_4
REMARK    4  A    between atoms: C_3  and  C_5
REMARK    5  A    between atoms: N_7  and  C_8
REMARK    6  A    between atoms: C_8  and  C_9
REMARK    7  A    between atoms: C_8  and  C_31
REMARK    8  A    between atoms: C_17  and  N_18
REMARK    9  A    between atoms: C_19  and  C_21
REMARK   10  A    between atoms: C_31  and  C_32
REMARK   11  A    between atoms: C_31  and  C_33
REMARK   12  A    between atoms: C_31  and  C_34
REMARK                            x       y       z     vdW  Elec       q    Type
REMARK                         _______ _______ _______ _____ _____    ______ ____
ROOT
ATOM      1  C   UNL     1       4.561   4.838  17.465  0.00  0.00    +0.000 C 
ATOM      2  O   UNL     1       3.950   5.858  17.120  0.00  0.00    +0.000 OA
ATOM      3  N   UNL     1       3.883   3.787  18.069  0.00  0.00    +0.000 N 
ATOM      4  C   UNL     1       4.455   2.570  18.627  0.00  0.00    +0.000 C 
ATOM      5  C   UNL     1       3.325   1.544  18.668  0.00  0.00    +0.000 C 
ATOM      6  C   UNL     1       2.147   2.204  17.948  0.00  0.00    +0.000 C 
ATOM      7  C   UNL     1       0.804   1.941  18.611  0.00  0.00    +0.000 C 
ATOM      8  C   UNL     1       0.537   3.130  19.528  0.00  0.00    +0.000 C 
ATOM      9  C   UNL     1       1.760   4.058  19.437  0.00  0.00    +0.000 C 
ATOM     10  C   UNL     1       2.420   3.702  18.085  0.00  0.00    +0.000 C 
ENDROOT
BRANCH   9  11
ATOM     11  N   UNL     1       1.378   5.455  19.525  0.00  0.00    +0.000 N 
ATOM     12  C   UNL     1       2.247   6.408  20.012  0.00  0.00    +0.000 C 
ATOM     13  O   UNL     1       3.393   6.165  20.383  0.00  0.00    +0.000 OA
ATOM     14  H   UNL     1       0.583   5.750  18.967  0.00  0.00    +0.000 HD
BRANCH  12  15
ATOM     15  C   UNL     1       1.726   7.795  20.066  0.00  0.00    +0.000 A 
ATOM     16  C   UNL     1       1.107   8.222  21.281  0.00  0.00    +0.000 A 
ATOM     17  C   UNL     1       0.603   9.523  21.474  0.00  0.00    +0.000 A 
ATOM     18  C   UNL     1       0.745  10.370  20.359  0.00  0.00    +0.000 A 
ATOM     19  N   UNL     1       0.388  11.651  20.216  0.00  0.00    +0.000 NA
ATOM     20  O   UNL     1       0.744  11.999  18.924  0.00  0.00    +0.000 OA
ATOM     21  N   UNL     1       1.324  10.942  18.244  0.00  0.00    +0.000 NA
ATOM     22  C   UNL     1       1.346   9.923  19.111  0.00  0.00    +0.000 A 
ATOM     23  C   UNL     1       1.838   8.621  18.928  0.00  0.00    +0.000 A 
ENDBRANCH  12  15
ENDBRANCH   9  11
BRANCH   1  24
ATOM     24  C   UNL     1       6.103   4.687  17.172  0.00  0.00    +0.000 C 
BRANCH  24  27
ATOM     25  C   UNL     1       6.293   4.246  14.708  0.00  0.00    +0.000 C 
ATOM     26  O   UNL     1       6.003   3.057  14.830  0.00  0.00    +0.000 OA
ATOM     27  N   UNL     1       6.371   5.110  15.783  0.00  0.00    +0.000 N 
ATOM     28  H   UNL     1       6.441   6.100  15.563  0.00  0.00    +0.000 HD
BRANCH  25  29
ATOM     29  C   UNL     1       6.681   4.848  13.332  0.00  0.00    +0.000 C 
ATOM     30  C   UNL     1       6.772   3.729  12.289  0.00  0.00    +0.000 C 
BRANCH  29  32
ATOM     31  C   UNL     1       8.422   6.069  12.140  0.00  0.00    +0.000 C 
ATOM     32  N   UNL     1       7.951   5.610  13.447  0.00  0.00    +0.000 NA
ATOM     33  H   UNL     1       7.761   6.435  14.019  0.00  0.00    +0.000 HD
ENDBRANCH  29  32
ENDBRANCH  25  29
ENDBRANCH  24  27
BRANCH  24  34
ATOM     34  C   UNL     1       7.082   5.390  18.173  0.00  0.00    +0.000 C 
ATOM     35  C   UNL     1       8.411   4.621  18.290  0.00  0.00    +0.000 C 
ATOM     36  C   UNL     1       7.422   6.807  17.642  0.00  0.00    +0.000 C 
ATOM     37  C   UNL     1       6.492   5.551  19.584  0.00  0.00    +0.000 C 
ENDBRANCH  24  34
ENDBRANCH   1  24
TORSDOF 7
ENDMDL
MODEL 3
REMARK VINA RESULT:      -6.5      5.087     12.050
REMARK  Name = 
REMARK  12 active torsions:
REMARK  status: ('A' for Active; 'I' for Inactive)
REMARK    1  A    between atoms: C_1  and  N_2
REMARK    2  A    between atoms: N_2  and  C_3
REMARK    3  A    between atoms: C_3  and  C_4
REMARK    4  A    between atoms: C_3  and  C_5
REMARK    5  A    between atoms: N_7  and  C_8
REMARK    6  A    between atoms: C_8  and  C_9
REMARK    7  A    between atoms: C_8  and  C_31
REMARK    8  A    between atoms: C_17  and  N_18
REMARK    9  A    between atoms: C_19  and  C_21
REMARK   10  A    between atoms: C_31  and  C_32
REMARK   11  A    between atoms: C_31  and  C_33
REMARK   12  A    between atoms: C_31  and  C_34
REMARK                            x       y       z     vdW  Elec       q    Type
REMARK                         _______ _______ _______ _____ _____    ______ ____
ROOT
ATOM      1  C   UNL     1      -2.637  13.332  20.910  0.00  0.00    +0.000 C 
ATOM      2  O   UNL     1      -2.556  12.362  20.146  0.00  0.00    +0.000 OA
ATOM      3  N   UNL     1      -1.775  14.411  20.765  0.00  0.00    +0.000 N 
ATOM      4  C   UNL     1      -1.662  15.576  21.631  0.00  0.00    +0.000 C 
ATOM      5  C   UNL     1      -1.007  16.672  20.793  0.00  0.00    +0.000 C 
ATOM      6  C   UNL     1      -0.919  16.105  19.375  0.00  0.00    +0.000 C 
ATOM      7  C   UNL     1       0.383  16.440  18.664  0.00  0.00    +0.000 C 
ATOM      8  C   UNL     1       1.312  15.250  18.886  0.00  0.00    +0.000 C 
ATOM      9  C   UNL     1       0.561  14.247  19.778  0.00  0.00    +0.000 C 
ATOM     10  C   UNL     1      -0.934  14.590  19.577  0.00  0.00    +0.000 C 
ENDROOT
BRANCH   9  11
ATOM     11  N   UNL     1       0.875  12.877  19.423  0.00  0.00    +0.000 N 
ATOM     12  C   UNL     1       0.891  11.874  20.370  0.00  0.00    +0.000 C 
ATOM     13  O   UNL     1       0.626  12.049  21.557  0.00  0.00    +0.000 OA
ATOM     14  H   UNL     1       0.804  12.629  18.442  0.00  0.00    +0.000 HD
BRANCH  12  15
ATOM     15  C   UNL     1       1.246  10.522  19.877  0.00  0.00    +0.000 A 
ATOM     16  C   UNL     1       1.619  10.395  18.503  0.00  0.00    +0.000 A 
ATOM     17  C   UNL     1       2.010   9.175  17.920  0.00  0.00    +0.000 A 
ATOM     18  C   UNL     1       1.991   8.079  18.803  0.00  0.00    +0.000 A 
ATOM     19  N   UNL     1       2.312   6.801  18.575  0.00  0.00    +0.000 NA
ATOM     20  O   UNL     1       2.106   6.141  19.775  0.00  0.00    +0.000 OA
ATOM     21  N   UNL     1       1.651   6.996  20.764  0.00  0.00    +0.000 NA
ATOM     22  C   UNL     1       1.579   8.204  20.193  0.00  0.00    +0.000 A 
ATOM     23  C   UNL     1       1.183   9.425  20.761  0.00  0.00    +0.000 A 
ENDBRANCH  12  15
ENDBRANCH   9  11
BRANCH   1  24
ATOM     24  C   UNL     1      -3.755  13.389  22.020  0.00  0.00    +0.000 C 
BRANCH  24  27
ATOM     25  C   UNL     1      -6.035  13.200  20.989  0.00  0.00    +0.000 C 
ATOM     26  O   UNL     1      -6.136  14.415  20.825  0.00  0.00    +0.000 OA
ATOM     27  N   UNL     1      -4.925  12.614  21.563  0.00  0.00    +0.000 N 
ATOM     28  H   UNL     1      -4.861  11.601  21.493  0.00  0.00    +0.000 HD
BRANCH  25  29
ATOM     29  C   UNL     1      -7.200  12.237  20.639  0.00  0.00    +0.000 C 
ATOM     30  C   UNL     1      -7.913  11.803  21.925  0.00  0.00    +0.000 C 
BRANCH  29  32
ATOM     31  C   UNL     1      -6.904  11.254  18.427  0.00  0.00    +0.000 C 
ATOM     32  N   UNL     1      -6.690  11.077  19.864  0.00  0.00    +0.000 NA
ATOM     33  H   UNL     1      -5.682  11.022  20.026  0.00  0.00    +0.000 HD
ENDBRANCH  29  32
ENDBRANCH  25  29
ENDBRANCH  24  27
BRANCH  24  34
ATOM     34  C   UNL     1      -3.332  12.969  23.469  0.00  0.00    +0.000 C 
ATOM     35  C   UNL     1      -4.537  12.460  24.280  0.00  0.00    +0.000 C 
ATOM     36  C   UNL     1      -2.315  11.801  23.383  0.00  0.00    +0.000 C 
ATOM     37  C   UNL     1      -2.665  14.108  24.259  0.00  0.00    +0.000 C 
ENDBRANCH  24  34
ENDBRANCH   1  24
TORSDOF 7
ENDMDL
MODEL 4
REMARK VINA RESULT:      -6.5      0.944      1.752
REMARK  Name = 
REMARK  12 active torsions:
REMARK  status: ('A' for Active; 'I' for Inactive)
REMARK    1  A    between atoms: C_1  and  N_2
REMARK    2  A    between atoms: N_2  and  C_3
REMARK    3  A    between atoms: C_3  and  C_4
REMARK    4  A    between atoms: C_3  and  C_5
REMARK    5  A    between atoms: N_7  and  C_8
REMARK    6  A    between atoms: C_8  and  C_9
REMARK    7  A    between atoms: C_8  and  C_31
REMARK    8  A    between atoms: C_17  and  N_18
REMARK    9  A    between atoms: C_19  and  C_21
REMARK   10  A    between atoms: C_31  and  C_32
REMARK   11  A    between atoms: C_31  and  C_33
REMARK   12  A    between atoms: C_31  and  C_34
REMARK                            x       y       z     vdW  Elec       q    Type
REMARK                         _______ _______ _______ _____ _____    ______ ____
ROOT
ATOM      1  C   UNL     1       4.524   4.728  17.557  0.00  0.00    +0.000 C 
ATOM      2  O   UNL     1       3.943   5.758  17.192  0.00  0.00    +0.000 OA
ATOM      3  N   UNL     1       3.811   3.701  18.163  0.00  0.00    +0.000 N 
ATOM      4  C   UNL     1       4.345   2.477  18.743  0.00  0.00    +0.000 C 
ATOM      5  C   UNL     1       3.189   1.480  18.779  0.00  0.00    +0.000 C 
ATOM      6  C   UNL     1       2.038   2.161  18.036  0.00  0.00    +0.000 C 
ATOM      7  C   UNL     1       0.679   1.939  18.683  0.00  0.00    +0.000 C 
ATOM      8  C   UNL     1       0.429   3.146  19.582  0.00  0.00    +0.000 C 
ATOM      9  C   UNL     1       1.677   4.042  19.498  0.00  0.00    +0.000 C 
ATOM     10  C   UNL     1       2.346   3.653  18.159  0.00  0.00    +0.000 C 
ENDROOT
BRANCH   9  11
ATOM     11  N   UNL     1       1.329   5.449  19.564  0.00  0.00    +0.000 N 
ATOM     12  C   UNL     1       2.209   6.383  20.068  0.00  0.00    +0.000 C 
ATOM     13  O   UNL     1       3.338   6.114  20.471  0.00  0.00    +0.000 OA
ATOM     14  H   UNL     1       0.558   5.759  18.984  0.00  0.00    +0.000 HD
BRANCH  12  15
ATOM     15  C   UNL     1       1.723   7.784  20.096  0.00  0.00    +0.000 A 
ATOM     16  C   UNL     1       1.135   8.254  21.311  0.00  0.00    +0.000 A 
ATOM     17  C   UNL     1       0.666   9.571  21.480  0.00  0.00    +0.000 A 
ATOM     18  C   UNL     1       0.811  10.388  20.344  0.00  0.00    +0.000 A 
ATOM     19  N   UNL     1       0.483  11.674  20.176  0.00  0.00    +0.000 NA
ATOM     20  O   UNL     1       0.827  11.983  18.871  0.00  0.00    +0.000 OA
ATOM     21  N   UNL     1       1.370  10.896  18.208  0.00  0.00    +0.000 NA
ATOM     22  C   UNL     1       1.381   9.897  19.097  0.00  0.00    +0.000 A 
ATOM     23  C   UNL     1       1.838   8.579  18.938  0.00  0.00    +0.000 A 
ENDBRANCH  12  15
ENDBRANCH   9  11
BRANCH   1  24
ATOM     24  C   UNL     1       6.065   4.535  17.287  0.00  0.00    +0.000 C 
BRANCH  24  27
ATOM     25  C   UNL     1       6.021   3.617  14.952  0.00  0.00    +0.000 C 
ATOM     26  O   UNL     1       5.539   2.543  15.310  0.00  0.00    +0.000 OA
ATOM     27  N   UNL     1       6.315   4.636  15.835  0.00  0.00    +0.000 N 
ATOM     28  H   UNL     1       6.541   5.539  15.426  0.00  0.00    +0.000 HD
BRANCH  25  29
ATOM     29  C   UNL     1       6.421   3.871  13.475  0.00  0.00    +0.000 C 
ATOM     30  C   UNL     1       7.265   5.147  13.382  0.00  0.00    +0.000 C 
BRANCH  29  32
ATOM     31  C   UNL     1       5.164   2.836  11.659  0.00  0.00    +0.000 C 
ATOM     32  N   UNL     1       5.208   3.939  12.621  0.00  0.00    +0.000 NA
ATOM     33  H   UNL     1       4.397   3.851  13.235  0.00  0.00    +0.000 HD
ENDBRANCH  29  32
ENDBRANCH  25  29
ENDBRANCH  24  27
BRANCH  24  34
ATOM     34  C   UNL     1       7.042   5.458  18.092  0.00  0.00    +0.000 C 
ATOM     35  C   UNL     1       7.291   6.788  17.357  0.00  0.00    +0.000 C 
ATOM     36  C   UNL     1       6.400   5.808  19.460  0.00  0.00    +0.000 C 
ATOM     37  C   UNL     1       8.404   4.800  18.372  0.00  0.00    +0.000 C 
ENDBRANCH  24  34
ENDBRANCH   1  24
TORSDOF 7
ENDMDL
MODEL 5
REMARK VINA RESULT:      -6.4      1.217      1.696
REMARK  Name = 
REMARK  12 active torsions:
REMARK  status: ('A' for Active; 'I' for Inactive)
REMARK    1  A    between atoms: C_1  and  N_2
REMARK    2  A    between atoms: N_2  and  C_3
REMARK    3  A    between atoms: C_3  and  C_4
REMARK    4  A    between atoms: C_3  and  C_5
REMARK    5  A    between atoms: N_7  and  C_8
REMARK    6  A    between atoms: C_8  and  C_9
REMARK    7  A    between atoms: C_8  and  C_31
REMARK    8  A    between atoms: C_17  and  N_18
REMARK    9  A    between atoms: C_19  and  C_21
REMARK   10  A    between atoms: C_31  and  C_32
REMARK   11  A    between atoms: C_31  and  C_33
REMARK   12  A    between atoms: C_31  and  C_34
REMARK                            x       y       z     vdW  Elec       q    Type
REMARK                         _______ _______ _______ _____ _____    ______ ____
ROOT
ATOM      1  C   UNL     1       4.764   5.028  17.687  0.00  0.00    +0.000 C 
ATOM      2  O   UNL     1       4.231   5.948  17.052  0.00  0.00    +0.000 OA
ATOM      3  N   UNL     1       4.029   4.304  18.616  0.00  0.00    +0.000 N 
ATOM      4  C   UNL     1       4.518   3.270  19.518  0.00  0.00    +0.000 C 
ATOM      5  C   UNL     1       3.300   2.441  19.920  0.00  0.00    +0.000 C 
ATOM      6  C   UNL     1       2.146   2.967  19.064  0.00  0.00    +0.000 C 
ATOM      7  C   UNL     1       0.829   3.077  19.817  0.00  0.00    +0.000 C 
ATOM      8  C   UNL     1       0.737   4.517  20.312  0.00  0.00    +0.000 C 
ATOM      9  C   UNL     1       2.034   5.227  19.890  0.00  0.00    +0.000 C 
ATOM     10  C   UNL     1       2.568   4.391  18.704  0.00  0.00    +0.000 C 
ENDROOT
BRANCH   9  11
ATOM     11  N   UNL     1       1.794   6.614  19.537  0.00  0.00    +0.000 N 
ATOM     12  C   UNL     1       1.543   7.567  20.501  0.00  0.00    +0.000 C 
ATOM     13  O   UNL     1       1.523   7.334  21.707  0.00  0.00    +0.000 OA
ATOM     14  H   UNL     1       2.091   6.910  18.614  0.00  0.00    +0.000 HD
BRANCH  12  15
ATOM     15  C   UNL     1       1.296   8.942  20.004  0.00  0.00    +0.000 A 
ATOM     16  C   UNL     1       1.604   9.216  18.636  0.00  0.00    +0.000 A 
ATOM     17  C   UNL     1       1.384  10.470  18.033  0.00  0.00    +0.000 A 
ATOM     18  C   UNL     1       0.847  11.441  18.896  0.00  0.00    +0.000 A 
ATOM     19  N   UNL     1       0.513  12.711  18.641  0.00  0.00    +0.000 NA
ATOM     20  O   UNL     1       0.042  13.225  19.837  0.00  0.00    +0.000 OA
ATOM     21  N   UNL     1       0.079  12.286  20.853  0.00  0.00    +0.000 NA
ATOM     22  C   UNL     1       0.564  11.170  20.298  0.00  0.00    +0.000 A 
ATOM     23  C   UNL     1       0.795   9.918  20.890  0.00  0.00    +0.000 A 
ENDBRANCH  12  15
ENDBRANCH   9  11
BRANCH   1  24
ATOM     24  C   UNL     1       6.262   4.622  17.410  0.00  0.00    +0.000 C 
BRANCH  24  27
ATOM     25  C   UNL     1       6.077   3.686  15.089  0.00  0.00    +0.000 C 
ATOM     26  O   UNL     1       5.459   2.692  15.466  0.00  0.00    +0.000 OA
ATOM     27  N   UNL     1       6.511   4.669  15.955  0.00  0.00    +0.000 N 
ATOM     28  H   UNL     1       6.852   5.528  15.532  0.00  0.00    +0.000 HD
BRANCH  25  29
ATOM     29  C   UNL     1       6.495   3.865  13.606  0.00  0.00    +0.000 C 
ATOM     30  C   UNL     1       7.275   5.174  13.444  0.00  0.00    +0.000 C 
BRANCH  29  32
ATOM     31  C   UNL     1       5.383   2.715  11.765  0.00  0.00    +0.000 C 
ATOM     32  N   UNL     1       5.299   3.815  12.727  0.00  0.00    +0.000 NA
ATOM     33  H   UNL     1       4.488   3.647  13.325  0.00  0.00    +0.000 HD
ENDBRANCH  29  32
ENDBRANCH  25  29
ENDBRANCH  24  27
BRANCH  24  34
ATOM     34  C   UNL     1       7.363   5.413  18.196  0.00  0.00    +0.000 C 
ATOM     35  C   UNL     1       6.931   5.680  19.650  0.00  0.00    +0.000 C 
ATOM     36  C   UNL     1       8.657   4.561  18.254  0.00  0.00    +0.000 C 
ATOM     37  C   UNL     1       7.721   6.760  17.545  0.00  0.00    +0.000 C 
ENDBRANCH  24  34
ENDBRANCH   1  24
TORSDOF 7
ENDMDL
MODEL 6
REMARK VINA RESULT:      -6.3      0.737      1.041
REMARK  Name = 
REMARK  12 active torsions:
REMARK  status: ('A' for Active; 'I' for Inactive)
REMARK    1  A    between atoms: C_1  and  N_2
REMARK    2  A    between atoms: N_2  and  C_3
REMARK    3  A    between atoms: C_3  and  C_4
REMARK    4  A    between atoms: C_3  and  C_5
REMARK    5  A    between atoms: N_7  and  C_8
REMARK    6  A    between atoms: C_8  and  C_9
REMARK    7  A    between atoms: C_8  and  C_31
REMARK    8  A    between atoms: C_17  and  N_18
REMARK    9  A    between atoms: C_19  and  C_21
REMARK   10  A    between atoms: C_31  and  C_32
REMARK   11  A    between atoms: C_31  and  C_33
REMARK   12  A    between atoms: C_31  and  C_34
REMARK                            x       y       z     vdW  Elec       q    Type
REMARK                         _______ _______ _______ _____ _____    ______ ____
ROOT
ATOM      1  C   UNL     1       4.711   4.695  17.475  0.00  0.00    +0.000 C 
ATOM      2  O   UNL     1       4.170   5.711  17.020  0.00  0.00    +0.000 OA
ATOM      3  N   UNL     1       3.950   3.721  18.107  0.00  0.00    +0.000 N 
ATOM      4  C   UNL     1       4.430   2.526  18.786  0.00  0.00    +0.000 C 
ATOM      5  C   UNL     1       3.253   1.554  18.827  0.00  0.00    +0.000 C 
ATOM      6  C   UNL     1       2.154   2.207  17.988  0.00  0.00    +0.000 C 
ATOM      7  C   UNL     1       0.761   2.049  18.580  0.00  0.00    +0.000 C 
ATOM      8  C   UNL     1       0.494   3.313  19.390  0.00  0.00    +0.000 C 
ATOM      9  C   UNL     1       1.761   4.181  19.313  0.00  0.00    +0.000 C 
ATOM     10  C   UNL     1       2.486   3.698  18.035  0.00  0.00    +0.000 C 
ENDROOT
BRANCH   9  11
ATOM     11  N   UNL     1       1.440   5.595  19.276  0.00  0.00    +0.000 N 
ATOM     12  C   UNL     1       2.305   6.542  19.783  0.00  0.00    +0.000 C 
ATOM     13  O   UNL     1       3.399   6.276  20.276  0.00  0.00    +0.000 OA
ATOM     14  H   UNL     1       0.715   5.884  18.629  0.00  0.00    +0.000 HD
BRANCH  12  15
ATOM     15  C   UNL     1       1.847   7.949  19.700  0.00  0.00    +0.000 A 
ATOM     16  C   UNL     1       1.887   8.583  18.419  0.00  0.00    +0.000 A 
ATOM     17  C   UNL     1       1.449   9.903  18.199  0.00  0.00    +0.000 A 
ATOM     18  C   UNL     1       0.980  10.557  19.352  0.00  0.00    +0.000 A 
ATOM     19  N   UNL     1       0.489  11.794  19.484  0.00  0.00    +0.000 NA
ATOM     20  O   UNL     1       0.186  11.938  20.828  0.00  0.00    +0.000 OA
ATOM     21  N   UNL     1       0.486  10.796  21.550  0.00  0.00    +0.000 NA
ATOM     22  C   UNL     1       0.971   9.922  20.661  0.00  0.00    +0.000 A 
ATOM     23  C   UNL     1       1.417   8.607  20.871  0.00  0.00    +0.000 A 
ENDBRANCH  12  15
ENDBRANCH   9  11
BRANCH   1  24
ATOM     24  C   UNL     1       6.260   4.459  17.293  0.00  0.00    +0.000 C 
BRANCH  24  27
ATOM     25  C   UNL     1       6.226   3.644  14.920  0.00  0.00    +0.000 C 
ATOM     26  O   UNL     1       5.591   2.630  15.206  0.00  0.00    +0.000 OA
ATOM     27  N   UNL     1       6.599   4.582  15.861  0.00  0.00    +0.000 N 
ATOM     28  H   UNL     1       6.961   5.462  15.505  0.00  0.00    +0.000 HD
BRANCH  25  29
ATOM     29  C   UNL     1       6.735   3.900  13.477  0.00  0.00    +0.000 C 
ATOM     30  C   UNL     1       6.475   5.360  13.090  0.00  0.00    +0.000 C 
BRANCH  29  32
ATOM     31  C   UNL     1       4.869   3.504  11.959  0.00  0.00    +0.000 C 
ATOM     32  N   UNL     1       6.096   2.949  12.532  0.00  0.00    +0.000 NA
ATOM     33  H   UNL     1       6.755   2.789  11.767  0.00  0.00    +0.000 HD
ENDBRANCH  29  32
ENDBRANCH  25  29
ENDBRANCH  24  27
BRANCH  24  34
ATOM     34  C   UNL     1       7.214   5.334  18.175  0.00  0.00    +0.000 C 
ATOM     35  C   UNL     1       8.575   4.646  18.382  0.00  0.00    +0.000 C 
ATOM     36  C   UNL     1       7.489   6.677  17.449  0.00  0.00    +0.000 C 
ATOM     37  C   UNL     1       6.626   5.665  19.558  0.00  0.00    +0.000 C 
ENDBRANCH  24  34
ENDBRANCH   1  24
TORSDOF 7
ENDMDL
MODEL 7
REMARK VINA RESULT:      -6.3      7.144     11.206
REMARK  Name = 
REMARK  12 active torsions:
REMARK  status: ('A' for Active; 'I' for Inactive)
REMARK    1  A    between atoms: C_1  and  N_2
REMARK    2  A    between atoms: N_2  and  C_3
REMARK    3  A    between atoms: C_3  and  C_4
REMARK    4  A    between atoms: C_3  and  C_5
REMARK    5  A    between atoms: N_7  and  C_8
REMARK    6  A    between atoms: C_8  and  C_9
REMARK    7  A    between atoms: C_8  and  C_31
REMARK    8  A    between atoms: C_17  and  N_18
REMARK    9  A    between atoms: C_19  and  C_21
REMARK   10  A    between atoms: C_31  and  C_32
REMARK   11  A    between atoms: C_31  and  C_33
REMARK   12  A    between atoms: C_31  and  C_34
REMARK                            x       y       z     vdW  Elec       q    Type
REMARK                         _______ _______ _______ _____ _____    ______ ____
ROOT
ATOM      1  C   UNL     1       0.567  13.432  18.812  0.00  0.00    +0.000 C 
ATOM      2  O   UNL     1       1.624  13.346  18.174  0.00  0.00    +0.000 OA
ATOM      3  N   UNL     1       0.122  14.667  19.265  0.00  0.00    +0.000 N 
ATOM      4  C   UNL     1      -1.032  14.935  20.112  0.00  0.00    +0.000 C 
ATOM      5  C   UNL     1      -1.399  16.400  19.884  0.00  0.00    +0.000 C 
ATOM      6  C   UNL     1      -0.496  16.876  18.745  0.00  0.00    +0.000 C 
ATOM      7  C   UNL     1       0.046  18.283  18.945  0.00  0.00    +0.000 C 
ATOM      8  C   UNL     1       1.422  18.127  19.585  0.00  0.00    +0.000 C 
ATOM      9  C   UNL     1       1.652  16.622  19.807  0.00  0.00    +0.000 C 
ATOM     10  C   UNL     1       0.704  15.930  18.801  0.00  0.00    +0.000 C 
ENDROOT
BRANCH   9  11
ATOM     11  N   UNL     1       3.042  16.259  19.610  0.00  0.00    +0.000 N 
ATOM     12  C   UNL     1       3.706  16.567  18.441  0.00  0.00    +0.000 C 
ATOM     13  O   UNL     1       3.196  17.175  17.503  0.00  0.00    +0.000 OA
ATOM     14  H   UNL     1       3.581  16.036  20.439  0.00  0.00    +0.000 HD
BRANCH  12  15
ATOM     15  C   UNL     1       5.118  16.123  18.360  0.00  0.00    +0.000 A 
ATOM     16  C   UNL     1       6.124  17.034  18.809  0.00  0.00    +0.000 A 
ATOM     17  C   UNL     1       7.497  16.723  18.818  0.00  0.00    +0.000 A 
ATOM     18  C   UNL     1       7.802  15.438  18.332  0.00  0.00    +0.000 A 
ATOM     19  N   UNL     1       8.991  14.835  18.218  0.00  0.00    +0.000 NA
ATOM     20  O   UNL     1       8.730  13.589  17.674  0.00  0.00    +0.000 OA
ATOM     21  N   UNL     1       7.380  13.399  17.439  0.00  0.00    +0.000 NA
ATOM     22  C   UNL     1       6.780  14.524  17.844  0.00  0.00    +0.000 A 
ATOM     23  C   UNL     1       5.414  14.849  17.833  0.00  0.00    +0.000 A 
ENDBRANCH  12  15
ENDBRANCH   9  11
BRANCH   1  24
ATOM     24  C   UNL     1      -0.323  12.156  19.070  0.00  0.00    +0.000 C 
BRANCH  24  27
ATOM     25  C   UNL     1      -2.500  11.787  17.877  0.00  0.00    +0.000 C 
ATOM     26  O   UNL     1      -3.164  11.923  18.903  0.00  0.00    +0.000 OA
ATOM     27  N   UNL     1      -1.122  11.877  17.860  0.00  0.00    +0.000 N 
ATOM     28  H   UNL     1      -0.683  11.926  16.945  0.00  0.00    +0.000 HD
BRANCH  25  29
ATOM     29  C   UNL     1      -3.166  11.413  16.527  0.00  0.00    +0.000 C 
ATOM     30  C   UNL     1      -4.674  11.231  16.729  0.00  0.00    +0.000 C 
BRANCH  29  32
ATOM     31  C   UNL     1      -2.928   9.976  14.571  0.00  0.00    +0.000 C 
ATOM     32  N   UNL     1      -2.528  10.197  15.961  0.00  0.00    +0.000 NA
ATOM     33  H   UNL     1      -1.517  10.348  15.975  0.00  0.00    +0.000 HD
ENDBRANCH  29  32
ENDBRANCH  25  29
ENDBRANCH  24  27
BRANCH  24  34
ATOM     34  C   UNL     1       0.419  10.868  19.564  0.00  0.00    +0.000 C 
ATOM     35  C   UNL     1       1.242  10.224  18.432  0.00  0.00    +0.000 C 
ATOM     36  C   UNL     1       1.417  11.255  20.687  0.00  0.00    +0.000 C 
ATOM     37  C   UNL     1      -0.533   9.802  20.134  0.00  0.00    +0.000 C 
ENDBRANCH  24  34
ENDBRANCH   1  24
TORSDOF 7
ENDMDL
MODEL 8
REMARK VINA RESULT:      -6.3      4.829     11.940
REMARK  Name = 
REMARK  12 active torsions:
REMARK  status: ('A' for Active; 'I' for Inactive)
REMARK    1  A    between atoms: C_1  and  N_2
REMARK    2  A    between atoms: N_2  and  C_3
REMARK    3  A    between atoms: C_3  and  C_4
REMARK    4  A    between atoms: C_3  and  C_5
REMARK    5  A    between atoms: N_7  and  C_8
REMARK    6  A    between atoms: C_8  and  C_9
REMARK    7  A    between atoms: C_8  and  C_31
REMARK    8  A    between atoms: C_17  and  N_18
REMARK    9  A    between atoms: C_19  and  C_21
REMARK   10  A    between atoms: C_31  and  C_32
REMARK   11  A    between atoms: C_31  and  C_33
REMARK   12  A    between atoms: C_31  and  C_34
REMARK                            x       y       z     vdW  Elec       q    Type
REMARK                         _______ _______ _______ _____ _____    ______ ____
ROOT
ATOM      1  C   UNL     1      -2.137  13.280  20.642  0.00  0.00    +0.000 C 
ATOM      2  O   UNL     1      -2.107  12.313  19.870  0.00  0.00    +0.000 OA
ATOM      3  N   UNL     1      -1.203  14.301  20.520  0.00  0.00    +0.000 N 
ATOM      4  C   UNL     1      -1.028  15.449  21.399  0.00  0.00    +0.000 C 
ATOM      5  C   UNL     1      -0.289  16.506  20.581  0.00  0.00    +0.000 C 
ATOM      6  C   UNL     1      -0.216  15.947  19.160  0.00  0.00    +0.000 C 
ATOM      7  C   UNL     1       1.117  16.201  18.473  0.00  0.00    +0.000 C 
ATOM      8  C   UNL     1       1.961  14.951  18.698  0.00  0.00    +0.000 C 
ATOM      9  C   UNL     1       1.132  13.992  19.569  0.00  0.00    +0.000 C 
ATOM     10  C   UNL     1      -0.333  14.434  19.348  0.00  0.00    +0.000 C 
ENDROOT
BRANCH   9  11
ATOM     11  N   UNL     1       1.362  12.607  19.205  0.00  0.00    +0.000 N 
ATOM     12  C   UNL     1       1.244  11.592  20.132  0.00  0.00    +0.000 C 
ATOM     13  O   UNL     1       0.923  11.769  21.305  0.00  0.00    +0.000 OA
ATOM     14  H   UNL     1       1.330  12.380  18.218  0.00  0.00    +0.000 HD
BRANCH  12  15
ATOM     15  C   UNL     1       1.523  10.224  19.634  0.00  0.00    +0.000 A 
ATOM     16  C   UNL     1       1.867  10.079  18.255  0.00  0.00    +0.000 A 
ATOM     17  C   UNL     1       2.189   8.841  17.667  0.00  0.00    +0.000 A 
ATOM     18  C   UNL     1       2.129   7.748  18.550  0.00  0.00    +0.000 A 
ATOM     19  N   UNL     1       2.382   6.455  18.318  0.00  0.00    +0.000 NA
ATOM     20  O   UNL     1       2.163   5.806  19.521  0.00  0.00    +0.000 OA
ATOM     21  N   UNL     1       1.767   6.682  20.516  0.00  0.00    +0.000 NA
ATOM     22  C   UNL     1       1.745   7.892  19.947  0.00  0.00    +0.000 A 
ATOM     23  C   UNL     1       1.420   9.131  20.520  0.00  0.00    +0.000 A 
ENDBRANCH  12  15
ENDBRANCH   9  11
BRANCH   1  24
ATOM     24  C   UNL     1      -3.266  13.401  21.735  0.00  0.00    +0.000 C 
BRANCH  24  27
ATOM     25  C   UNL     1      -5.539  13.392  20.669  0.00  0.00    +0.000 C 
ATOM     26  O   UNL     1      -5.551  14.614  20.526  0.00  0.00    +0.000 OA
ATOM     27  N   UNL     1      -4.482  12.719  21.248  0.00  0.00    +0.000 N 
ATOM     28  H   UNL     1      -4.488  11.706  21.160  0.00  0.00    +0.000 HD
BRANCH  25  29
ATOM     29  C   UNL     1      -6.763  12.520  20.285  0.00  0.00    +0.000 C 
ATOM     30  C   UNL     1      -7.914  13.422  19.827  0.00  0.00    +0.000 C 
BRANCH  29  32
ATOM     31  C   UNL     1      -7.914  10.486  20.981  0.00  0.00    +0.000 C 
ATOM     32  N   UNL     1      -7.152  11.654  21.427  0.00  0.00    +0.000 NA
ATOM     33  H   UNL     1      -6.291  11.318  21.863  0.00  0.00    +0.000 HD
ENDBRANCH  29  32
ENDBRANCH  25  29
ENDBRANCH  24  27
BRANCH  24  34
ATOM     34  C   UNL     1      -2.899  12.931  23.184  0.00  0.00    +0.000 C 
ATOM     35  C   UNL     1      -2.233  14.062  23.989  0.00  0.00    +0.000 C 
ATOM     36  C   UNL     1      -4.197  12.541  23.937  0.00  0.00    +0.000 C 
ATOM     37  C   UNL     1      -1.964  11.709  23.204  0.00  0.00    +0.000 C 
ENDBRANCH  24  34
ENDBRANCH   1  24
TORSDOF 7
ENDMDL
MODEL 9
REMARK VINA RESULT:      -6.2      5.385     12.331
REMARK  Name = 
REMARK  12 active torsions:
REMARK  status: ('A' for Active; 'I' for Inactive)
REMARK    1  A    between atoms: C_1  and  N_2
REMARK    2  A    between atoms: N_2  and  C_3
REMARK    3  A    between atoms: C_3  and  C_4
REMARK    4  A    between atoms: C_3  and  C_5
REMARK    5  A    between atoms: N_7  and  C_8
REMARK    6  A    between atoms: C_8  and  C_9
REMARK    7  A    between atoms: C_8  and  C_31
REMARK    8  A    between atoms: C_17  and  N_18
REMARK    9  A    between atoms: C_19  and  C_21
REMARK   10  A    between atoms: C_31  and  C_32
REMARK   11  A    between atoms: C_31  and  C_33
REMARK   12  A    between atoms: C_31  and  C_34
REMARK                            x       y       z     vdW  Elec       q    Type
REMARK                         _______ _______ _______ _____ _____    ______ ____
ROOT
ATOM      1  C   UNL     1      -2.974  13.597  20.912  0.00  0.00    +0.000 C 
ATOM      2  O   UNL     1      -2.804  12.608  20.187  0.00  0.00    +0.000 OA
ATOM      3  N   UNL     1      -2.115  14.686  20.821  0.00  0.00    +0.000 N 
ATOM      4  C   UNL     1      -2.104  15.876  21.660  0.00  0.00    +0.000 C 
ATOM      5  C   UNL     1      -1.384  16.958  20.860  0.00  0.00    +0.000 C 
ATOM      6  C   UNL     1      -1.149  16.354  19.474  0.00  0.00    +0.000 C 
ATOM      7  C   UNL     1       0.213  16.690  18.886  0.00  0.00    +0.000 C 
ATOM      8  C   UNL     1       1.131  15.522  19.233  0.00  0.00    +0.000 C 
ATOM      9  C   UNL     1       0.308  14.532  20.075  0.00  0.00    +0.000 C 
ATOM     10  C   UNL     1      -1.163  14.845  19.718  0.00  0.00    +0.000 C 
ENDROOT
BRANCH   9  11
ATOM     11  N   UNL     1       0.674  13.157  19.792  0.00  0.00    +0.000 N 
ATOM     12  C   UNL     1       0.590  12.178  20.759  0.00  0.00    +0.000 C 
ATOM     13  O   UNL     1       0.189  12.377  21.903  0.00  0.00    +0.000 OA
ATOM     14  H   UNL     1       0.719  12.886  18.816  0.00  0.00    +0.000 HD
BRANCH  12  15
ATOM     15  C   UNL     1       1.012  10.818  20.344  0.00  0.00    +0.000 A 
ATOM     16  C   UNL     1       1.005   9.792  21.338  0.00  0.00    +0.000 A 
ATOM     17  C   UNL     1       1.350   8.454  21.066  0.00  0.00    +0.000 A 
ATOM     18  C   UNL     1       1.718   8.210  19.731  0.00  0.00    +0.000 A 
ATOM     19  N   UNL     1       2.084   7.064  19.147  0.00  0.00    +0.000 NA
ATOM     20  O   UNL     1       2.349   7.381  17.826  0.00  0.00    +0.000 OA
ATOM     21  N   UNL     1       2.155   8.727  17.568  0.00  0.00    +0.000 NA
ATOM     22  C   UNL     1       1.756   9.264  18.727  0.00  0.00    +0.000 A 
ATOM     23  C   UNL     1       1.417  10.596  19.011  0.00  0.00    +0.000 A 
ENDBRANCH  12  15
ENDBRANCH   9  11
BRANCH   1  24
ATOM     24  C   UNL     1      -4.197  13.667  21.904  0.00  0.00    +0.000 C 
BRANCH  24  27
ATOM     25  C   UNL     1      -6.298  13.498  20.542  0.00  0.00    +0.000 C 
ATOM     26  O   UNL     1      -6.301  14.698  20.272  0.00  0.00    +0.000 OA
ATOM     27  N   UNL     1      -5.326  12.911  21.327  0.00  0.00    +0.000 N 
ATOM     28  H   UNL     1      -5.311  11.894  21.345  0.00  0.00    +0.000 HD
BRANCH  25  29
ATOM     29  C   UNL     1      -7.449  12.563  20.086  0.00  0.00    +0.000 C 
ATOM     30  C   UNL     1      -7.756  11.547  21.192  0.00  0.00    +0.000 C 
BRANCH  29  32
ATOM     31  C   UNL     1      -6.899  10.464  18.975  0.00  0.00    +0.000 C 
ATOM     32  N   UNL     1      -7.096  11.904  18.803  0.00  0.00    +0.000 NA
ATOM     33  H   UNL     1      -7.882  12.038  18.164  0.00  0.00    +0.000 HD
ENDBRANCH  29  32
ENDBRANCH  25  29
ENDBRANCH  24  27
BRANCH  24  34
ATOM     34  C   UNL     1      -3.928  13.235  23.386  0.00  0.00    +0.000 C 
ATOM     35  C   UNL     1      -3.472  14.430  24.244  0.00  0.00    +0.000 C 
ATOM     36  C   UNL     1      -5.245  12.704  24.008  0.00  0.00    +0.000 C 
ATOM     37  C   UNL     1      -2.873  12.123  23.509  0.00  0.00    +0.000 C 
ENDBRANCH  24  34
ENDBRANCH   1  24
TORSDOF 7
ENDMDL
