MODEL 1
REMARK VINA RESULT:      -7.3      0.000      0.000
REMARK  Name = 
REMARK  2 active torsions:
REMARK  status: ('A' for Active; 'I' for Inactive)
REMARK    1  A    between atoms: C_1  and  C_2
REMARK    2  A    between atoms: N_8  and  C_9
REMARK                            x       y       z     vdW  Elec       q    Type
REMARK                         _______ _______ _______ _____ _____    ______ ____
ROOT
ATOM      1  C   UNL     1      -0.803  11.721  21.520  0.00  0.00    +0.000 C 
ATOM      2  C   UNL     1      -0.015  10.738  20.706  0.00  0.00    +0.000 A 
ATOM      3  C   UNL     1       0.351  11.033  19.385  0.00  0.00    +0.000 A 
ATOM      4  C   UNL     1       1.103  10.123  18.643  0.00  0.00    +0.000 A 
ATOM      5  C   UNL     1       1.480   8.904  19.213  0.00  0.00    +0.000 A 
ATOM      6  C   UNL     1       2.275   7.925  18.449  0.00  0.00    +0.000 A 
ATOM      7  O   UNL     1       2.698   8.263  17.346  0.00  0.00    +0.000 OA
ATOM      8  N   UNL     1       2.531   6.696  19.076  0.00  0.00    +0.000 N 
ATOM      9  C   UNL     1       2.141   6.394  20.381  0.00  0.00    +0.000 A 
ATOM     10  O   UNL     1       2.317   5.316  20.952  0.00  0.00    +0.000 OA
ATOM     11  N   UNL     1       1.467   7.371  21.063  0.00  0.00    +0.000 N 
ATOM     12  C   UNL     1       1.113   8.602  20.517  0.00  0.00    +0.000 A 
ATOM     13  C   UNL     1       0.381   9.516  21.271  0.00  0.00    +0.000 A 
ATOM     14  H   UNL     1       1.175   7.119  21.999  0.00  0.00    +0.000 HD
ENDROOT
BRANCH   8  15
ATOM     15  C   UNL     1       3.270   5.719  18.341  0.00  0.00    +0.000 A 
ATOM     16  C   UNL     1       2.607   4.689  17.659  0.00  0.00    +0.000 A 
ATOM     17  C   UNL     1       3.332   3.704  16.986  0.00  0.00    +0.000 A 
ATOM     18  C   UNL     1       4.725   3.757  16.966  0.00  0.00    +0.000 A 
ATOM     19  C   UNL     1       5.388   4.790  17.625  0.00  0.00    +0.000 A 
ATOM     20 CL   UNL     1       7.108   4.865  17.581  0.00  0.00    +0.000 Cl
ATOM     21  C   UNL     1       4.672   5.763  18.318  0.00  0.00    +0.000 A 
ENDBRANCH   8  15
TORSDOF 1
ENDMDL
MODEL 2
REMARK VINA RESULT:      -7.3      3.192      6.666
REMARK  Name = 
REMARK  2 active torsions:
REMARK  status: ('A' for Active; 'I' for Inactive)
REMARK    1  A    between atoms: C_1  and  C_2
REMARK    2  A    between atoms: N_8  and  C_9
REMARK                            x       y       z     vdW  Elec       q    Type
REMARK                         _______ _______ _______ _____ _____    ______ ____
ROOT
ATOM      1  C   UNL     1       4.711   3.706  18.955  0.00  0.00    +0.000 C 
ATOM      2  C   UNL     1       4.001   5.021  18.812  0.00  0.00    +0.000 A 
ATOM      3  C   UNL     1       4.135   5.783  17.644  0.00  0.00    +0.000 A 
ATOM      4  C   UNL     1       3.453   6.992  17.510  0.00  0.00    +0.000 A 
ATOM      5  C   UNL     1       2.645   7.454  18.553  0.00  0.00    +0.000 A 
ATOM      6  C   UNL     1       1.914   8.729  18.437  0.00  0.00    +0.000 A 
ATOM      7  O   UNL     1       1.940   9.310  17.354  0.00  0.00    +0.000 OA
ATOM      8  N   UNL     1       1.198   9.150  19.568  0.00  0.00    +0.000 N 
ATOM      9  C   UNL     1       1.090   8.401  20.740  0.00  0.00    +0.000 A 
ATOM     10  O   UNL     1       0.500   8.752  21.765  0.00  0.00    +0.000 OA
ATOM     11  N   UNL     1       1.733   7.193  20.760  0.00  0.00    +0.000 N 
ATOM     12  C   UNL     1       2.516   6.708  19.716  0.00  0.00    +0.000 A 
ATOM     13  C   UNL     1       3.176   5.488  19.847  0.00  0.00    +0.000 A 
ATOM     14  H   UNL     1       1.658   6.680  21.631  0.00  0.00    +0.000 HD
ENDROOT
BRANCH   8  15
ATOM     15  C   UNL     1       0.510  10.399  19.490  0.00  0.00    +0.000 A 
ATOM     16  C   UNL     1       1.142  11.586  19.887  0.00  0.00    +0.000 A 
ATOM     17  C   UNL     1       0.452  12.799  19.861  0.00  0.00    +0.000 A 
ATOM     18  C   UNL     1      -0.867  12.839  19.411  0.00  0.00    +0.000 A 
ATOM     19  C   UNL     1      -1.493  11.665  18.996  0.00  0.00    +0.000 A 
ATOM     20 CL   UNL     1      -3.115  11.721  18.421  0.00  0.00    +0.000 Cl
ATOM     21  C   UNL     1      -0.817  10.448  19.041  0.00  0.00    +0.000 A 
ENDBRANCH   8  15
TORSDOF 1
ENDMDL
MODEL 3
REMARK VINA RESULT:      -7.3      1.088      2.328
REMARK  Name = 
REMARK  2 active torsions:
REMARK  status: ('A' for Active; 'I' for Inactive)
REMARK    1  A    between atoms: C_1  and  C_2
REMARK    2  A    between atoms: N_8  and  C_9
REMARK                            x       y       z     vdW  Elec       q    Type
REMARK                         _______ _______ _______ _____ _____    ______ ____
ROOT
ATOM      1  C   UNL     1      -0.779  12.043  22.345  0.00  0.00    +0.000 C 
ATOM      2  C   UNL     1      -0.129  10.788  21.841  0.00  0.00    +0.000 A 
ATOM      3  C   UNL     1      -0.009   9.663  22.668  0.00  0.00    +0.000 A 
ATOM      4  C   UNL     1       0.575   8.492  22.185  0.00  0.00    +0.000 A 
ATOM      5  C   UNL     1       1.059   8.447  20.874  0.00  0.00    +0.000 A 
ATOM      6  C   UNL     1       1.682   7.223  20.339  0.00  0.00    +0.000 A 
ATOM      7  O   UNL     1       1.652   6.211  21.036  0.00  0.00    +0.000 OA
ATOM      8  N   UNL     1       2.214   7.301  19.043  0.00  0.00    +0.000 N 
ATOM      9  C   UNL     1       2.118   8.433  18.233  0.00  0.00    +0.000 A 
ATOM     10  O   UNL     1       2.601   8.552  17.105  0.00  0.00    +0.000 OA
ATOM     11  N   UNL     1       1.466   9.514  18.760  0.00  0.00    +0.000 N 
ATOM     12  C   UNL     1       0.952   9.561  20.053  0.00  0.00    +0.000 A 
ATOM     13  C   UNL     1       0.348  10.726  20.523  0.00  0.00    +0.000 A 
ATOM     14  H   UNL     1       1.430  10.330  18.161  0.00  0.00    +0.000 HD
ENDROOT
BRANCH   8  15
ATOM     15  C   UNL     1       2.853   6.137  18.517  0.00  0.00    +0.000 A 
ATOM     16  C   UNL     1       2.096   5.113  17.930  0.00  0.00    +0.000 A 
ATOM     17  C   UNL     1       2.715   3.952  17.465  0.00  0.00    +0.000 A 
ATOM     18  C   UNL     1       4.100   3.818  17.557  0.00  0.00    +0.000 A 
ATOM     19  C   UNL     1       4.859   4.842  18.120  0.00  0.00    +0.000 A 
ATOM     20 CL   UNL     1       6.571   4.684  18.212  0.00  0.00    +0.000 Cl
ATOM     21  C   UNL     1       4.245   5.993  18.607  0.00  0.00    +0.000 A 
ENDBRANCH   8  15
TORSDOF 1
ENDMDL
MODEL 4
REMARK VINA RESULT:      -7.2      4.269      7.086
REMARK  Name = 
REMARK  2 active torsions:
REMARK  status: ('A' for Active; 'I' for Inactive)
REMARK    1  A    between atoms: C_1  and  C_2
REMARK    2  A    between atoms: N_8  and  C_9
REMARK                            x       y       z     vdW  Elec       q    Type
REMARK                         _______ _______ _______ _____ _____    ______ ____
ROOT
ATOM      1  C   UNL     1       8.206   5.123  12.777  0.00  0.00    +0.000 C 
ATOM      2  C   UNL     1       7.198   4.874  13.862  0.00  0.00    +0.000 A 
ATOM      3  C   UNL     1       5.912   4.411  13.551  0.00  0.00    +0.000 A 
ATOM      4  C   UNL     1       4.989   4.160  14.566  0.00  0.00    +0.000 A 
ATOM      5  C   UNL     1       5.343   4.389  15.899  0.00  0.00    +0.000 A 
ATOM      6  C   UNL     1       4.386   4.133  16.991  0.00  0.00    +0.000 A 
ATOM      7  O   UNL     1       3.316   3.600  16.704  0.00  0.00    +0.000 OA
ATOM      8  N   UNL     1       4.803   4.473  18.287  0.00  0.00    +0.000 N 
ATOM      9  C   UNL     1       6.075   4.961  18.589  0.00  0.00    +0.000 A 
ATOM     10  O   UNL     1       6.465   5.303  19.707  0.00  0.00    +0.000 OA
ATOM     11  N   UNL     1       6.942   5.110  17.541  0.00  0.00    +0.000 N 
ATOM     12  C   UNL     1       6.612   4.857  16.212  0.00  0.00    +0.000 A 
ATOM     13  C   UNL     1       7.546   5.087  15.204  0.00  0.00    +0.000 A 
ATOM     14  H   UNL     1       7.850   5.488  17.784  0.00  0.00    +0.000 HD
ENDROOT
BRANCH   8  15
ATOM     15  C   UNL     1       3.879   4.266  19.356  0.00  0.00    +0.000 A 
ATOM     16  C   UNL     1       3.803   3.023  20.001  0.00  0.00    +0.000 A 
ATOM     17  C   UNL     1       2.863   2.805  21.009  0.00  0.00    +0.000 A 
ATOM     18  C   UNL     1       2.011   3.836  21.400  0.00  0.00    +0.000 A 
ATOM     19  C   UNL     1       2.097   5.080  20.777  0.00  0.00    +0.000 A 
ATOM     20 CL   UNL     1       1.057   6.358  21.277  0.00  0.00    +0.000 Cl
ATOM     21  C   UNL     1       3.017   5.297  19.755  0.00  0.00    +0.000 A 
ENDBRANCH   8  15
TORSDOF 1
ENDMDL
MODEL 5
REMARK VINA RESULT:      -7.2      3.020      6.472
REMARK  Name = 
REMARK  2 active torsions:
REMARK  status: ('A' for Active; 'I' for Inactive)
REMARK    1  A    between atoms: C_1  and  C_2
REMARK    2  A    between atoms: N_8  and  C_9
REMARK                            x       y       z     vdW  Elec       q    Type
REMARK                         _______ _______ _______ _____ _____    ______ ____
ROOT
ATOM      1  C   UNL     1       4.841   3.764  19.005  0.00  0.00    +0.000 C 
ATOM      2  C   UNL     1       4.109   5.064  18.837  0.00  0.00    +0.000 A 
ATOM      3  C   UNL     1       4.260   5.824  17.669  0.00  0.00    +0.000 A 
ATOM      4  C   UNL     1       3.558   7.019  17.512  0.00  0.00    +0.000 A 
ATOM      5  C   UNL     1       2.715   7.470  18.532  0.00  0.00    +0.000 A 
ATOM      6  C   UNL     1       1.963   8.730  18.391  0.00  0.00    +0.000 A 
ATOM      7  O   UNL     1       2.006   9.307  17.306  0.00  0.00    +0.000 OA
ATOM      8  N   UNL     1       1.209   9.141  19.501  0.00  0.00    +0.000 N 
ATOM      9  C   UNL     1       1.085   8.395  20.673  0.00  0.00    +0.000 A 
ATOM     10  O   UNL     1       0.462   8.739  21.680  0.00  0.00    +0.000 OA
ATOM     11  N   UNL     1       1.750   7.200  20.715  0.00  0.00    +0.000 N 
ATOM     12  C   UNL     1       2.569   6.726  19.695  0.00  0.00    +0.000 A 
ATOM     13  C   UNL     1       3.249   5.519  19.848  0.00  0.00    +0.000 A 
ATOM     14  H   UNL     1       1.662   6.689  21.586  0.00  0.00    +0.000 HD
ENDROOT
BRANCH   8  15
ATOM     15  C   UNL     1       0.500  10.377  19.399  0.00  0.00    +0.000 A 
ATOM     16  C   UNL     1      -0.824  10.403  18.938  0.00  0.00    +0.000 A 
ATOM     17  C   UNL     1      -1.498  11.615  18.788  0.00  0.00    +0.000 A 
ATOM     18  C   UNL     1      -0.864  12.810  19.124  0.00  0.00    +0.000 A 
ATOM     19  C   UNL     1       0.445  12.789  19.603  0.00  0.00    +0.000 A 
ATOM     20 CL   UNL     1       1.219  14.264  20.038  0.00  0.00    +0.000 Cl
ATOM     21  C   UNL     1       1.131  11.584  19.733  0.00  0.00    +0.000 A 
ENDBRANCH   8  15
TORSDOF 1
ENDMDL
MODEL 6
REMARK VINA RESULT:      -7.1      1.926      2.652
REMARK  Name = 
REMARK  2 active torsions:
REMARK  status: ('A' for Active; 'I' for Inactive)
REMARK    1  A    between atoms: C_1  and  C_2
REMARK    2  A    between atoms: N_8  and  C_9
REMARK                            x       y       z     vdW  Elec       q    Type
REMARK                         _______ _______ _______ _____ _____    ______ ____
ROOT
ATOM      1  C   UNL     1      -0.370   8.899  21.735  0.00  0.00    +0.000 C 
ATOM      2  C   UNL     1       0.655   8.406  20.756  0.00  0.00    +0.000 A 
ATOM      3  C   UNL     1       0.970   9.154  19.613  0.00  0.00    +0.000 A 
ATOM      4  C   UNL     1       1.940   8.701  18.720  0.00  0.00    +0.000 A 
ATOM      5  C   UNL     1       2.589   7.485  18.957  0.00  0.00    +0.000 A 
ATOM      6  C   UNL     1       3.618   6.983  18.028  0.00  0.00    +0.000 A 
ATOM      7  O   UNL     1       3.973   7.720  17.110  0.00  0.00    +0.000 OA
ATOM      8  N   UNL     1       4.152   5.715  18.304  0.00  0.00    +0.000 N 
ATOM      9  C   UNL     1       3.815   4.961  19.429  0.00  0.00    +0.000 A 
ATOM     10  O   UNL     1       4.235   3.831  19.687  0.00  0.00    +0.000 OA
ATOM     11  N   UNL     1       2.906   5.513  20.290  0.00  0.00    +0.000 N 
ATOM     12  C   UNL     1       2.275   6.736  20.082  0.00  0.00    +0.000 A 
ATOM     13  C   UNL     1       1.324   7.195  20.990  0.00  0.00    +0.000 A 
ATOM     14  H   UNL     1       2.662   4.935  21.086  0.00  0.00    +0.000 HD
ENDROOT
BRANCH   8  15
ATOM     15  C   UNL     1       5.126   5.194  17.399  0.00  0.00    +0.000 A 
ATOM     16  C   UNL     1       6.466   5.065  17.790  0.00  0.00    +0.000 A 
ATOM     17  C   UNL     1       7.426   4.606  16.887  0.00  0.00    +0.000 A 
ATOM     18  C   UNL     1       7.049   4.246  15.594  0.00  0.00    +0.000 A 
ATOM     19  C   UNL     1       5.715   4.352  15.207  0.00  0.00    +0.000 A 
ATOM     20 CL   UNL     1       5.248   3.886  13.616  0.00  0.00    +0.000 Cl
ATOM     21  C   UNL     1       4.756   4.831  16.096  0.00  0.00    +0.000 A 
ENDBRANCH   8  15
TORSDOF 1
ENDMDL
MODEL 7
REMARK VINA RESULT:      -6.9      3.983      7.693
REMARK  Name = 
REMARK  2 active torsions:
REMARK  status: ('A' for Active; 'I' for Inactive)
REMARK    1  A    between atoms: C_1  and  C_2
REMARK    2  A    between atoms: N_8  and  C_9
REMARK                            x       y       z     vdW  Elec       q    Type
REMARK                         _______ _______ _______ _____ _____    ______ ____
ROOT
ATOM      1  C   UNL     1       3.222   6.006  18.034  0.00  0.00    +0.000 C 
ATOM      2  C   UNL     1       2.474   7.198  18.557  0.00  0.00    +0.000 A 
ATOM      3  C   UNL     1       2.041   8.208  17.688  0.00  0.00    +0.000 A 
ATOM      4  C   UNL     1       1.326   9.301  18.180  0.00  0.00    +0.000 A 
ATOM      5  C   UNL     1       1.056   9.396  19.548  0.00  0.00    +0.000 A 
ATOM      6  C   UNL     1       0.303  10.541  20.093  0.00  0.00    +0.000 A 
ATOM      7  O   UNL     1      -0.183  11.341  19.296  0.00  0.00    +0.000 OA
ATOM      8  N   UNL     1       0.155  10.591  21.487  0.00  0.00    +0.000 N 
ATOM      9  C   UNL     1       0.613   9.596  22.352  0.00  0.00    +0.000 A 
ATOM     10  O   UNL     1       0.533   9.622  23.582  0.00  0.00    +0.000 OA
ATOM     11  N   UNL     1       1.242   8.525  21.779  0.00  0.00    +0.000 N 
ATOM     12  C   UNL     1       1.490   8.403  20.415  0.00  0.00    +0.000 A 
ATOM     13  C   UNL     1       2.184   7.298  19.927  0.00  0.00    +0.000 A 
ATOM     14  H   UNL     1       1.585   7.829  22.430  0.00  0.00    +0.000 HD
ENDROOT
BRANCH   8  15
ATOM     15  C   UNL     1      -0.541  11.709  22.040  0.00  0.00    +0.000 A 
ATOM     16  C   UNL     1      -0.039  13.009  21.884  0.00  0.00    +0.000 A 
ATOM     17  C   UNL     1      -0.691  14.095  22.469  0.00  0.00    +0.000 A 
ATOM     18  C   UNL     1      -1.866  13.893  23.192  0.00  0.00    +0.000 A 
ATOM     19  C   UNL     1      -2.381  12.606  23.333  0.00  0.00    +0.000 A 
ATOM     20 CL   UNL     1      -3.843  12.363  24.208  0.00  0.00    +0.000 Cl
ATOM     21  C   UNL     1      -1.723  11.515  22.770  0.00  0.00    +0.000 A 
ENDBRANCH   8  15
TORSDOF 1
ENDMDL
MODEL 8
REMARK VINA RESULT:      -6.8      4.911      8.851
REMARK  Name = 
REMARK  2 active torsions:
REMARK  status: ('A' for Active; 'I' for Inactive)
REMARK    1  A    between atoms: C_1  and  C_2
REMARK    2  A    between atoms: N_8  and  C_9
REMARK                            x       y       z     vdW  Elec       q    Type
REMARK                         _______ _______ _______ _____ _____    ______ ____
ROOT
ATOM      1  C   UNL     1       2.467   7.594  18.185  0.00  0.00    +0.000 C 
ATOM      2  C   UNL     1       1.741   8.379  19.238  0.00  0.00    +0.000 A 
ATOM      3  C   UNL     1       1.719   7.940  20.570  0.00  0.00    +0.000 A 
ATOM      4  C   UNL     1       1.062   8.688  21.547  0.00  0.00    +0.000 A 
ATOM      5  C   UNL     1       0.408   9.872  21.193  0.00  0.00    +0.000 A 
ATOM      6  C   UNL     1      -0.294  10.680  22.206  0.00  0.00    +0.000 A 
ATOM      7  O   UNL     1      -0.184  10.348  23.385  0.00  0.00    +0.000 OA
ATOM      8  N   UNL     1      -0.991  11.806  21.742  0.00  0.00    +0.000 N 
ATOM      9  C   UNL     1      -0.990  12.224  20.410  0.00  0.00    +0.000 A 
ATOM     10  O   UNL     1      -1.617  13.184  19.959  0.00  0.00    +0.000 OA
ATOM     11  N   UNL     1      -0.261  11.471  19.530  0.00  0.00    +0.000 N 
ATOM     12  C   UNL     1       0.419  10.307  19.875  0.00  0.00    +0.000 A 
ATOM     13  C   UNL     1       1.094   9.576  18.899  0.00  0.00    +0.000 A 
ATOM     14  H   UNL     1      -0.296  11.783  18.567  0.00  0.00    +0.000 HD
ENDROOT
BRANCH   8  15
ATOM     15  C   UNL     1      -1.707  12.585  22.701  0.00  0.00    +0.000 A 
ATOM     16  C   UNL     1      -1.144  13.753  23.234  0.00  0.00    +0.000 A 
ATOM     17  C   UNL     1      -1.821  14.484  24.211  0.00  0.00    +0.000 A 
ATOM     18  C   UNL     1      -3.080  14.068  24.643  0.00  0.00    +0.000 A 
ATOM     19  C   UNL     1      -3.653  12.919  24.101  0.00  0.00    +0.000 A 
ATOM     20 CL   UNL     1      -5.217  12.420  24.621  0.00  0.00    +0.000 Cl
ATOM     21  C   UNL     1      -2.973  12.173  23.143  0.00  0.00    +0.000 A 
ENDBRANCH   8  15
TORSDOF 1
ENDMDL
MODEL 9
REMARK VINA RESULT:      -6.7      1.625      2.821
REMARK  Name = 
REMARK  2 active torsions:
REMARK  status: ('A' for Active; 'I' for Inactive)
REMARK    1  A    between atoms: C_1  and  C_2
REMARK    2  A    between atoms: N_8  and  C_9
REMARK                            x       y       z     vdW  Elec       q    Type
REMARK                         _______ _______ _______ _____ _____    ______ ____
ROOT
ATOM      1  C   UNL     1      -1.106  12.145  21.984  0.00  0.00    +0.000 C 
ATOM      2  C   UNL     1      -0.356  10.906  21.592  0.00  0.00    +0.000 A 
ATOM      3  C   UNL     1      -0.147   9.873  22.516  0.00  0.00    +0.000 A 
ATOM      4  C   UNL     1       0.531   8.715  22.137  0.00  0.00    +0.000 A 
ATOM      5  C   UNL     1       1.021   8.592  20.833  0.00  0.00    +0.000 A 
ATOM      6  C   UNL     1       1.742   7.378  20.408  0.00  0.00    +0.000 A 
ATOM      7  O   UNL     1       1.792   6.434  21.193  0.00  0.00    +0.000 OA
ATOM      8  N   UNL     1       2.269   7.382  19.107  0.00  0.00    +0.000 N 
ATOM      9  C   UNL     1       2.084   8.425  18.199  0.00  0.00    +0.000 A 
ATOM     10  O   UNL     1       2.559   8.481  17.063  0.00  0.00    +0.000 OA
ATOM     11  N   UNL     1       1.345   9.493  18.631  0.00  0.00    +0.000 N 
ATOM     12  C   UNL     1       0.826   9.615  19.916  0.00  0.00    +0.000 A 
ATOM     13  C   UNL     1       0.128  10.764  20.283  0.00  0.00    +0.000 A 
ATOM     14  H   UNL     1       1.245  10.246  17.960  0.00  0.00    +0.000 HD
ENDROOT
BRANCH   8  15
ATOM     15  C   UNL     1       3.001   6.231  18.685  0.00  0.00    +0.000 A 
ATOM     16  C   UNL     1       4.400   6.266  18.606  0.00  0.00    +0.000 A 
ATOM     17  C   UNL     1       5.112   5.159  18.142  0.00  0.00    +0.000 A 
ATOM     18  C   UNL     1       4.431   3.997  17.781  0.00  0.00    +0.000 A 
ATOM     19  C   UNL     1       3.042   3.949  17.878  0.00  0.00    +0.000 A 
ATOM     20 CL   UNL     1       2.206   2.506  17.451  0.00  0.00    +0.000 Cl
ATOM     21  C   UNL     1       2.325   5.059  18.318  0.00  0.00    +0.000 A 
ENDBRANCH   8  15
TORSDOF 1
ENDMDL
