MODEL 1
REMARK VINA RESULT:      -7.3      0.000      0.000
REMARK  Name = 
REMARK  19 active torsions:
REMARK  status: ('A' for Active; 'I' for Inactive)
REMARK    1  A    between atoms: C_1  and  C_2
REMARK    2  A    between atoms: C_4  and  O_5
REMARK    3  A    between atoms: O_5  and  C_6
REMARK    4  A    between atoms: C_6  and  C_7
REMARK    5  A    between atoms: C_6  and  C_8
REMARK    6  A    between atoms: C_6  and  C_9
REMARK    7  A    between atoms: C_9  and  O_10
REMARK    8  A    between atoms: O_10  and  C_11
REMARK    9  A    between atoms: C_11  and  C_12
REMARK   10  A    between atoms: C_12  and  O_13
REMARK   11  A    between atoms: C_16  and  O_17
REMARK   12  A    between atoms: C_18  and  O_19
REMARK   13  A    between atoms: O_19  and  C_20
REMARK   14  A    between atoms: C_20  and  C_21
REMARK   15  A    between atoms: C_21  and  O_23
REMARK   16  A    between atoms: C_24  and  O_25
REMARK   17  A    between atoms: C_26  and  O_27
REMARK   18  A    between atoms: C_28  and  O_29
REMARK   19  A    between atoms: C_30  and  O_31
REMARK                            x       y       z     vdW  Elec       q    Type
REMARK                         _______ _______ _______ _____ _____    ______ ____
ROOT
ATOM      1  O   UNL     1       1.295   6.567  20.798  0.00  0.00    +0.000 OA
ENDROOT
BRANCH   1   2
ATOM      2  C   UNL     1       1.565   5.665  19.721  0.00  0.00    +0.000 C 
BRANCH   2   3
ATOM      3  C   UNL     1       2.242   4.355  20.198  0.00  0.00    +0.000 C 
ATOM      4  C   UNL     1       1.276   3.159  20.181  0.00  0.00    +0.000 C 
ATOM      5  C   UNL     1       0.981   2.625  18.781  0.00  0.00    +0.000 C 
ATOM      6  C   UNL     1       2.248   2.369  17.959  0.00  0.00    +0.000 C 
ATOM      7  C   UNL     1       3.146   3.629  17.919  0.00  0.00    +0.000 C 
ATOM      8  C   UNL     1       3.513   4.049  19.367  0.00  0.00    +0.000 C 
BRANCH   6   9
ATOM      9  O   UNL     1       2.942   1.239  18.491  0.00  0.00    +0.000 OA
ATOM     10  H   UNL     1       2.973   1.347  19.470  0.00  0.00    +0.000 HD
ENDBRANCH   6   9
BRANCH   8  11
ATOM     11  O   UNL     1       4.236   2.986  20.029  0.00  0.00    +0.000 OA
ATOM     12  H   UNL     1       4.750   2.558  19.307  0.00  0.00    +0.000 HD
ENDBRANCH   8  11
BRANCH   3  13
ATOM     13  O   UNL     1       2.651   4.491  21.579  0.00  0.00    +0.000 OA
ATOM     14  H   UNL     1       2.906   3.607  21.902  0.00  0.00    +0.000 HD
ENDBRANCH   3  13
BRANCH   7  15
ATOM     15  O   UNL     1       4.364   3.473  17.162  0.00  0.00    +0.000 OA
BRANCH  15  16
ATOM     16  C   UNL     1       5.104   4.676  16.944  0.00  0.00    +0.000 C 
BRANCH  16  17
ATOM     17  C   UNL     1       6.590   4.551  17.271  0.00  0.00    +0.000 C 
ATOM     18  O   UNL     1       7.502   4.889  16.530  0.00  0.00    +0.000 OA
BRANCH  17  19
ATOM     19  O   UNL     1       6.795   4.006  18.496  0.00  0.00    +0.000 OA
ATOM     20  H   UNL     1       6.482   3.076  18.496  0.00  0.00    +0.000 HD
ENDBRANCH  17  19
ENDBRANCH  16  17
ENDBRANCH  15  16
ENDBRANCH   7  15
ENDBRANCH   2   3
ENDBRANCH   1   2
BRANCH   1  21
ATOM     21  C   UNL     1       1.765   7.900  20.585  0.00  0.00    +0.000 C 
BRANCH  21  22
ATOM     22  C   UNL     1       0.892   8.929  21.341  0.00  0.00    +0.000 C 
ATOM     23  C   UNL     1       1.554   9.207  22.697  0.00  0.00    +0.000 C 
ATOM     24  C   UNL     1      -0.511   8.331  21.527  0.00  0.00    +0.000 C 
BRANCH  22  25
ATOM     25  O   UNL     1       0.867  10.092  20.485  0.00  0.00    +0.000 OA
BRANCH  25  29
ATOM     26  C   UNL     1      -2.827  12.297  20.607  0.00  0.00    +0.000 C 
ATOM     27  C   UNL     1      -1.641  12.632  19.707  0.00  0.00    +0.000 C 
ATOM     28  O   UNL     1      -0.447  11.994  20.176  0.00  0.00    +0.000 OA
ATOM     29  C   UNL     1      -0.414  10.577  20.063  0.00  0.00    +0.000 C 
ATOM     30  C   UNL     1      -0.574  10.169  18.581  0.00  0.00    +0.000 C 
ATOM     31  C   UNL     1      -1.847  10.790  17.992  0.00  0.00    +0.000 C 
ATOM     32  C   UNL     1      -1.874  12.310  18.223  0.00  0.00    +0.000 C 
BRANCH  32  33
ATOM     33  O   UNL     1      -0.843  12.945  17.445  0.00  0.00    +0.000 OA
ATOM     34  H   UNL     1      -0.979  13.913  17.532  0.00  0.00    +0.000 HD
ENDBRANCH  32  33
BRANCH  31  35
ATOM     35  O   UNL     1      -1.919  10.501  16.592  0.00  0.00    +0.000 OA
ATOM     36  H   UNL     1      -2.503  11.195  16.221  0.00  0.00    +0.000 HD
ENDBRANCH  31  35
BRANCH  30  37
ATOM     37  O   UNL     1       0.567  10.650  17.828  0.00  0.00    +0.000 OA
ATOM     38  H   UNL     1       1.344  10.347  18.344  0.00  0.00    +0.000 HD
ENDBRANCH  30  37
ENDBRANCH  25  29
ENDBRANCH  22  25
ENDBRANCH  21  22
ENDBRANCH   1  21
TORSDOF 16
ENDMDL
MODEL 2
REMARK VINA RESULT:      -7.1      1.960      9.161
REMARK  Name = 
REMARK  19 active torsions:
REMARK  status: ('A' for Active; 'I' for Inactive)
REMARK    1  A    between atoms: C_1  and  C_2
REMARK    2  A    between atoms: C_4  and  O_5
REMARK    3  A    between atoms: O_5  and  C_6
REMARK    4  A    between atoms: C_6  and  C_7
REMARK    5  A    between atoms: C_6  and  C_8
REMARK    6  A    between atoms: C_6  and  C_9
REMARK    7  A    between atoms: C_9  and  O_10
REMARK    8  A    between atoms: O_10  and  C_11
REMARK    9  A    between atoms: C_11  and  C_12
REMARK   10  A    between atoms: C_12  and  O_13
REMARK   11  A    between atoms: C_16  and  O_17
REMARK   12  A    between atoms: C_18  and  O_19
REMARK   13  A    between atoms: O_19  and  C_20
REMARK   14  A    between atoms: C_20  and  C_21
REMARK   15  A    between atoms: C_21  and  O_23
REMARK   16  A    between atoms: C_24  and  O_25
REMARK   17  A    between atoms: C_26  and  O_27
REMARK   18  A    between atoms: C_28  and  O_29
REMARK   19  A    between atoms: C_30  and  O_31
REMARK                            x       y       z     vdW  Elec       q    Type
REMARK                         _______ _______ _______ _____ _____    ______ ____
ROOT
ATOM      1  O   UNL     1       1.552   7.912  18.987  0.00  0.00    +0.000 OA
ENDROOT
BRANCH   1   2
ATOM      2  C   UNL     1       1.134   9.150  19.569  0.00  0.00    +0.000 C 
BRANCH   2   3
ATOM      3  C   UNL     1       0.842  10.238  18.504  0.00  0.00    +0.000 C 
ATOM      4  C   UNL     1      -0.380   9.892  17.637  0.00  0.00    +0.000 C 
ATOM      5  C   UNL     1      -1.716  10.077  18.352  0.00  0.00    +0.000 C 
ATOM      6  C   UNL     1      -1.847  11.444  19.032  0.00  0.00    +0.000 C 
ATOM      7  C   UNL     1      -0.646  11.711  19.972  0.00  0.00    +0.000 C 
ATOM      8  C   UNL     1       0.674  11.630  19.161  0.00  0.00    +0.000 C 
BRANCH   6   9
ATOM      9  O   UNL     1      -1.978  12.461  18.037  0.00  0.00    +0.000 OA
ATOM     10  H   UNL     1      -1.464  13.243  18.345  0.00  0.00    +0.000 HD
ENDBRANCH   6   9
BRANCH   8  11
ATOM     11  O   UNL     1       0.678  12.625  18.111  0.00  0.00    +0.000 OA
ATOM     12  H   UNL     1       1.553  13.068  18.202  0.00  0.00    +0.000 HD
ENDBRANCH   8  11
BRANCH   3  13
ATOM     13  O   UNL     1       1.950  10.327  17.579  0.00  0.00    +0.000 OA
ATOM     14  H   UNL     1       1.699  10.953  16.874  0.00  0.00    +0.000 HD
ENDBRANCH   3  13
BRANCH   7  15
ATOM     15  O   UNL     1      -0.692  12.981  20.655  0.00  0.00    +0.000 OA
BRANCH  15  16
ATOM     16  C   UNL     1      -0.392  12.932  22.052  0.00  0.00    +0.000 C 
BRANCH  16  17
ATOM     17  C   UNL     1      -1.203  11.891  22.819  0.00  0.00    +0.000 C 
ATOM     18  O   UNL     1      -2.410  11.940  23.005  0.00  0.00    +0.000 OA
BRANCH  17  19
ATOM     19  O   UNL     1      -0.422  10.885  23.289  0.00  0.00    +0.000 OA
ATOM     20  H   UNL     1       0.501  11.021  22.986  0.00  0.00    +0.000 HD
ENDBRANCH  17  19
ENDBRANCH  16  17
ENDBRANCH  15  16
ENDBRANCH   7  15
ENDBRANCH   2   3
ENDBRANCH   1   2
BRANCH   1  21
ATOM     21  C   UNL     1       2.658   7.292  19.646  0.00  0.00    +0.000 C 
BRANCH  21  22
ATOM     22  C   UNL     1       2.617   5.754  19.484  0.00  0.00    +0.000 C 
ATOM     23  C   UNL     1       2.033   5.439  18.101  0.00  0.00    +0.000 C 
ATOM     24  C   UNL     1       1.734   5.172  20.599  0.00  0.00    +0.000 C 
BRANCH  22  25
ATOM     25  O   UNL     1       3.992   5.331  19.618  0.00  0.00    +0.000 OA
BRANCH  25  29
ATOM     26  C   UNL     1       6.915   7.489  17.312  0.00  0.00    +0.000 C 
ATOM     27  C   UNL     1       7.193   6.206  18.090  0.00  0.00    +0.000 C 
ATOM     28  O   UNL     1       6.167   5.964  19.059  0.00  0.00    +0.000 OA
ATOM     29  C   UNL     1       4.886   5.631  18.538  0.00  0.00    +0.000 C 
ATOM     30  C   UNL     1       4.989   4.349  17.682  0.00  0.00    +0.000 C 
ATOM     31  C   UNL     1       6.056   4.521  16.593  0.00  0.00    +0.000 C 
ATOM     32  C   UNL     1       7.395   4.969  17.201  0.00  0.00    +0.000 C 
BRANCH  32  33
ATOM     33  O   UNL     1       7.951   3.911  18.003  0.00  0.00    +0.000 OA
ATOM     34  H   UNL     1       7.233   3.594  18.590  0.00  0.00    +0.000 HD
ENDBRANCH  32  33
BRANCH  31  35
ATOM     35  O   UNL     1       6.222   3.288  15.885  0.00  0.00    +0.000 OA
ATOM     36  H   UNL     1       6.084   3.517  14.942  0.00  0.00    +0.000 HD
ENDBRANCH  31  35
BRANCH  30  37
ATOM     37  O   UNL     1       5.368   3.238  18.531  0.00  0.00    +0.000 OA
ATOM     38  H   UNL     1       5.889   2.650  17.944  0.00  0.00    +0.000 HD
ENDBRANCH  30  37
ENDBRANCH  25  29
ENDBRANCH  22  25
ENDBRANCH  21  22
ENDBRANCH   1  21
TORSDOF 16
ENDMDL
MODEL 3
REMARK VINA RESULT:      -6.9      1.284      1.630
REMARK  Name = 
REMARK  19 active torsions:
REMARK  status: ('A' for Active; 'I' for Inactive)
REMARK    1  A    between atoms: C_1  and  C_2
REMARK    2  A    between atoms: C_4  and  O_5
REMARK    3  A    between atoms: O_5  and  C_6
REMARK    4  A    between atoms: C_6  and  C_7
REMARK    5  A    between atoms: C_6  and  C_8
REMARK    6  A    between atoms: C_6  and  C_9
REMARK    7  A    between atoms: C_9  and  O_10
REMARK    8  A    between atoms: O_10  and  C_11
REMARK    9  A    between atoms: C_11  and  C_12
REMARK   10  A    between atoms: C_12  and  O_13
REMARK   11  A    between atoms: C_16  and  O_17
REMARK   12  A    between atoms: C_18  and  O_19
REMARK   13  A    between atoms: O_19  and  C_20
REMARK   14  A    between atoms: C_20  and  C_21
REMARK   15  A    between atoms: C_21  and  O_23
REMARK   16  A    between atoms: C_24  and  O_25
REMARK   17  A    between atoms: C_26  and  O_27
REMARK   18  A    between atoms: C_28  and  O_29
REMARK   19  A    between atoms: C_30  and  O_31
REMARK                            x       y       z     vdW  Elec       q    Type
REMARK                         _______ _______ _______ _____ _____    ______ ____
ROOT
ATOM      1  O   UNL     1       1.698   6.281  20.559  0.00  0.00    +0.000 OA
ENDROOT
BRANCH   1   2
ATOM      2  C   UNL     1       1.578   5.475  19.384  0.00  0.00    +0.000 C 
BRANCH   2   3
ATOM      3  C   UNL     1       1.965   3.996  19.635  0.00  0.00    +0.000 C 
ATOM      4  C   UNL     1       1.566   3.082  18.465  0.00  0.00    +0.000 C 
ATOM      5  C   UNL     1       2.463   3.222  17.238  0.00  0.00    +0.000 C 
ATOM      6  C   UNL     1       3.955   3.128  17.574  0.00  0.00    +0.000 C 
ATOM      7  C   UNL     1       4.336   4.134  18.688  0.00  0.00    +0.000 C 
ATOM      8  C   UNL     1       3.476   3.860  19.949  0.00  0.00    +0.000 C 
BRANCH   6   9
ATOM      9  O   UNL     1       4.279   1.784  17.940  0.00  0.00    +0.000 OA
ATOM     10  H   UNL     1       4.371   1.267  17.107  0.00  0.00    +0.000 HD
ENDBRANCH   6   9
BRANCH   8  11
ATOM     11  O   UNL     1       3.714   2.520  20.436  0.00  0.00    +0.000 OA
ATOM     12  H   UNL     1       3.924   2.643  21.390  0.00  0.00    +0.000 HD
ENDBRANCH   8  11
BRANCH   3  13
ATOM     13  O   UNL     1       1.239   3.488  20.778  0.00  0.00    +0.000 OA
ATOM     14  H   UNL     1       1.854   3.460  21.534  0.00  0.00    +0.000 HD
ENDBRANCH   3  13
BRANCH   7  15
ATOM     15  O   UNL     1       5.729   4.111  19.064  0.00  0.00    +0.000 OA
BRANCH  15  16
ATOM     16  C   UNL     1       6.502   5.221  18.604  0.00  0.00    +0.000 C 
BRANCH  16  17
ATOM     17  C   UNL     1       7.437   4.881  17.446  0.00  0.00    +0.000 C 
ATOM     18  O   UNL     1       7.364   5.356  16.322  0.00  0.00    +0.000 OA
BRANCH  17  19
ATOM     19  O   UNL     1       8.376   3.968  17.803  0.00  0.00    +0.000 OA
ATOM     20  H   UNL     1       9.269   4.364  17.711  0.00  0.00    +0.000 HD
ENDBRANCH  17  19
ENDBRANCH  16  17
ENDBRANCH  15  16
ENDBRANCH   7  15
ENDBRANCH   2   3
ENDBRANCH   1   2
BRANCH   1  21
ATOM     21  C   UNL     1       2.067   7.640  20.311  0.00  0.00    +0.000 C 
BRANCH  21  22
ATOM     22  C   UNL     1       0.990   8.618  20.834  0.00  0.00    +0.000 C 
ATOM     23  C   UNL     1       1.581   9.380  22.027  0.00  0.00    +0.000 C 
ATOM     24  C   UNL     1      -0.242   7.802  21.259  0.00  0.00    +0.000 C 
BRANCH  22  25
ATOM     25  O   UNL     1       0.697   9.479  19.713  0.00  0.00    +0.000 OA
BRANCH  25  29
ATOM     26  C   UNL     1       0.620  13.613  20.908  0.00  0.00    +0.000 C 
ATOM     27  C   UNL     1       0.483  13.118  19.471  0.00  0.00    +0.000 C 
ATOM     28  O   UNL     1       0.949  11.770  19.348  0.00  0.00    +0.000 OA
ATOM     29  C   UNL     1       0.161  10.779  19.996  0.00  0.00    +0.000 C 
ATOM     30  C   UNL     1      -1.274  10.798  19.425  0.00  0.00    +0.000 C 
ATOM     31  C   UNL     1      -1.871  12.207  19.534  0.00  0.00    +0.000 C 
ATOM     32  C   UNL     1      -0.937  13.250  18.899  0.00  0.00    +0.000 C 
BRANCH  32  33
ATOM     33  O   UNL     1      -0.880  13.058  17.473  0.00  0.00    +0.000 OA
ATOM     34  H   UNL     1      -0.004  12.662  17.277  0.00  0.00    +0.000 HD
ENDBRANCH  32  33
BRANCH  31  35
ATOM     35  O   UNL     1      -3.152  12.237  18.897  0.00  0.00    +0.000 OA
ATOM     36  H   UNL     1      -2.957  12.214  17.937  0.00  0.00    +0.000 HD
ENDBRANCH  31  35
BRANCH  30  37
ATOM     37  O   UNL     1      -1.237  10.418  18.027  0.00  0.00    +0.000 OA
ATOM     38  H   UNL     1      -0.595  11.040  17.624  0.00  0.00    +0.000 HD
ENDBRANCH  30  37
ENDBRANCH  25  29
ENDBRANCH  22  25
ENDBRANCH  21  22
ENDBRANCH   1  21
TORSDOF 16
ENDMDL
MODEL 4
REMARK VINA RESULT:      -6.8      1.271      1.634
REMARK  Name = 
REMARK  19 active torsions:
REMARK  status: ('A' for Active; 'I' for Inactive)
REMARK    1  A    between atoms: C_1  and  C_2
REMARK    2  A    between atoms: C_4  and  O_5
REMARK    3  A    between atoms: O_5  and  C_6
REMARK    4  A    between atoms: C_6  and  C_7
REMARK    5  A    between atoms: C_6  and  C_8
REMARK    6  A    between atoms: C_6  and  C_9
REMARK    7  A    between atoms: C_9  and  O_10
REMARK    8  A    between atoms: O_10  and  C_11
REMARK    9  A    between atoms: C_11  and  C_12
REMARK   10  A    between atoms: C_12  and  O_13
REMARK   11  A    between atoms: C_16  and  O_17
REMARK   12  A    between atoms: C_18  and  O_19
REMARK   13  A    between atoms: O_19  and  C_20
REMARK   14  A    between atoms: C_20  and  C_21
REMARK   15  A    between atoms: C_21  and  O_23
REMARK   16  A    between atoms: C_24  and  O_25
REMARK   17  A    between atoms: C_26  and  O_27
REMARK   18  A    between atoms: C_28  and  O_29
REMARK   19  A    between atoms: C_30  and  O_31
REMARK                            x       y       z     vdW  Elec       q    Type
REMARK                         _______ _______ _______ _____ _____    ______ ____
ROOT
ATOM      1  O   UNL     1       1.604   7.166  20.541  0.00  0.00    +0.000 OA
ENDROOT
BRANCH   1   2
ATOM      2  C   UNL     1       2.333   6.461  19.533  0.00  0.00    +0.000 C 
BRANCH   2   3
ATOM      3  C   UNL     1       2.510   4.958  19.868  0.00  0.00    +0.000 C 
ATOM      4  C   UNL     1       1.359   4.099  19.320  0.00  0.00    +0.000 C 
ATOM      5  C   UNL     1       1.417   3.880  17.811  0.00  0.00    +0.000 C 
ATOM      6  C   UNL     1       2.790   3.400  17.327  0.00  0.00    +0.000 C 
ATOM      7  C   UNL     1       3.912   4.349  17.818  0.00  0.00    +0.000 C 
ATOM      8  C   UNL     1       3.878   4.432  19.367  0.00  0.00    +0.000 C 
BRANCH   6   9
ATOM      9  O   UNL     1       3.006   2.056  17.760  0.00  0.00    +0.000 OA
ATOM     10  H   UNL     1       2.401   1.890  18.520  0.00  0.00    +0.000 HD
ENDBRANCH   6   9
BRANCH   8  11
ATOM     11  O   UNL     1       4.093   3.124  19.944  0.00  0.00    +0.000 OA
ATOM     12  H   UNL     1       3.561   2.519  19.377  0.00  0.00    +0.000 HD
ENDBRANCH   8  11
BRANCH   3  13
ATOM     13  O   UNL     1       2.474   4.770  21.302  0.00  0.00    +0.000 OA
ATOM     14  H   UNL     1       1.545   4.624  21.560  0.00  0.00    +0.000 HD
ENDBRANCH   3  13
BRANCH   7  15
ATOM     15  O   UNL     1       5.240   3.969  17.405  0.00  0.00    +0.000 OA
BRANCH  15  16
ATOM     16  C   UNL     1       5.667   4.512  16.154  0.00  0.00    +0.000 C 
BRANCH  16  17
ATOM     17  C   UNL     1       7.177   4.717  16.056  0.00  0.00    +0.000 C 
ATOM     18  O   UNL     1       7.988   4.374  16.904  0.00  0.00    +0.000 OA
BRANCH  17  19
ATOM     19  O   UNL     1       7.530   5.341  14.903  0.00  0.00    +0.000 OA
ATOM     20  H   UNL     1       7.301   6.294  14.965  0.00  0.00    +0.000 HD
ENDBRANCH  17  19
ENDBRANCH  16  17
ENDBRANCH  15  16
ENDBRANCH   7  15
ENDBRANCH   2   3
ENDBRANCH   1   2
BRANCH   1  21
ATOM     21  C   UNL     1       1.545   8.581  20.349  0.00  0.00    +0.000 C 
BRANCH  21  22
ATOM     22  C   UNL     1       0.789   9.273  21.507  0.00  0.00    +0.000 C 
ATOM     23  C   UNL     1       1.671   9.199  22.760  0.00  0.00    +0.000 C 
ATOM     24  C   UNL     1      -0.541   8.536  21.727  0.00  0.00    +0.000 C 
BRANCH  22  25
ATOM     25  O   UNL     1       0.579  10.628  21.054  0.00  0.00    +0.000 OA
BRANCH  25  29
ATOM     26  C   UNL     1      -2.926  12.375  22.838  0.00  0.00    +0.000 C 
ATOM     27  C   UNL     1      -1.961  13.110  21.911  0.00  0.00    +0.000 C 
ATOM     28  O   UNL     1      -0.713  12.414  21.817  0.00  0.00    +0.000 OA
ATOM     29  C   UNL     1      -0.749  11.161  21.147  0.00  0.00    +0.000 C 
ATOM     30  C   UNL     1      -1.248  11.358  19.698  0.00  0.00    +0.000 C 
ATOM     31  C   UNL     1      -2.601  12.082  19.696  0.00  0.00    +0.000 C 
ATOM     32  C   UNL     1      -2.530  13.384  20.510  0.00  0.00    +0.000 C 
BRANCH  32  33
ATOM     33  O   UNL     1      -1.679  14.336  19.845  0.00  0.00    +0.000 OA
ATOM     34  H   UNL     1      -1.356  13.902  19.027  0.00  0.00    +0.000 HD
ENDBRANCH  32  33
BRANCH  31  35
ATOM     35  O   UNL     1      -2.993  12.362  18.348  0.00  0.00    +0.000 OA
ATOM     36  H   UNL     1      -3.924  12.660  18.413  0.00  0.00    +0.000 HD
ENDBRANCH  31  35
BRANCH  30  37
ATOM     37  O   UNL     1      -0.290  12.166  18.970  0.00  0.00    +0.000 OA
ATOM     38  H   UNL     1       0.548  12.057  19.468  0.00  0.00    +0.000 HD
ENDBRANCH  30  37
ENDBRANCH  25  29
ENDBRANCH  22  25
ENDBRANCH  21  22
ENDBRANCH   1  21
TORSDOF 16
ENDMDL
MODEL 5
REMARK VINA RESULT:      -6.8      1.431      2.044
REMARK  Name = 
REMARK  19 active torsions:
REMARK  status: ('A' for Active; 'I' for Inactive)
REMARK    1  A    between atoms: C_1  and  C_2
REMARK    2  A    between atoms: C_4  and  O_5
REMARK    3  A    between atoms: O_5  and  C_6
REMARK    4  A    between atoms: C_6  and  C_7
REMARK    5  A    between atoms: C_6  and  C_8
REMARK    6  A    between atoms: C_6  and  C_9
REMARK    7  A    between atoms: C_9  and  O_10
REMARK    8  A    between atoms: O_10  and  C_11
REMARK    9  A    between atoms: C_11  and  C_12
REMARK   10  A    between atoms: C_12  and  O_13
REMARK   11  A    between atoms: C_16  and  O_17
REMARK   12  A    between atoms: C_18  and  O_19
REMARK   13  A    between atoms: O_19  and  C_20
REMARK   14  A    between atoms: C_20  and  C_21
REMARK   15  A    between atoms: C_21  and  O_23
REMARK   16  A    between atoms: C_24  and  O_25
REMARK   17  A    between atoms: C_26  and  O_27
REMARK   18  A    between atoms: C_28  and  O_29
REMARK   19  A    between atoms: C_30  and  O_31
REMARK                            x       y       z     vdW  Elec       q    Type
REMARK                         _______ _______ _______ _____ _____    ______ ____
ROOT
ATOM      1  O   UNL     1       1.292   6.213  20.670  0.00  0.00    +0.000 OA
ENDROOT
BRANCH   1   2
ATOM      2  C   UNL     1       2.207   5.192  21.078  0.00  0.00    +0.000 C 
BRANCH   2   3
ATOM      3  C   UNL     1       2.230   3.989  20.101  0.00  0.00    +0.000 C 
ATOM      4  C   UNL     1       1.481   4.287  18.792  0.00  0.00    +0.000 C 
ATOM      5  C   UNL     1       2.240   5.211  17.843  0.00  0.00    +0.000 C 
ATOM      6  C   UNL     1       3.687   4.766  17.604  0.00  0.00    +0.000 C 
ATOM      7  C   UNL     1       4.435   4.573  18.946  0.00  0.00    +0.000 C 
ATOM      8  C   UNL     1       3.681   3.531  19.814  0.00  0.00    +0.000 C 
BRANCH   6   9
ATOM      9  O   UNL     1       3.696   3.574  16.816  0.00  0.00    +0.000 OA
ATOM     10  H   UNL     1       3.120   2.917  17.270  0.00  0.00    +0.000 HD
ENDBRANCH   6   9
BRANCH   8  11
ATOM     11  O   UNL     1       3.622   2.259  19.130  0.00  0.00    +0.000 OA
ATOM     12  H   UNL     1       2.928   2.385  18.443  0.00  0.00    +0.000 HD
ENDBRANCH   8  11
BRANCH   3  13
ATOM     13  O   UNL     1       1.531   2.868  20.690  0.00  0.00    +0.000 OA
ATOM     14  H   UNL     1       1.618   2.938  21.659  0.00  0.00    +0.000 HD
ENDBRANCH   3  13
BRANCH   7  15
ATOM     15  O   UNL     1       5.809   4.154  18.810  0.00  0.00    +0.000 OA
BRANCH  15  16
ATOM     16  C   UNL     1       6.711   5.164  18.353  0.00  0.00    +0.000 C 
BRANCH  16  17
ATOM     17  C   UNL     1       7.060   5.052  16.871  0.00  0.00    +0.000 C 
ATOM     18  O   UNL     1       7.570   5.938  16.202  0.00  0.00    +0.000 OA
BRANCH  17  19
ATOM     19  O   UNL     1       6.727   3.838  16.363  0.00  0.00    +0.000 OA
ATOM     20  H   UNL     1       6.077   3.955  15.637  0.00  0.00    +0.000 HD
ENDBRANCH  17  19
ENDBRANCH  16  17
ENDBRANCH  15  16
ENDBRANCH   7  15
ENDBRANCH   2   3
ENDBRANCH   1   2
BRANCH   1  21
ATOM     21  C   UNL     1       1.874   7.512  20.536  0.00  0.00    +0.000 C 
BRANCH  21  22
ATOM     22  C   UNL     1       0.872   8.619  20.940  0.00  0.00    +0.000 C 
ATOM     23  C   UNL     1       1.517   9.460  22.049  0.00  0.00    +0.000 C 
ATOM     24  C   UNL     1      -0.418   7.948  21.437  0.00  0.00    +0.000 C 
BRANCH  22  25
ATOM     25  O   UNL     1       0.648   9.373  19.729  0.00  0.00    +0.000 OA
BRANCH  25  29
ATOM     26  C   UNL     1       1.729  13.536  19.873  0.00  0.00    +0.000 C 
ATOM     27  C   UNL     1       0.999  12.864  18.713  0.00  0.00    +0.000 C 
ATOM     28  O   UNL     1       1.147  11.441  18.772  0.00  0.00    +0.000 OA
ATOM     29  C   UNL     1       0.486  10.792  19.851  0.00  0.00    +0.000 C 
ATOM     30  C   UNL     1      -1.032  11.071  19.776  0.00  0.00    +0.000 C 
ATOM     31  C   UNL     1      -1.294  12.582  19.730  0.00  0.00    +0.000 C 
ATOM     32  C   UNL     1      -0.485  13.247  18.605  0.00  0.00    +0.000 C 
BRANCH  32  33
ATOM     33  O   UNL     1      -0.979  12.818  17.323  0.00  0.00    +0.000 OA
ATOM     34  H   UNL     1      -0.205  12.771  16.723  0.00  0.00    +0.000 HD
ENDBRANCH  32  33
BRANCH  31  35
ATOM     35  O   UNL     1      -2.692  12.822  19.543  0.00  0.00    +0.000 OA
ATOM     36  H   UNL     1      -2.759  13.252  18.665  0.00  0.00    +0.000 HD
ENDBRANCH  31  35
BRANCH  30  37
ATOM     37  O   UNL     1      -1.567  10.472  18.569  0.00  0.00    +0.000 OA
ATOM     38  H   UNL     1      -1.049  10.882  17.844  0.00  0.00    +0.000 HD
ENDBRANCH  30  37
ENDBRANCH  25  29
ENDBRANCH  22  25
ENDBRANCH  21  22
ENDBRANCH   1  21
TORSDOF 16
ENDMDL
MODEL 6
REMARK VINA RESULT:      -6.8      1.406      1.818
REMARK  Name = 
REMARK  19 active torsions:
REMARK  status: ('A' for Active; 'I' for Inactive)
REMARK    1  A    between atoms: C_1  and  C_2
REMARK    2  A    between atoms: C_4  and  O_5
REMARK    3  A    between atoms: O_5  and  C_6
REMARK    4  A    between atoms: C_6  and  C_7
REMARK    5  A    between atoms: C_6  and  C_8
REMARK    6  A    between atoms: C_6  and  C_9
REMARK    7  A    between atoms: C_9  and  O_10
REMARK    8  A    between atoms: O_10  and  C_11
REMARK    9  A    between atoms: C_11  and  C_12
REMARK   10  A    between atoms: C_12  and  O_13
REMARK   11  A    between atoms: C_16  and  O_17
REMARK   12  A    between atoms: C_18  and  O_19
REMARK   13  A    between atoms: O_19  and  C_20
REMARK   14  A    between atoms: C_20  and  C_21
REMARK   15  A    between atoms: C_21  and  O_23
REMARK   16  A    between atoms: C_24  and  O_25
REMARK   17  A    between atoms: C_26  and  O_27
REMARK   18  A    between atoms: C_28  and  O_29
REMARK   19  A    between atoms: C_30  and  O_31
REMARK                            x       y       z     vdW  Elec       q    Type
REMARK                         _______ _______ _______ _____ _____    ______ ____
ROOT
ATOM      1  O   UNL     1       2.271   7.278  20.490  0.00  0.00    +0.000 OA
ENDROOT
BRANCH   1   2
ATOM      2  C   UNL     1       2.472   6.406  19.374  0.00  0.00    +0.000 C 
BRANCH   2   3
ATOM      3  C   UNL     1       2.606   4.921  19.797  0.00  0.00    +0.000 C 
ATOM      4  C   UNL     1       1.399   4.077  19.354  0.00  0.00    +0.000 C 
ATOM      5  C   UNL     1       1.380   3.764  17.860  0.00  0.00    +0.000 C 
ATOM      6  C   UNL     1       2.711   3.199  17.350  0.00  0.00    +0.000 C 
ATOM      7  C   UNL     1       3.889   4.129  17.731  0.00  0.00    +0.000 C 
ATOM      8  C   UNL     1       3.928   4.309  19.272  0.00  0.00    +0.000 C 
BRANCH   6   9
ATOM      9  O   UNL     1       2.894   1.876  17.857  0.00  0.00    +0.000 OA
ATOM     10  H   UNL     1       2.032   1.406  17.771  0.00  0.00    +0.000 HD
ENDBRANCH   6   9
BRANCH   8  11
ATOM     11  O   UNL     1       4.119   3.031  19.920  0.00  0.00    +0.000 OA
ATOM     12  H   UNL     1       3.222   2.790  20.248  0.00  0.00    +0.000 HD
ENDBRANCH   8  11
BRANCH   3  13
ATOM     13  O   UNL     1       2.627   4.823  21.240  0.00  0.00    +0.000 OA
ATOM     14  H   UNL     1       3.174   4.051  21.478  0.00  0.00    +0.000 HD
ENDBRANCH   3  13
BRANCH   7  15
ATOM     15  O   UNL     1       5.182   3.669  17.286  0.00  0.00    +0.000 OA
BRANCH  15  16
ATOM     16  C   UNL     1       5.628   4.218  16.045  0.00  0.00    +0.000 C 
BRANCH  16  17
ATOM     17  C   UNL     1       7.056   4.759  16.089  0.00  0.00    +0.000 C 
ATOM     18  O   UNL     1       7.487   5.659  15.384  0.00  0.00    +0.000 OA
BRANCH  17  19
ATOM     19  O   UNL     1       7.814   4.113  17.011  0.00  0.00    +0.000 OA
ATOM     20  H   UNL     1       8.603   4.656  17.223  0.00  0.00    +0.000 HD
ENDBRANCH  17  19
ENDBRANCH  16  17
ENDBRANCH  15  16
ENDBRANCH   7  15
ENDBRANCH   2   3
ENDBRANCH   1   2
BRANCH   1  21
ATOM     21  C   UNL     1       0.912   7.383  20.921  0.00  0.00    +0.000 C 
BRANCH  21  22
ATOM     22  C   UNL     1       0.557   8.839  21.304  0.00  0.00    +0.000 C 
ATOM     23  C   UNL     1       1.754   9.438  22.053  0.00  0.00    +0.000 C 
ATOM     24  C   UNL     1      -0.694   8.816  22.197  0.00  0.00    +0.000 C 
BRANCH  22  25
ATOM     25  O   UNL     1       0.301   9.500  20.046  0.00  0.00    +0.000 OA
BRANCH  25  29
ATOM     26  C   UNL     1       1.966  13.453  19.697  0.00  0.00    +0.000 C 
ATOM     27  C   UNL     1       1.074  12.787  18.653  0.00  0.00    +0.000 C 
ATOM     28  O   UNL     1       1.023  11.370  18.853  0.00  0.00    +0.000 OA
ATOM     29  C   UNL     1       0.349  10.933  20.026  0.00  0.00    +0.000 C 
ATOM     30  C   UNL     1      -1.116  11.423  20.000  0.00  0.00    +0.000 C 
ATOM     31  C   UNL     1      -1.164  12.944  19.809  0.00  0.00    +0.000 C 
ATOM     32  C   UNL     1      -0.345  13.371  18.581  0.00  0.00    +0.000 C 
BRANCH  32  33
ATOM     33  O   UNL     1      -0.978  12.899  17.377  0.00  0.00    +0.000 OA
ATOM     34  H   UNL     1      -0.292  12.903  16.677  0.00  0.00    +0.000 HD
ENDBRANCH  32  33
BRANCH  31  35
ATOM     35  O   UNL     1      -2.524  13.368  19.669  0.00  0.00    +0.000 OA
ATOM     36  H   UNL     1      -2.946  12.682  19.110  0.00  0.00    +0.000 HD
ENDBRANCH  31  35
BRANCH  30  37
ATOM     37  O   UNL     1      -1.808  10.796  18.891  0.00  0.00    +0.000 OA
ATOM     38  H   UNL     1      -1.596  11.363  18.120  0.00  0.00    +0.000 HD
ENDBRANCH  30  37
ENDBRANCH  25  29
ENDBRANCH  22  25
ENDBRANCH  21  22
ENDBRANCH   1  21
TORSDOF 16
ENDMDL
MODEL 7
REMARK VINA RESULT:      -6.8      1.138      1.527
REMARK  Name = 
REMARK  19 active torsions:
REMARK  status: ('A' for Active; 'I' for Inactive)
REMARK    1  A    between atoms: C_1  and  C_2
REMARK    2  A    between atoms: C_4  and  O_5
REMARK    3  A    between atoms: O_5  and  C_6
REMARK    4  A    between atoms: C_6  and  C_7
REMARK    5  A    between atoms: C_6  and  C_8
REMARK    6  A    between atoms: C_6  and  C_9
REMARK    7  A    between atoms: C_9  and  O_10
REMARK    8  A    between atoms: O_10  and  C_11
REMARK    9  A    between atoms: C_11  and  C_12
REMARK   10  A    between atoms: C_12  and  O_13
REMARK   11  A    between atoms: C_16  and  O_17
REMARK   12  A    between atoms: C_18  and  O_19
REMARK   13  A    between atoms: O_19  and  C_20
REMARK   14  A    between atoms: C_20  and  C_21
REMARK   15  A    between atoms: C_21  and  O_23
REMARK   16  A    between atoms: C_24  and  O_25
REMARK   17  A    between atoms: C_26  and  O_27
REMARK   18  A    between atoms: C_28  and  O_29
REMARK   19  A    between atoms: C_30  and  O_31
REMARK                            x       y       z     vdW  Elec       q    Type
REMARK                         _______ _______ _______ _____ _____    ______ ____
ROOT
ATOM      1  O   UNL     1       1.300   6.172  20.565  0.00  0.00    +0.000 OA
ENDROOT
BRANCH   1   2
ATOM      2  C   UNL     1       2.112   5.129  21.111  0.00  0.00    +0.000 C 
BRANCH   2   3
ATOM      3  C   UNL     1       2.197   3.893  20.181  0.00  0.00    +0.000 C 
ATOM      4  C   UNL     1       1.419   4.095  18.870  0.00  0.00    +0.000 C 
ATOM      5  C   UNL     1       2.112   5.025  17.878  0.00  0.00    +0.000 C 
ATOM      6  C   UNL     1       3.581   4.657  17.639  0.00  0.00    +0.000 C 
ATOM      7  C   UNL     1       4.352   4.561  18.978  0.00  0.00    +0.000 C 
ATOM      8  C   UNL     1       3.670   3.510  19.893  0.00  0.00    +0.000 C 
BRANCH   6   9
ATOM      9  O   UNL     1       3.653   3.438  16.896  0.00  0.00    +0.000 OA
ATOM     10  H   UNL     1       4.565   3.368  16.533  0.00  0.00    +0.000 HD
ENDBRANCH   6   9
BRANCH   8  11
ATOM     11  O   UNL     1       3.680   2.211  19.259  0.00  0.00    +0.000 OA
ATOM     12  H   UNL     1       4.115   1.624  19.918  0.00  0.00    +0.000 HD
ENDBRANCH   8  11
BRANCH   3  13
ATOM     13  O   UNL     1       1.572   2.756  20.820  0.00  0.00    +0.000 OA
ATOM     14  H   UNL     1       2.012   1.950  20.491  0.00  0.00    +0.000 HD
ENDBRANCH   3  13
BRANCH   7  15
ATOM     15  O   UNL     1       5.747   4.218  18.841  0.00  0.00    +0.000 OA
BRANCH  15  16
ATOM     16  C   UNL     1       6.584   5.263  18.341  0.00  0.00    +0.000 C 
BRANCH  16  17
ATOM     17  C   UNL     1       6.993   5.077  16.881  0.00  0.00    +0.000 C 
ATOM     18  O   UNL     1       7.511   5.936  16.183  0.00  0.00    +0.000 OA
BRANCH  17  19
ATOM     19  O   UNL     1       6.705   3.830  16.429  0.00  0.00    +0.000 OA
ATOM     20  H   UNL     1       6.283   3.312  17.148  0.00  0.00    +0.000 HD
ENDBRANCH  17  19
ENDBRANCH  16  17
ENDBRANCH  15  16
ENDBRANCH   7  15
ENDBRANCH   2   3
ENDBRANCH   1   2
BRANCH   1  21
ATOM     21  C   UNL     1       1.929   7.456  20.531  0.00  0.00    +0.000 C 
BRANCH  21  22
ATOM     22  C   UNL     1       0.999   8.551  21.104  0.00  0.00    +0.000 C 
ATOM     23  C   UNL     1       1.581   9.013  22.445  0.00  0.00    +0.000 C 
ATOM     24  C   UNL     1      -0.402   7.948  21.291  0.00  0.00    +0.000 C 
BRANCH  22  25
ATOM     25  O   UNL     1       1.000   9.595  20.106  0.00  0.00    +0.000 OA
BRANCH  25  29
ATOM     26  C   UNL     1      -1.982  12.317  21.596  0.00  0.00    +0.000 C 
ATOM     27  C   UNL     1      -0.762  12.725  20.773  0.00  0.00    +0.000 C 
ATOM     28  O   UNL     1       0.228  11.691  20.781  0.00  0.00    +0.000 OA
ATOM     29  C   UNL     1      -0.114  10.497  20.089  0.00  0.00    +0.000 C 
ATOM     30  C   UNL     1      -0.397  10.819  18.604  0.00  0.00    +0.000 C 
ATOM     31  C   UNL     1      -1.470  11.910  18.492  0.00  0.00    +0.000 C 
ATOM     32  C   UNL     1      -1.093  13.141  19.332  0.00  0.00    +0.000 C 
BRANCH  32  33
ATOM     33  O   UNL     1       0.057  13.792  18.764  0.00  0.00    +0.000 OA
ATOM     34  H   UNL     1       0.789  13.139  18.780  0.00  0.00    +0.000 HD
ENDBRANCH  32  33
BRANCH  31  35
ATOM     35  O   UNL     1      -1.637  12.280  17.119  0.00  0.00    +0.000 OA
ATOM     36  H   UNL     1      -0.810  11.993  16.678  0.00  0.00    +0.000 HD
ENDBRANCH  31  35
BRANCH  30  37
ATOM     37  O   UNL     1       0.819  11.301  17.981  0.00  0.00    +0.000 OA
ATOM     38  H   UNL     1       1.529  10.750  18.375  0.00  0.00    +0.000 HD
ENDBRANCH  30  37
ENDBRANCH  25  29
ENDBRANCH  22  25
ENDBRANCH  21  22
ENDBRANCH   1  21
TORSDOF 16
ENDMDL
MODEL 8
REMARK VINA RESULT:      -6.8      1.062      1.245
REMARK  Name = 
REMARK  19 active torsions:
REMARK  status: ('A' for Active; 'I' for Inactive)
REMARK    1  A    between atoms: C_1  and  C_2
REMARK    2  A    between atoms: C_4  and  O_5
REMARK    3  A    between atoms: O_5  and  C_6
REMARK    4  A    between atoms: C_6  and  C_7
REMARK    5  A    between atoms: C_6  and  C_8
REMARK    6  A    between atoms: C_6  and  C_9
REMARK    7  A    between atoms: C_9  and  O_10
REMARK    8  A    between atoms: O_10  and  C_11
REMARK    9  A    between atoms: C_11  and  C_12
REMARK   10  A    between atoms: C_12  and  O_13
REMARK   11  A    between atoms: C_16  and  O_17
REMARK   12  A    between atoms: C_18  and  O_19
REMARK   13  A    between atoms: O_19  and  C_20
REMARK   14  A    between atoms: C_20  and  C_21
REMARK   15  A    between atoms: C_21  and  O_23
REMARK   16  A    between atoms: C_24  and  O_25
REMARK   17  A    between atoms: C_26  and  O_27
REMARK   18  A    between atoms: C_28  and  O_29
REMARK   19  A    between atoms: C_30  and  O_31
REMARK                            x       y       z     vdW  Elec       q    Type
REMARK                         _______ _______ _______ _____ _____    ______ ____
ROOT
ATOM      1  O   UNL     1       2.356   7.458  20.126  0.00  0.00    +0.000 OA
ENDROOT
BRANCH   1   2
ATOM      2  C   UNL     1       2.457   6.511  19.059  0.00  0.00    +0.000 C 
BRANCH   2   3
ATOM      3  C   UNL     1       2.766   5.078  19.564  0.00  0.00    +0.000 C 
ATOM      4  C   UNL     1       1.585   4.117  19.350  0.00  0.00    +0.000 C 
ATOM      5  C   UNL     1       1.397   3.683  17.899  0.00  0.00    +0.000 C 
ATOM      6  C   UNL     1       2.691   3.175  17.254  0.00  0.00    +0.000 C 
ATOM      7  C   UNL     1       3.829   4.215  17.404  0.00  0.00    +0.000 C 
ATOM      8  C   UNL     1       4.054   4.521  18.908  0.00  0.00    +0.000 C 
BRANCH   6   9
ATOM      9  O   UNL     1       3.046   1.914  17.824  0.00  0.00    +0.000 OA
ATOM     10  H   UNL     1       2.841   1.221  17.156  0.00  0.00    +0.000 HD
ENDBRANCH   6   9
BRANCH   8  11
ATOM     11  O   UNL     1       4.432   3.317  19.614  0.00  0.00    +0.000 OA
ATOM     12  H   UNL     1       5.274   3.040  19.186  0.00  0.00    +0.000 HD
ENDBRANCH   8  11
BRANCH   3  13
ATOM     13  O   UNL     1       2.983   5.099  20.994  0.00  0.00    +0.000 OA
ATOM     14  H   UNL     1       3.616   5.815  21.189  0.00  0.00    +0.000 HD
ENDBRANCH   3  13
BRANCH   7  15
ATOM     15  O   UNL     1       5.086   3.814  16.821  0.00  0.00    +0.000 OA
BRANCH  15  16
ATOM     16  C   UNL     1       5.749   4.822  16.054  0.00  0.00    +0.000 C 
BRANCH  16  17
ATOM     17  C   UNL     1       7.164   5.132  16.539  0.00  0.00    +0.000 C 
ATOM     18  O   UNL     1       7.922   4.323  17.052  0.00  0.00    +0.000 OA
BRANCH  17  19
ATOM     19  O   UNL     1       7.493   6.434  16.341  0.00  0.00    +0.000 OA
ATOM     20  H   UNL     1       8.310   6.485  15.800  0.00  0.00    +0.000 HD
ENDBRANCH  17  19
ENDBRANCH  16  17
ENDBRANCH  15  16
ENDBRANCH   7  15
ENDBRANCH   2   3
ENDBRANCH   1   2
BRANCH   1  21
ATOM     21  C   UNL     1       1.125   7.403  20.851  0.00  0.00    +0.000 C 
BRANCH  21  22
ATOM     22  C   UNL     1       0.723   8.801  21.378  0.00  0.00    +0.000 C 
ATOM     23  C   UNL     1       1.728   9.206  22.463  0.00  0.00    +0.000 C 
ATOM     24  C   UNL     1      -0.700   8.712  21.952  0.00  0.00    +0.000 C 
BRANCH  22  25
ATOM     25  O   UNL     1       0.777   9.662  20.220  0.00  0.00    +0.000 OA
BRANCH  25  29
ATOM     26  C   UNL     1      -1.924  12.798  21.397  0.00  0.00    +0.000 C 
ATOM     27  C   UNL     1      -0.650  13.005  20.583  0.00  0.00    +0.000 C 
ATOM     28  O   UNL     1       0.222  11.876  20.703  0.00  0.00    +0.000 OA
ATOM     29  C   UNL     1      -0.233  10.673  20.096  0.00  0.00    +0.000 C 
ATOM     30  C   UNL     1      -0.446  10.900  18.583  0.00  0.00    +0.000 C 
ATOM     31  C   UNL     1      -1.391  12.086  18.351  0.00  0.00    +0.000 C 
ATOM     32  C   UNL     1      -0.902  13.334  19.104  0.00  0.00    +0.000 C 
BRANCH  32  33
ATOM     33  O   UNL     1       0.325  13.811  18.521  0.00  0.00    +0.000 OA
ATOM     34  H   UNL     1       0.965  13.915  19.257  0.00  0.00    +0.000 HD
ENDBRANCH  32  33
BRANCH  31  35
ATOM     35  O   UNL     1      -1.486  12.358  16.950  0.00  0.00    +0.000 OA
ATOM     36  H   UNL     1      -0.682  12.877  16.738  0.00  0.00    +0.000 HD
ENDBRANCH  31  35
BRANCH  30  37
ATOM     37  O   UNL     1       0.830  11.197  17.961  0.00  0.00    +0.000 OA
ATOM     38  H   UNL     1       1.439  11.343  18.715  0.00  0.00    +0.000 HD
ENDBRANCH  30  37
ENDBRANCH  25  29
ENDBRANCH  22  25
ENDBRANCH  21  22
ENDBRANCH   1  21
TORSDOF 16
ENDMDL
MODEL 9
REMARK VINA RESULT:      -6.8      2.246      9.317
REMARK  Name = 
REMARK  19 active torsions:
REMARK  status: ('A' for Active; 'I' for Inactive)
REMARK    1  A    between atoms: C_1  and  C_2
REMARK    2  A    between atoms: C_4  and  O_5
REMARK    3  A    between atoms: O_5  and  C_6
REMARK    4  A    between atoms: C_6  and  C_7
REMARK    5  A    between atoms: C_6  and  C_8
REMARK    6  A    between atoms: C_6  and  C_9
REMARK    7  A    between atoms: C_9  and  O_10
REMARK    8  A    between atoms: O_10  and  C_11
REMARK    9  A    between atoms: C_11  and  C_12
REMARK   10  A    between atoms: C_12  and  O_13
REMARK   11  A    between atoms: C_16  and  O_17
REMARK   12  A    between atoms: C_18  and  O_19
REMARK   13  A    between atoms: O_19  and  C_20
REMARK   14  A    between atoms: C_20  and  C_21
REMARK   15  A    between atoms: C_21  and  O_23
REMARK   16  A    between atoms: C_24  and  O_25
REMARK   17  A    between atoms: C_26  and  O_27
REMARK   18  A    between atoms: C_28  and  O_29
REMARK   19  A    between atoms: C_30  and  O_31
REMARK                            x       y       z     vdW  Elec       q    Type
REMARK                         _______ _______ _______ _____ _____    ______ ____
ROOT
ATOM      1  O   UNL     1       2.142   7.958  19.029  0.00  0.00    +0.000 OA
ENDROOT
BRANCH   1   2
ATOM      2  C   UNL     1       1.224   8.952  19.494  0.00  0.00    +0.000 C 
BRANCH   2   3
ATOM      3  C   UNL     1       0.985  10.074  18.452  0.00  0.00    +0.000 C 
ATOM      4  C   UNL     1      -0.354   9.909  17.715  0.00  0.00    +0.000 C 
ATOM      5  C   UNL     1      -1.572  10.282  18.557  0.00  0.00    +0.000 C 
ATOM      6  C   UNL     1      -1.437  11.652  19.231  0.00  0.00    +0.000 C 
ATOM      7  C   UNL     1      -0.122  11.741  20.044  0.00  0.00    +0.000 C 
ATOM      8  C   UNL     1       1.085  11.474  19.106  0.00  0.00    +0.000 C 
BRANCH   6   9
ATOM      9  O   UNL     1      -1.520  12.681  18.242  0.00  0.00    +0.000 OA
ATOM     10  H   UNL     1      -0.637  13.113  18.192  0.00  0.00    +0.000 HD
ENDBRANCH   6   9
BRANCH   8  11
ATOM     11  O   UNL     1       1.127  12.461  18.050  0.00  0.00    +0.000 OA
ATOM     12  H   UNL     1       1.431  13.283  18.498  0.00  0.00    +0.000 HD
ENDBRANCH   8  11
BRANCH   3  13
ATOM     13  O   UNL     1       1.996  10.006  17.419  0.00  0.00    +0.000 OA
ATOM     14  H   UNL     1       1.956  10.835  16.908  0.00  0.00    +0.000 HD
ENDBRANCH   3  13
BRANCH   7  15
ATOM     15  O   UNL     1       0.083  13.002  20.713  0.00  0.00    +0.000 OA
BRANCH  15  16
ATOM     16  C   UNL     1      -1.038  13.487  21.455  0.00  0.00    +0.000 C 
BRANCH  16  17
ATOM     17  C   UNL     1      -1.076  13.000  22.901  0.00  0.00    +0.000 C 
ATOM     18  O   UNL     1      -0.900  11.844  23.257  0.00  0.00    +0.000 OA
BRANCH  17  19
ATOM     19  O   UNL     1      -1.339  14.010  23.769  0.00  0.00    +0.000 OA
ATOM     20  H   UNL     1      -1.713  14.773  23.278  0.00  0.00    +0.000 HD
ENDBRANCH  17  19
ENDBRANCH  16  17
ENDBRANCH  15  16
ENDBRANCH   7  15
ENDBRANCH   2   3
ENDBRANCH   1   2
BRANCH   1  21
ATOM     21  C   UNL     1       2.153   6.755  19.802  0.00  0.00    +0.000 C 
BRANCH  21  22
ATOM     22  C   UNL     1       2.827   5.598  19.027  0.00  0.00    +0.000 C 
ATOM     23  C   UNL     1       1.816   5.058  18.008  0.00  0.00    +0.000 C 
ATOM     24  C   UNL     1       3.227   4.508  20.035  0.00  0.00    +0.000 C 
BRANCH  22  25
ATOM     25  O   UNL     1       3.983   6.197  18.403  0.00  0.00    +0.000 OA
BRANCH  25  29
ATOM     26  C   UNL     1       4.966   4.356  14.639  0.00  0.00    +0.000 C 
ATOM     27  C   UNL     1       5.716   5.534  15.255  0.00  0.00    +0.000 C 
ATOM     28  O   UNL     1       4.927   6.167  16.270  0.00  0.00    +0.000 OA
ATOM     29  C   UNL     1       4.706   5.406  17.450  0.00  0.00    +0.000 C 
ATOM     30  C   UNL     1       6.061   5.056  18.106  0.00  0.00    +0.000 C 
ATOM     31  C   UNL     1       6.974   4.349  17.095  0.00  0.00    +0.000 C 
ATOM     32  C   UNL     1       7.104   5.171  15.803  0.00  0.00    +0.000 C 
BRANCH  32  33
ATOM     33  O   UNL     1       7.830   6.387  16.063  0.00  0.00    +0.000 OA
ATOM     34  H   UNL     1       8.580   6.409  15.431  0.00  0.00    +0.000 HD
ENDBRANCH  32  33
BRANCH  31  35
ATOM     35  O   UNL     1       8.263   4.137  17.679  0.00  0.00    +0.000 OA
ATOM     36  H   UNL     1       8.099   4.085  18.644  0.00  0.00    +0.000 HD
ENDBRANCH  31  35
BRANCH  30  37
ATOM     37  O   UNL     1       6.710   6.277  18.540  0.00  0.00    +0.000 OA
ATOM     38  H   UNL     1       6.115   6.634  19.234  0.00  0.00    +0.000 HD
ENDBRANCH  30  37
ENDBRANCH  25  29
ENDBRANCH  22  25
ENDBRANCH  21  22
ENDBRANCH   1  21
TORSDOF 16
ENDMDL
