MODEL 1
REMARK VINA RESULT:      -6.3      0.000      0.000
REMARK  Name = 
REMARK  7 active torsions:
REMARK  status: ('A' for Active; 'I' for Inactive)
REMARK    1  A    between atoms: C_1  and  C_2
REMARK    2  A    between atoms: C_6  and  C_7
REMARK    3  A    between atoms: C_7  and  O_9
REMARK    4  A    between atoms: O_9  and  C_10
REMARK    5  A    between atoms: C_10  and  C_11
REMARK    6  A    between atoms: N_13  and  C_14
REMARK    7  A    between atoms: C_14  and  C_15
REMARK                            x       y       z     vdW  Elec       q    Type
REMARK                         _______ _______ _______ _____ _____    ______ ____
ROOT
ATOM      1  C   UNL     1       2.520   2.839  20.853  0.00  0.00    +0.000 C 
ENDROOT
BRANCH   1   2
ATOM      2  C   UNL     1       1.729   4.133  20.684  0.00  0.00    +0.000 C 
ATOM      3  O   UNL     1       0.556   4.143  20.292  0.00  0.00    +0.000 OA
ATOM      4  N   UNL     1       2.414   5.276  21.022  0.00  0.00    +0.000 N 
ATOM      5  H   UNL     1       3.373   5.197  21.354  0.00  0.00    +0.000 HD
BRANCH   4   6
ATOM      6  C   UNL     1       1.787   6.574  20.924  0.00  0.00    +0.000 C 
BRANCH   6   7
ATOM      7  C   UNL     1       2.123   7.273  19.638  0.00  0.00    +0.000 A 
ATOM      8  C   UNL     1       2.980   6.925  18.605  0.00  0.00    +0.000 A 
ATOM      9  C   UNL     1       3.020   7.904  17.566  0.00  0.00    +0.000 A 
ATOM     10  C   UNL     1       2.202   8.976  17.832  0.00  0.00    +0.000 A 
ATOM     11  S   UNL     1       1.393   8.804  19.326  0.00  0.00    +0.000 S 
ENDBRANCH   6   7
ENDBRANCH   4   6
ENDBRANCH   1   2
BRANCH   1  12
ATOM     12  O   UNL     1       3.828   2.923  20.278  0.00  0.00    +0.000 OA
BRANCH  12  13
ATOM     13  C   UNL     1       3.886   2.610  18.960  0.00  0.00    +0.000 C 
ATOM     14  O   UNL     1       3.407   1.603  18.452  0.00  0.00    +0.000 OA
BRANCH  13  20
ATOM     15  C   UNL     1       7.473   6.157  18.565  0.00  0.00    +0.000 C 
ATOM     16  C   UNL     1       6.346   5.366  17.965  0.00  0.00    +0.000 A 
ATOM     17  C   UNL     1       5.945   5.590  16.643  0.00  0.00    +0.000 A 
ATOM     18  C   UNL     1       4.893   4.859  16.093  0.00  0.00    +0.000 A 
ATOM     19  C   UNL     1       4.233   3.895  16.859  0.00  0.00    +0.000 A 
ATOM     20  C   UNL     1       4.621   3.653  18.185  0.00  0.00    +0.000 A 
ATOM     21  C   UNL     1       5.680   4.394  18.732  0.00  0.00    +0.000 A 
ENDBRANCH  13  20
ENDBRANCH  12  13
ENDBRANCH   1  12
TORSDOF 6
ENDMDL
MODEL 2
REMARK VINA RESULT:      -6.3      3.365      5.023
REMARK  Name = 
REMARK  7 active torsions:
REMARK  status: ('A' for Active; 'I' for Inactive)
REMARK    1  A    between atoms: C_1  and  C_2
REMARK    2  A    between atoms: C_6  and  C_7
REMARK    3  A    between atoms: C_7  and  O_9
REMARK    4  A    between atoms: O_9  and  C_10
REMARK    5  A    between atoms: C_10  and  C_11
REMARK    6  A    between atoms: N_13  and  C_14
REMARK    7  A    between atoms: C_14  and  C_15
REMARK                            x       y       z     vdW  Elec       q    Type
REMARK                         _______ _______ _______ _____ _____    ______ ____
ROOT
ATOM      1  C   UNL     1       5.847   6.269  17.465  0.00  0.00    +0.000 C 
ENDROOT
BRANCH   1   2
ATOM      2  C   UNL     1       4.965   5.962  18.671  0.00  0.00    +0.000 C 
ATOM      3  O   UNL     1       5.414   5.452  19.705  0.00  0.00    +0.000 OA
ATOM      4  N   UNL     1       3.644   6.317  18.525  0.00  0.00    +0.000 N 
ATOM      5  H   UNL     1       3.343   6.749  17.654  0.00  0.00    +0.000 HD
BRANCH   4   6
ATOM      6  C   UNL     1       2.694   6.097  19.591  0.00  0.00    +0.000 C 
BRANCH   6   7
ATOM      7  C   UNL     1       2.054   4.741  19.511  0.00  0.00    +0.000 A 
ATOM      8  C   UNL     1       1.724   3.826  20.499  0.00  0.00    +0.000 A 
ATOM      9  C   UNL     1       1.144   2.631  19.975  0.00  0.00    +0.000 A 
ATOM     10  C   UNL     1       1.052   2.658  18.604  0.00  0.00    +0.000 A 
ATOM     11  S   UNL     1       1.663   4.113  17.953  0.00  0.00    +0.000 S 
ENDBRANCH   6   7
ENDBRANCH   4   6
ENDBRANCH   1   2
BRANCH   1  12
ATOM     12  O   UNL     1       5.700   5.299  16.423  0.00  0.00    +0.000 OA
BRANCH  12  13
ATOM     13  C   UNL     1       6.860   4.721  16.023  0.00  0.00    +0.000 C 
ATOM     14  O   UNL     1       7.766   4.367  16.768  0.00  0.00    +0.000 OA
BRANCH  13  20
ATOM     15  C   UNL     1       5.330   2.527  11.728  0.00  0.00    +0.000 C 
ATOM     16  C   UNL     1       6.185   3.528  12.452  0.00  0.00    +0.000 A 
ATOM     17  C   UNL     1       7.065   4.354  11.744  0.00  0.00    +0.000 A 
ATOM     18  C   UNL     1       7.863   5.276  12.421  0.00  0.00    +0.000 A 
ATOM     19  C   UNL     1       7.786   5.382  13.812  0.00  0.00    +0.000 A 
ATOM     20  C   UNL     1       6.908   4.566  14.540  0.00  0.00    +0.000 A 
ATOM     21  C   UNL     1       6.110   3.640  13.851  0.00  0.00    +0.000 A 
ENDBRANCH  13  20
ENDBRANCH  12  13
ENDBRANCH   1  12
TORSDOF 6
ENDMDL
MODEL 3
REMARK VINA RESULT:      -6.2      3.492      5.163
REMARK  Name = 
REMARK  7 active torsions:
REMARK  status: ('A' for Active; 'I' for Inactive)
REMARK    1  A    between atoms: C_1  and  C_2
REMARK    2  A    between atoms: C_6  and  C_7
REMARK    3  A    between atoms: C_7  and  O_9
REMARK    4  A    between atoms: O_9  and  C_10
REMARK    5  A    between atoms: C_10  and  C_11
REMARK    6  A    between atoms: N_13  and  C_14
REMARK    7  A    between atoms: C_14  and  C_15
REMARK                            x       y       z     vdW  Elec       q    Type
REMARK                         _______ _______ _______ _____ _____    ______ ____
ROOT
ATOM      1  C   UNL     1       6.992   6.109  17.525  0.00  0.00    +0.000 C 
ENDROOT
BRANCH   1   2
ATOM      2  C   UNL     1       6.129   5.645  18.694  0.00  0.00    +0.000 C 
ATOM      3  O   UNL     1       6.608   5.079  19.684  0.00  0.00    +0.000 OA
ATOM      4  N   UNL     1       4.788   5.924  18.569  0.00  0.00    +0.000 N 
ATOM      5  H   UNL     1       4.461   6.407  17.734  0.00  0.00    +0.000 HD
BRANCH   4   6
ATOM      6  C   UNL     1       3.853   5.552  19.604  0.00  0.00    +0.000 C 
BRANCH   6   7
ATOM      7  C   UNL     1       3.029   4.355  19.225  0.00  0.00    +0.000 A 
ATOM      8  C   UNL     1       1.952   4.221  18.364  0.00  0.00    +0.000 A 
ATOM      9  C   UNL     1       1.444   2.888  18.315  0.00  0.00    +0.000 A 
ATOM     10  C   UNL     1       2.137   2.039  19.144  0.00  0.00    +0.000 A 
ATOM     11  S   UNL     1       3.391   2.845  19.977  0.00  0.00    +0.000 S 
ENDBRANCH   6   7
ENDBRANCH   4   6
ENDBRANCH   1   2
BRANCH   1  12
ATOM     12  O   UNL     1       7.433   5.020  16.708  0.00  0.00    +0.000 OA
BRANCH  12  13
ATOM     13  C   UNL     1       6.437   4.342  16.087  0.00  0.00    +0.000 C 
ATOM     14  O   UNL     1       5.491   3.804  16.650  0.00  0.00    +0.000 OA
BRANCH  13  20
ATOM     15  C   UNL     1       5.297   2.606  11.473  0.00  0.00    +0.000 C 
ATOM     16  C   UNL     1       6.101   3.504  12.369  0.00  0.00    +0.000 A 
ATOM     17  C   UNL     1       7.072   4.357  11.834  0.00  0.00    +0.000 A 
ATOM     18  C   UNL     1       7.822   5.183  12.671  0.00  0.00    +0.000 A 
ATOM     19  C   UNL     1       7.605   5.165  14.051  0.00  0.00    +0.000 A 
ATOM     20  C   UNL     1       6.633   4.320  14.608  0.00  0.00    +0.000 A 
ATOM     21  C   UNL     1       5.884   3.491  13.759  0.00  0.00    +0.000 A 
ENDBRANCH  13  20
ENDBRANCH  12  13
ENDBRANCH   1  12
TORSDOF 6
ENDMDL
MODEL 4
REMARK VINA RESULT:      -6.2      3.472      5.058
REMARK  Name = 
REMARK  7 active torsions:
REMARK  status: ('A' for Active; 'I' for Inactive)
REMARK    1  A    between atoms: C_1  and  C_2
REMARK    2  A    between atoms: C_6  and  C_7
REMARK    3  A    between atoms: C_7  and  O_9
REMARK    4  A    between atoms: O_9  and  C_10
REMARK    5  A    between atoms: C_10  and  C_11
REMARK    6  A    between atoms: N_13  and  C_14
REMARK    7  A    between atoms: C_14  and  C_15
REMARK                            x       y       z     vdW  Elec       q    Type
REMARK                         _______ _______ _______ _____ _____    ______ ____
ROOT
ATOM      1  C   UNL     1       5.629   6.742  17.283  0.00  0.00    +0.000 C 
ENDROOT
BRANCH   1   2
ATOM      2  C   UNL     1       4.226   6.908  17.858  0.00  0.00    +0.000 C 
ATOM      3  O   UNL     1       3.422   7.736  17.412  0.00  0.00    +0.000 OA
ATOM      4  N   UNL     1       3.921   6.052  18.891  0.00  0.00    +0.000 N 
ATOM      5  H   UNL     1       4.623   5.383  19.200  0.00  0.00    +0.000 HD
BRANCH   4   6
ATOM      6  C   UNL     1       2.624   6.087  19.526  0.00  0.00    +0.000 C 
BRANCH   6   7
ATOM      7  C   UNL     1       1.937   4.752  19.491  0.00  0.00    +0.000 A 
ATOM      8  C   UNL     1       1.344   4.002  20.495  0.00  0.00    +0.000 A 
ATOM      9  C   UNL     1       0.822   2.759  20.022  0.00  0.00    +0.000 A 
ATOM     10  C   UNL     1       1.036   2.586  18.676  0.00  0.00    +0.000 A 
ATOM     11  S   UNL     1       1.861   3.913  17.986  0.00  0.00    +0.000 S 
ENDBRANCH   6   7
ENDBRANCH   4   6
ENDBRANCH   1   2
BRANCH   1  12
ATOM     12  O   UNL     1       5.610   6.310  15.919  0.00  0.00    +0.000 OA
BRANCH  12  13
ATOM     13  C   UNL     1       5.688   4.966  15.753  0.00  0.00    +0.000 C 
ATOM     14  O   UNL     1       5.401   4.132  16.603  0.00  0.00    +0.000 OA
BRANCH  13  20
ATOM     15  C   UNL     1       5.387   2.287  11.471  0.00  0.00    +0.000 C 
ATOM     16  C   UNL     1       6.055   3.340  12.310  0.00  0.00    +0.000 A 
ATOM     17  C   UNL     1       7.174   4.027  11.829  0.00  0.00    +0.000 A 
ATOM     18  C   UNL     1       7.795   4.997  12.614  0.00  0.00    +0.000 A 
ATOM     19  C   UNL     1       7.301   5.290  13.888  0.00  0.00    +0.000 A 
ATOM     20  C   UNL     1       6.179   4.615  14.388  0.00  0.00    +0.000 A 
ATOM     21  C   UNL     1       5.560   3.638  13.592  0.00  0.00    +0.000 A 
ENDBRANCH  13  20
ENDBRANCH  12  13
ENDBRANCH   1  12
TORSDOF 6
ENDMDL
MODEL 5
REMARK VINA RESULT:      -6.1      3.446      5.277
REMARK  Name = 
REMARK  7 active torsions:
REMARK  status: ('A' for Active; 'I' for Inactive)
REMARK    1  A    between atoms: C_1  and  C_2
REMARK    2  A    between atoms: C_6  and  C_7
REMARK    3  A    between atoms: C_7  and  O_9
REMARK    4  A    between atoms: O_9  and  C_10
REMARK    5  A    between atoms: C_10  and  C_11
REMARK    6  A    between atoms: N_13  and  C_14
REMARK    7  A    between atoms: C_14  and  C_15
REMARK                            x       y       z     vdW  Elec       q    Type
REMARK                         _______ _______ _______ _____ _____    ______ ____
ROOT
ATOM      1  C   UNL     1       7.106   4.488  17.508  0.00  0.00    +0.000 C 
ENDROOT
BRANCH   1   2
ATOM      2  C   UNL     1       6.242   4.477  18.765  0.00  0.00    +0.000 C 
ATOM      3  O   UNL     1       6.237   5.415  19.571  0.00  0.00    +0.000 OA
ATOM      4  N   UNL     1       5.460   3.356  18.918  0.00  0.00    +0.000 N 
ATOM      5  H   UNL     1       5.500   2.626  18.208  0.00  0.00    +0.000 HD
BRANCH   4   6
ATOM      6  C   UNL     1       4.583   3.212  20.056  0.00  0.00    +0.000 C 
BRANCH   6   7
ATOM      7  C   UNL     1       3.152   2.998  19.649  0.00  0.00    +0.000 A 
ATOM      8  C   UNL     1       2.600   2.371  18.543  0.00  0.00    +0.000 A 
ATOM      9  C   UNL     1       1.173   2.416  18.537  0.00  0.00    +0.000 A 
ATOM     10  C   UNL     1       0.671   3.081  19.630  0.00  0.00    +0.000 A 
ATOM     11  S   UNL     1       1.912   3.648  20.655  0.00  0.00    +0.000 S 
ENDBRANCH   6   7
ENDBRANCH   4   6
ENDBRANCH   1   2
BRANCH   1  12
ATOM     12  O   UNL     1       6.835   5.618  16.673  0.00  0.00    +0.000 OA
BRANCH  12  13
ATOM     13  C   UNL     1       5.797   5.451  15.816  0.00  0.00    +0.000 C 
ATOM     14  O   UNL     1       4.620   5.666  16.082  0.00  0.00    +0.000 OA
BRANCH  13  20
ATOM     15  C   UNL     1       5.326   2.452  11.768  0.00  0.00    +0.000 C 
ATOM     16  C   UNL     1       6.058   3.528  12.519  0.00  0.00    +0.000 A 
ATOM     17  C   UNL     1       7.215   4.106  11.986  0.00  0.00    +0.000 A 
ATOM     18  C   UNL     1       7.895   5.099  12.691  0.00  0.00    +0.000 A 
ATOM     19  C   UNL     1       7.422   5.524  13.935  0.00  0.00    +0.000 A 
ATOM     20  C   UNL     1       6.263   4.960  14.486  0.00  0.00    +0.000 A 
ATOM     21  C   UNL     1       5.585   3.960  13.771  0.00  0.00    +0.000 A 
ENDBRANCH  13  20
ENDBRANCH  12  13
ENDBRANCH   1  12
TORSDOF 6
ENDMDL
MODEL 6
REMARK VINA RESULT:      -6.1      3.525      5.324
REMARK  Name = 
REMARK  7 active torsions:
REMARK  status: ('A' for Active; 'I' for Inactive)
REMARK    1  A    between atoms: C_1  and  C_2
REMARK    2  A    between atoms: C_6  and  C_7
REMARK    3  A    between atoms: C_7  and  O_9
REMARK    4  A    between atoms: O_9  and  C_10
REMARK    5  A    between atoms: C_10  and  C_11
REMARK    6  A    between atoms: N_13  and  C_14
REMARK    7  A    between atoms: C_14  and  C_15
REMARK                            x       y       z     vdW  Elec       q    Type
REMARK                         _______ _______ _______ _____ _____    ______ ____
ROOT
ATOM      1  C   UNL     1       6.400   4.778  17.965  0.00  0.00    +0.000 C 
ENDROOT
BRANCH   1   2
ATOM      2  C   UNL     1       5.293   3.762  18.227  0.00  0.00    +0.000 C 
ATOM      3  O   UNL     1       4.464   3.451  17.363  0.00  0.00    +0.000 OA
ATOM      4  N   UNL     1       5.305   3.207  19.486  0.00  0.00    +0.000 N 
ATOM      5  H   UNL     1       6.025   3.496  20.145  0.00  0.00    +0.000 HD
BRANCH   4   6
ATOM      6  C   UNL     1       4.322   2.222  19.872  0.00  0.00    +0.000 C 
BRANCH   6   7
ATOM      7  C   UNL     1       2.949   2.813  20.017  0.00  0.00    +0.000 A 
ATOM      8  C   UNL     1       2.475   3.839  20.819  0.00  0.00    +0.000 A 
ATOM      9  C   UNL     1       1.074   4.066  20.658  0.00  0.00    +0.000 A 
ATOM     10  C   UNL     1       0.512   3.205  19.746  0.00  0.00    +0.000 A 
ATOM     11  S   UNL     1       1.665   2.131  19.089  0.00  0.00    +0.000 S 
ENDBRANCH   6   7
ENDBRANCH   4   6
ENDBRANCH   1   2
BRANCH   1  12
ATOM     12  O   UNL     1       6.952   4.654  16.650  0.00  0.00    +0.000 OA
BRANCH  12  13
ATOM     13  C   UNL     1       6.379   5.457  15.720  0.00  0.00    +0.000 C 
ATOM     14  O   UNL     1       5.726   6.465  15.963  0.00  0.00    +0.000 OA
BRANCH  13  20
ATOM     15  C   UNL     1       5.291   2.447  11.801  0.00  0.00    +0.000 C 
ATOM     16  C   UNL     1       6.132   3.522  12.429  0.00  0.00    +0.000 A 
ATOM     17  C   UNL     1       7.199   4.091  11.726  0.00  0.00    +0.000 A 
ATOM     18  C   UNL     1       7.982   5.082  12.317  0.00  0.00    +0.000 A 
ATOM     19  C   UNL     1       7.704   5.514  13.616  0.00  0.00    +0.000 A 
ATOM     20  C   UNL     1       6.638   4.959  14.337  0.00  0.00    +0.000 A 
ATOM     21  C   UNL     1       5.855   3.960  13.736  0.00  0.00    +0.000 A 
ENDBRANCH  13  20
ENDBRANCH  12  13
ENDBRANCH   1  12
TORSDOF 6
ENDMDL
MODEL 7
REMARK VINA RESULT:      -6.1      3.641      5.332
REMARK  Name = 
REMARK  7 active torsions:
REMARK  status: ('A' for Active; 'I' for Inactive)
REMARK    1  A    between atoms: C_1  and  C_2
REMARK    2  A    between atoms: C_6  and  C_7
REMARK    3  A    between atoms: C_7  and  O_9
REMARK    4  A    between atoms: O_9  and  C_10
REMARK    5  A    between atoms: C_10  and  C_11
REMARK    6  A    between atoms: N_13  and  C_14
REMARK    7  A    between atoms: C_14  and  C_15
REMARK                            x       y       z     vdW  Elec       q    Type
REMARK                         _______ _______ _______ _____ _____    ______ ____
ROOT
ATOM      1  C   UNL     1       6.936   6.591  17.518  0.00  0.00    +0.000 C 
ENDROOT
BRANCH   1   2
ATOM      2  C   UNL     1       5.420   6.573  17.682  0.00  0.00    +0.000 C 
ATOM      3  O   UNL     1       4.669   7.232  16.953  0.00  0.00    +0.000 OA
ATOM      4  N   UNL     1       4.957   5.753  18.685  0.00  0.00    +0.000 N 
ATOM      5  H   UNL     1       5.629   5.224  19.239  0.00  0.00    +0.000 HD
BRANCH   4   6
ATOM      6  C   UNL     1       3.543   5.627  18.948  0.00  0.00    +0.000 C 
BRANCH   6   7
ATOM      7  C   UNL     1       3.031   4.244  18.663  0.00  0.00    +0.000 A 
ATOM      8  C   UNL     1       3.585   3.194  17.949  0.00  0.00    +0.000 A 
ATOM      9  C   UNL     1       2.736   2.046  17.905  0.00  0.00    +0.000 A 
ATOM     10  C   UNL     1       1.555   2.250  18.578  0.00  0.00    +0.000 A 
ATOM     11  S   UNL     1       1.470   3.814  19.256  0.00  0.00    +0.000 S 
ENDBRANCH   6   7
ENDBRANCH   4   6
ENDBRANCH   1   2
BRANCH   1  12
ATOM     12  O   UNL     1       7.346   6.184  16.208  0.00  0.00    +0.000 OA
BRANCH  12  13
ATOM     13  C   UNL     1       7.053   4.897  15.899  0.00  0.00    +0.000 C 
ATOM     14  O   UNL     1       6.843   4.006  16.714  0.00  0.00    +0.000 OA
BRANCH  13  20
ATOM     15  C   UNL     1       5.225   2.607  11.775  0.00  0.00    +0.000 C 
ATOM     16  C   UNL     1       6.152   3.600  12.415  0.00  0.00    +0.000 A 
ATOM     17  C   UNL     1       7.026   4.363  11.633  0.00  0.00    +0.000 A 
ATOM     18  C   UNL     1       7.891   5.277  12.233  0.00  0.00    +0.000 A 
ATOM     19  C   UNL     1       7.889   5.438  13.621  0.00  0.00    +0.000 A 
ATOM     20  C   UNL     1       7.019   4.685  14.423  0.00  0.00    +0.000 A 
ATOM     21  C   UNL     1       6.153   3.766  13.811  0.00  0.00    +0.000 A 
ENDBRANCH  13  20
ENDBRANCH  12  13
ENDBRANCH   1  12
TORSDOF 6
ENDMDL
MODEL 8
REMARK VINA RESULT:      -6.0      0.690      1.651
REMARK  Name = 
REMARK  7 active torsions:
REMARK  status: ('A' for Active; 'I' for Inactive)
REMARK    1  A    between atoms: C_1  and  C_2
REMARK    2  A    between atoms: C_6  and  C_7
REMARK    3  A    between atoms: C_7  and  O_9
REMARK    4  A    between atoms: O_9  and  C_10
REMARK    5  A    between atoms: C_10  and  C_11
REMARK    6  A    between atoms: N_13  and  C_14
REMARK    7  A    between atoms: C_14  and  C_15
REMARK                            x       y       z     vdW  Elec       q    Type
REMARK                         _______ _______ _______ _____ _____    ______ ____
ROOT
ATOM      1  C   UNL     1       2.404   2.906  20.520  0.00  0.00    +0.000 C 
ENDROOT
BRANCH   1   2
ATOM      2  C   UNL     1       1.637   4.224  20.522  0.00  0.00    +0.000 C 
ATOM      3  O   UNL     1       0.423   4.283  20.288  0.00  0.00    +0.000 OA
ATOM      4  N   UNL     1       2.394   5.332  20.824  0.00  0.00    +0.000 N 
ATOM      5  H   UNL     1       3.385   5.212  21.023  0.00  0.00    +0.000 HD
BRANCH   4   6
ATOM      6  C   UNL     1       1.798   6.647  20.874  0.00  0.00    +0.000 C 
BRANCH   6   7
ATOM      7  C   UNL     1       2.042   7.430  19.616  0.00  0.00    +0.000 A 
ATOM      8  C   UNL     1       2.776   7.130  18.479  0.00  0.00    +0.000 A 
ATOM      9  C   UNL     1       2.762   8.185  17.517  0.00  0.00    +0.000 A 
ATOM     10  C   UNL     1       2.027   9.265  17.943  0.00  0.00    +0.000 A 
ATOM     11  S   UNL     1       1.359   9.009  19.493  0.00  0.00    +0.000 S 
ENDBRANCH   6   7
ENDBRANCH   4   6
ENDBRANCH   1   2
BRANCH   1  12
ATOM     12  O   UNL     1       3.167   2.722  19.323  0.00  0.00    +0.000 OA
BRANCH  12  13
ATOM     13  C   UNL     1       4.508   2.848  19.485  0.00  0.00    +0.000 C 
ATOM     14  O   UNL     1       5.190   2.190  20.261  0.00  0.00    +0.000 OA
BRANCH  13  20
ATOM     15  C   UNL     1       5.255   4.865  14.905  0.00  0.00    +0.000 C 
ATOM     16  C   UNL     1       5.439   4.903  16.395  0.00  0.00    +0.000 A 
ATOM     17  C   UNL     1       6.152   5.945  16.997  0.00  0.00    +0.000 A 
ATOM     18  C   UNL     1       6.327   5.972  18.380  0.00  0.00    +0.000 A 
ATOM     19  C   UNL     1       5.788   4.958  19.175  0.00  0.00    +0.000 A 
ATOM     20  C   UNL     1       5.067   3.905  18.592  0.00  0.00    +0.000 A 
ATOM     21  C   UNL     1       4.896   3.885  17.199  0.00  0.00    +0.000 A 
ENDBRANCH  13  20
ENDBRANCH  12  13
ENDBRANCH   1  12
TORSDOF 6
ENDMDL
MODEL 9
REMARK VINA RESULT:      -6.0      3.210      4.826
REMARK  Name = 
REMARK  7 active torsions:
REMARK  status: ('A' for Active; 'I' for Inactive)
REMARK    1  A    between atoms: C_1  and  C_2
REMARK    2  A    between atoms: C_6  and  C_7
REMARK    3  A    between atoms: C_7  and  O_9
REMARK    4  A    between atoms: O_9  and  C_10
REMARK    5  A    between atoms: C_10  and  C_11
REMARK    6  A    between atoms: N_13  and  C_14
REMARK    7  A    between atoms: C_14  and  C_15
REMARK                            x       y       z     vdW  Elec       q    Type
REMARK                         _______ _______ _______ _____ _____    ______ ____
ROOT
ATOM      1  C   UNL     1       6.576   4.744  17.806  0.00  0.00    +0.000 C 
ENDROOT
BRANCH   1   2
ATOM      2  C   UNL     1       5.679   4.402  18.991  0.00  0.00    +0.000 C 
ATOM      3  O   UNL     1       5.279   5.262  19.786  0.00  0.00    +0.000 OA
ATOM      4  N   UNL     1       5.335   3.074  19.092  0.00  0.00    +0.000 N 
ATOM      5  H   UNL     1       5.686   2.420  18.394  0.00  0.00    +0.000 HD
BRANCH   4   6
ATOM      6  C   UNL     1       4.481   2.607  20.158  0.00  0.00    +0.000 C 
BRANCH   6   7
ATOM      7  C   UNL     1       3.026   2.662  19.788  0.00  0.00    +0.000 A 
ATOM      8  C   UNL     1       2.340   2.150  18.699  0.00  0.00    +0.000 A 
ATOM      9  C   UNL     1       0.946   2.458  18.728  0.00  0.00    +0.000 A 
ATOM     10  C   UNL     1       0.603   3.202  19.832  0.00  0.00    +0.000 A 
ATOM     11  S   UNL     1       1.954   3.528  20.824  0.00  0.00    +0.000 S 
ENDBRANCH   6   7
ENDBRANCH   4   6
ENDBRANCH   1   2
BRANCH   1  12
ATOM     12  O   UNL     1       5.849   5.342  16.728  0.00  0.00    +0.000 OA
BRANCH  12  13
ATOM     13  C   UNL     1       5.232   4.458  15.905  0.00  0.00    +0.000 C 
ATOM     14  O   UNL     1       4.252   3.785  16.200  0.00  0.00    +0.000 OA
BRANCH  13  20
ATOM     15  C   UNL     1       8.812   5.942  12.652  0.00  0.00    +0.000 C 
ATOM     16  C   UNL     1       7.621   5.090  12.984  0.00  0.00    +0.000 A 
ATOM     17  C   UNL     1       7.095   4.203  12.039  0.00  0.00    +0.000 A 
ATOM     18  C   UNL     1       5.984   3.420  12.349  0.00  0.00    +0.000 A 
ATOM     19  C   UNL     1       5.388   3.516  13.609  0.00  0.00    +0.000 A 
ATOM     20  C   UNL     1       5.901   4.396  14.573  0.00  0.00    +0.000 A 
ATOM     21  C   UNL     1       7.019   5.182  14.252  0.00  0.00    +0.000 A 
ENDBRANCH  13  20
ENDBRANCH  12  13
ENDBRANCH   1  12
TORSDOF 6
ENDMDL
