MODEL 1
REMARK VINA RESULT:      -7.3      0.000      0.000
REMARK  Name = 
REMARK  3 active torsions:
REMARK  status: ('A' for Active; 'I' for Inactive)
REMARK    1  A    between atoms: C_1  and  C_2
REMARK    2  A    between atoms: C_5  and  N_6
REMARK    3  A    between atoms: C_15  and  C_16
REMARK                            x       y       z     vdW  Elec       q    Type
REMARK                         _______ _______ _______ _____ _____    ______ ____
ROOT
ATOM      1  N   UNL     1       4.384   3.482  17.631  0.00  0.00    +0.000 N 
ATOM      2  C   UNL     1       3.321   3.380  18.593  0.00  0.00    +0.000 C 
ATOM      3  N   UNL     1       3.165   4.347  19.446  0.00  0.00    +0.000 NA
ATOM      4  C   UNL     1       2.239   4.559  20.542  0.00  0.00    +0.000 C 
ATOM      5  C   UNL     1       1.595   3.294  21.074  0.00  0.00    +0.000 C 
ATOM      6  C   UNL     1       0.545   2.684  20.140  0.00  0.00    +0.000 C 
ATOM      7  C   UNL     1       0.975   2.498  18.676  0.00  0.00    +0.000 C 
ATOM      8  C   UNL     1       2.449   2.131  18.554  0.00  0.00    +0.000 C 
ATOM      9  H   UNL     1       4.632   2.624  17.111  0.00  0.00    +0.000 HD
ENDROOT
BRANCH   1  14
ATOM     10  C   UNL     1       7.822   8.097  17.528  0.00  0.00    +0.000 C 
ATOM     11  C   UNL     1       6.983   6.848  17.541  0.00  0.00    +0.000 A 
ATOM     12  C   UNL     1       5.948   6.736  16.606  0.00  0.00    +0.000 A 
ATOM     13  C   UNL     1       5.109   5.631  16.604  0.00  0.00    +0.000 A 
ATOM     14  C   UNL     1       5.275   4.595  17.546  0.00  0.00    +0.000 A 
ATOM     15  C   UNL     1       6.341   4.677  18.450  0.00  0.00    +0.000 A 
ATOM     16  C   UNL     1       7.193   5.795  18.470  0.00  0.00    +0.000 A 
ATOM     17  C   UNL     1       8.284   5.852  19.508  0.00  0.00    +0.000 C 
ENDBRANCH   1  14
TORSDOF 1
ENDMDL
MODEL 2
REMARK VINA RESULT:      -7.0      1.321      6.128
REMARK  Name = 
REMARK  3 active torsions:
REMARK  status: ('A' for Active; 'I' for Inactive)
REMARK    1  A    between atoms: C_1  and  C_2
REMARK    2  A    between atoms: C_5  and  N_6
REMARK    3  A    between atoms: C_15  and  C_16
REMARK                            x       y       z     vdW  Elec       q    Type
REMARK                         _______ _______ _______ _____ _____    ______ ____
ROOT
ATOM      1  N   UNL     1       5.800   3.654  18.852  0.00  0.00    +0.000 N 
ATOM      2  C   UNL     1       6.315   4.919  18.407  0.00  0.00    +0.000 C 
ATOM      3  N   UNL     1       5.480   5.796  17.940  0.00  0.00    +0.000 NA
ATOM      4  C   UNL     1       5.648   7.130  17.394  0.00  0.00    +0.000 C 
ATOM      5  C   UNL     1       7.046   7.431  16.892  0.00  0.00    +0.000 C 
ATOM      6  C   UNL     1       8.085   7.620  18.002  0.00  0.00    +0.000 C 
ATOM      7  C   UNL     1       8.121   6.525  19.080  0.00  0.00    +0.000 C 
ATOM      8  C   UNL     1       7.820   5.145  18.507  0.00  0.00    +0.000 C 
ATOM      9  H   UNL     1       6.485   2.898  19.013  0.00  0.00    +0.000 HD
ENDROOT
BRANCH   1  14
ATOM     10  C   UNL     1       0.297   1.968  18.857  0.00  0.00    +0.000 C 
ATOM     11  C   UNL     1       1.713   2.477  18.878  0.00  0.00    +0.000 A 
ATOM     12  C   UNL     1       2.441   2.456  17.683  0.00  0.00    +0.000 A 
ATOM     13  C   UNL     1       3.767   2.864  17.652  0.00  0.00    +0.000 A 
ATOM     14  C   UNL     1       4.415   3.305  18.824  0.00  0.00    +0.000 A 
ATOM     15  C   UNL     1       3.677   3.376  20.011  0.00  0.00    +0.000 A 
ATOM     16  C   UNL     1       2.335   2.957  20.060  0.00  0.00    +0.000 A 
ATOM     17  C   UNL     1       1.614   3.000  21.381  0.00  0.00    +0.000 C 
ENDBRANCH   1  14
TORSDOF 1
ENDMDL
MODEL 3
REMARK VINA RESULT:      -6.7      2.463      3.409
REMARK  Name = 
REMARK  3 active torsions:
REMARK  status: ('A' for Active; 'I' for Inactive)
REMARK    1  A    between atoms: C_1  and  C_2
REMARK    2  A    between atoms: C_5  and  N_6
REMARK    3  A    between atoms: C_15  and  C_16
REMARK                            x       y       z     vdW  Elec       q    Type
REMARK                         _______ _______ _______ _____ _____    ______ ____
ROOT
ATOM      1  N   UNL     1       5.052   3.286  17.493  0.00  0.00    +0.000 N 
ATOM      2  C   UNL     1       4.022   3.948  18.245  0.00  0.00    +0.000 C 
ATOM      3  N   UNL     1       3.678   5.150  17.897  0.00  0.00    +0.000 NA
ATOM      4  C   UNL     1       2.721   6.100  18.432  0.00  0.00    +0.000 C 
ATOM      5  C   UNL     1       2.327   5.849  19.874  0.00  0.00    +0.000 C 
ATOM      6  C   UNL     1       1.418   4.632  20.074  0.00  0.00    +0.000 C 
ATOM      7  C   UNL     1       1.886   3.328  19.407  0.00  0.00    +0.000 C 
ATOM      8  C   UNL     1       3.404   3.192  19.416  0.00  0.00    +0.000 C 
ATOM      9  H   UNL     1       5.462   2.433  17.907  0.00  0.00    +0.000 HD
ENDROOT
BRANCH   1  14
ATOM     10  C   UNL     1       7.885   5.366  12.935  0.00  0.00    +0.000 C 
ATOM     11  C   UNL     1       7.082   4.855  14.101  0.00  0.00    +0.000 A 
ATOM     12  C   UNL     1       7.470   5.239  15.390  0.00  0.00    +0.000 A 
ATOM     13  C   UNL     1       6.799   4.758  16.506  0.00  0.00    +0.000 A 
ATOM     14  C   UNL     1       5.715   3.868  16.370  0.00  0.00    +0.000 A 
ATOM     15  C   UNL     1       5.290   3.522  15.082  0.00  0.00    +0.000 A 
ATOM     16  C   UNL     1       5.966   3.993  13.942  0.00  0.00    +0.000 A 
ATOM     17  C   UNL     1       5.498   3.535  12.586  0.00  0.00    +0.000 C 
ENDBRANCH   1  14
TORSDOF 1
ENDMDL
MODEL 4
REMARK VINA RESULT:      -6.6      3.569      5.134
REMARK  Name = 
REMARK  3 active torsions:
REMARK  status: ('A' for Active; 'I' for Inactive)
REMARK    1  A    between atoms: C_1  and  C_2
REMARK    2  A    between atoms: C_5  and  N_6
REMARK    3  A    between atoms: C_15  and  C_16
REMARK                            x       y       z     vdW  Elec       q    Type
REMARK                         _______ _______ _______ _____ _____    ______ ____
ROOT
ATOM      1  N   UNL     1       3.295   6.258  19.704  0.00  0.00    +0.000 N 
ATOM      2  C   UNL     1       2.941   4.923  19.306  0.00  0.00    +0.000 C 
ATOM      3  N   UNL     1       1.799   4.737  18.716  0.00  0.00    +0.000 NA
ATOM      4  C   UNL     1       1.126   3.554  18.216  0.00  0.00    +0.000 C 
ATOM      5  C   UNL     1       1.612   2.251  18.822  0.00  0.00    +0.000 C 
ATOM      6  C   UNL     1       3.000   1.816  18.342  0.00  0.00    +0.000 C 
ATOM      7  C   UNL     1       4.100   2.888  18.409  0.00  0.00    +0.000 C 
ATOM      8  C   UNL     1       3.933   3.807  19.613  0.00  0.00    +0.000 C 
ATOM      9  H   UNL     1       4.091   6.359  20.355  0.00  0.00    +0.000 HD
ENDROOT
BRANCH   1  14
ATOM     10  C   UNL     1      -0.277  10.670  18.752  0.00  0.00    +0.000 C 
ATOM     11  C   UNL     1       0.691   9.558  19.054  0.00  0.00    +0.000 A 
ATOM     12  C   UNL     1       1.530   9.114  18.025  0.00  0.00    +0.000 A 
ATOM     13  C   UNL     1       2.406   8.056  18.230  0.00  0.00    +0.000 A 
ATOM     14  C   UNL     1       2.469   7.401  19.476  0.00  0.00    +0.000 A 
ATOM     15  C   UNL     1       1.670   7.875  20.523  0.00  0.00    +0.000 A 
ATOM     16  C   UNL     1       0.770   8.938  20.328  0.00  0.00    +0.000 A 
ATOM     17  C   UNL     1      -0.107   9.360  21.477  0.00  0.00    +0.000 C 
ENDBRANCH   1  14
TORSDOF 1
ENDMDL
MODEL 5
REMARK VINA RESULT:      -6.5      1.638      5.998
REMARK  Name = 
REMARK  3 active torsions:
REMARK  status: ('A' for Active; 'I' for Inactive)
REMARK    1  A    between atoms: C_1  and  C_2
REMARK    2  A    between atoms: C_5  and  N_6
REMARK    3  A    between atoms: C_15  and  C_16
REMARK                            x       y       z     vdW  Elec       q    Type
REMARK                         _______ _______ _______ _____ _____    ______ ____
ROOT
ATOM      1  N   UNL     1       3.222   3.851  16.550  0.00  0.00    +0.000 N 
ATOM      2  C   UNL     1       4.574   4.301  16.357  0.00  0.00    +0.000 C 
ATOM      3  N   UNL     1       5.332   4.443  17.401  0.00  0.00    +0.000 NA
ATOM      4  C   UNL     1       6.701   4.890  17.576  0.00  0.00    +0.000 C 
ATOM      5  C   UNL     1       7.242   5.721  16.429  0.00  0.00    +0.000 C 
ATOM      6  C   UNL     1       7.534   4.920  15.156  0.00  0.00    +0.000 C 
ATOM      7  C   UNL     1       6.405   3.997  14.670  0.00  0.00    +0.000 C 
ATOM      8  C   UNL     1       5.026   4.591  14.930  0.00  0.00    +0.000 C 
ATOM      9  H   UNL     1       2.575   3.951  15.751  0.00  0.00    +0.000 HD
ENDROOT
BRANCH   1  14
ATOM     10  C   UNL     1       1.253   2.638  21.821  0.00  0.00    +0.000 C 
ATOM     11  C   UNL     1       1.703   2.990  20.428  0.00  0.00    +0.000 A 
ATOM     12  C   UNL     1       2.015   1.946  19.550  0.00  0.00    +0.000 A 
ATOM     13  C   UNL     1       2.485   2.211  18.271  0.00  0.00    +0.000 A 
ATOM     14  C   UNL     1       2.664   3.537  17.827  0.00  0.00    +0.000 A 
ATOM     15  C   UNL     1       2.305   4.584  18.683  0.00  0.00    +0.000 A 
ATOM     16  C   UNL     1       1.837   4.332  19.985  0.00  0.00    +0.000 A 
ATOM     17  C   UNL     1       1.526   5.503  20.879  0.00  0.00    +0.000 C 
ENDBRANCH   1  14
TORSDOF 1
ENDMDL
MODEL 6
REMARK VINA RESULT:      -6.5      4.275      6.532
REMARK  Name = 
REMARK  3 active torsions:
REMARK  status: ('A' for Active; 'I' for Inactive)
REMARK    1  A    between atoms: C_1  and  C_2
REMARK    2  A    between atoms: C_5  and  N_6
REMARK    3  A    between atoms: C_15  and  C_16
REMARK                            x       y       z     vdW  Elec       q    Type
REMARK                         _______ _______ _______ _____ _____    ______ ____
ROOT
ATOM      1  N   UNL     1       1.710   7.197  21.457  0.00  0.00    +0.000 N 
ATOM      2  C   UNL     1       1.099   8.493  21.353  0.00  0.00    +0.000 C 
ATOM      3  N   UNL     1       0.692   8.891  20.186  0.00  0.00    +0.000 NA
ATOM      4  C   UNL     1       0.071  10.117  19.720  0.00  0.00    +0.000 C 
ATOM      5  C   UNL     1       0.283  11.313  20.628  0.00  0.00    +0.000 C 
ATOM      6  C   UNL     1      -0.515  11.258  21.935  0.00  0.00    +0.000 C 
ATOM      7  C   UNL     1      -0.408   9.948  22.732  0.00  0.00    +0.000 C 
ATOM      8  C   UNL     1       0.977   9.323  22.626  0.00  0.00    +0.000 C 
ATOM      9  H   UNL     1       2.219   6.986  22.332  0.00  0.00    +0.000 HD
ENDROOT
BRANCH   1  14
ATOM     10  C   UNL     1       2.634   3.467  17.172  0.00  0.00    +0.000 C 
ATOM     11  C   UNL     1       2.319   4.440  18.276  0.00  0.00    +0.000 A 
ATOM     12  C   UNL     1       2.886   5.718  18.215  0.00  0.00    +0.000 A 
ATOM     13  C   UNL     1       2.674   6.639  19.231  0.00  0.00    +0.000 A 
ATOM     14  C   UNL     1       1.886   6.309  20.352  0.00  0.00    +0.000 A 
ATOM     15  C   UNL     1       1.274   5.050  20.394  0.00  0.00    +0.000 A 
ATOM     16  C   UNL     1       1.488   4.103  19.377  0.00  0.00    +0.000 A 
ATOM     17  C   UNL     1       0.852   2.745  19.511  0.00  0.00    +0.000 C 
ENDBRANCH   1  14
TORSDOF 1
ENDMDL
MODEL 7
REMARK VINA RESULT:      -6.5      3.572      6.086
REMARK  Name = 
REMARK  3 active torsions:
REMARK  status: ('A' for Active; 'I' for Inactive)
REMARK    1  A    between atoms: C_1  and  C_2
REMARK    2  A    between atoms: C_5  and  N_6
REMARK    3  A    between atoms: C_15  and  C_16
REMARK                            x       y       z     vdW  Elec       q    Type
REMARK                         _______ _______ _______ _____ _____    ______ ____
ROOT
ATOM      1  N   UNL     1       2.014   6.650  20.731  0.00  0.00    +0.000 N 
ATOM      2  C   UNL     1       1.717   7.905  20.097  0.00  0.00    +0.000 C 
ATOM      3  N   UNL     1       1.839   7.990  18.807  0.00  0.00    +0.000 NA
ATOM      4  C   UNL     1       1.653   9.077  17.865  0.00  0.00    +0.000 C 
ATOM      5  C   UNL     1       1.722  10.461  18.481  0.00  0.00    +0.000 C 
ATOM      6  C   UNL     1       0.506  10.828  19.337  0.00  0.00    +0.000 C 
ATOM      7  C   UNL     1       0.086   9.788  20.388  0.00  0.00    +0.000 C 
ATOM      8  C   UNL     1       1.285   9.063  20.989  0.00  0.00    +0.000 C 
ATOM      9  H   UNL     1       2.124   6.656  21.758  0.00  0.00    +0.000 HD
ENDROOT
BRANCH   1  14
ATOM     10  C   UNL     1       3.663   1.776  18.150  0.00  0.00    +0.000 C 
ATOM     11  C   UNL     1       3.188   3.065  18.766  0.00  0.00    +0.000 A 
ATOM     12  C   UNL     1       4.137   4.055  19.043  0.00  0.00    +0.000 A 
ATOM     13  C   UNL     1       3.765   5.243  19.659  0.00  0.00    +0.000 A 
ATOM     14  C   UNL     1       2.424   5.479  20.022  0.00  0.00    +0.000 A 
ATOM     15  C   UNL     1       1.462   4.514  19.700  0.00  0.00    +0.000 A 
ATOM     16  C   UNL     1       1.825   3.302  19.086  0.00  0.00    +0.000 A 
ATOM     17  C   UNL     1       0.753   2.278  18.822  0.00  0.00    +0.000 C 
ENDBRANCH   1  14
TORSDOF 1
ENDMDL
MODEL 8
REMARK VINA RESULT:      -6.5      2.028      6.058
REMARK  Name = 
REMARK  3 active torsions:
REMARK  status: ('A' for Active; 'I' for Inactive)
REMARK    1  A    between atoms: C_1  and  C_2
REMARK    2  A    between atoms: C_5  and  N_6
REMARK    3  A    between atoms: C_15  and  C_16
REMARK                            x       y       z     vdW  Elec       q    Type
REMARK                         _______ _______ _______ _____ _____    ______ ____
ROOT
ATOM      1  N   UNL     1       5.981   4.149  18.771  0.00  0.00    +0.000 N 
ATOM      2  C   UNL     1       6.130   4.259  17.346  0.00  0.00    +0.000 C 
ATOM      3  N   UNL     1       5.098   4.016  16.596  0.00  0.00    +0.000 NA
ATOM      4  C   UNL     1       4.899   4.006  15.160  0.00  0.00    +0.000 C 
ATOM      5  C   UNL     1       6.172   3.850  14.350  0.00  0.00    +0.000 C 
ATOM      6  C   UNL     1       7.068   5.092  14.343  0.00  0.00    +0.000 C 
ATOM      7  C   UNL     1       7.373   5.707  15.718  0.00  0.00    +0.000 C 
ATOM      8  C   UNL     1       7.502   4.647  16.805  0.00  0.00    +0.000 C 
ATOM      9  H   UNL     1       6.848   4.130  19.334  0.00  0.00    +0.000 HD
ENDROOT
BRANCH   1  14
ATOM     10  C   UNL     1       1.165   2.857  21.645  0.00  0.00    +0.000 C 
ATOM     11  C   UNL     1       2.382   3.216  20.836  0.00  0.00    +0.000 A 
ATOM     12  C   UNL     1       3.304   2.205  20.543  0.00  0.00    +0.000 A 
ATOM     13  C   UNL     1       4.470   2.489  19.845  0.00  0.00    +0.000 A 
ATOM     14  C   UNL     1       4.756   3.801  19.418  0.00  0.00    +0.000 A 
ATOM     15  C   UNL     1       3.813   4.806  19.663  0.00  0.00    +0.000 A 
ATOM     16  C   UNL     1       2.632   4.536  20.377  0.00  0.00    +0.000 A 
ATOM     17  C   UNL     1       1.686   5.673  20.662  0.00  0.00    +0.000 C 
ENDBRANCH   1  14
TORSDOF 1
ENDMDL
MODEL 9
REMARK VINA RESULT:      -6.4      1.576      2.885
REMARK  Name = 
REMARK  3 active torsions:
REMARK  status: ('A' for Active; 'I' for Inactive)
REMARK    1  A    between atoms: C_1  and  C_2
REMARK    2  A    between atoms: C_5  and  N_6
REMARK    3  A    between atoms: C_15  and  C_16
REMARK                            x       y       z     vdW  Elec       q    Type
REMARK                         _______ _______ _______ _____ _____    ______ ____
ROOT
ATOM      1  N   UNL     1       4.347   5.478  19.468  0.00  0.00    +0.000 N 
ATOM      2  C   UNL     1       3.255   4.583  19.736  0.00  0.00    +0.000 C 
ATOM      3  N   UNL     1       2.971   3.674  18.853  0.00  0.00    +0.000 NA
ATOM      4  C   UNL     1       1.948   2.648  18.784  0.00  0.00    +0.000 C 
ATOM      5  C   UNL     1       0.742   2.903  19.668  0.00  0.00    +0.000 C 
ATOM      6  C   UNL     1       1.009   2.711  21.164  0.00  0.00    +0.000 C 
ATOM      7  C   UNL     1       2.250   3.427  21.722  0.00  0.00    +0.000 C 
ATOM      8  C   UNL     1       2.491   4.769  21.042  0.00  0.00    +0.000 C 
ATOM      9  H   UNL     1       4.422   6.319  20.063  0.00  0.00    +0.000 HD
ENDROOT
BRANCH   1  14
ATOM     10  C   UNL     1       7.390   5.036  14.602  0.00  0.00    +0.000 C 
ATOM     11  C   UNL     1       6.609   5.225  15.875  0.00  0.00    +0.000 A 
ATOM     12  C   UNL     1       7.024   4.527  17.015  0.00  0.00    +0.000 A 
ATOM     13  C   UNL     1       6.312   4.621  18.204  0.00  0.00    +0.000 A 
ATOM     14  C   UNL     1       5.154   5.419  18.291  0.00  0.00    +0.000 A 
ATOM     15  C   UNL     1       4.764   6.160  17.169  0.00  0.00    +0.000 A 
ATOM     16  C   UNL     1       5.469   6.066  15.955  0.00  0.00    +0.000 A 
ATOM     17  C   UNL     1       4.964   6.841  14.767  0.00  0.00    +0.000 C 
ENDBRANCH   1  14
TORSDOF 1
ENDMDL
