MODEL 1
REMARK VINA RESULT:      -7.4      0.000      0.000
REMARK  Name = 
REMARK  10 active torsions:
REMARK  status: ('A' for Active; 'I' for Inactive)
REMARK    1  A    between atoms: C_4  and  C_5
REMARK    2  A    between atoms: C_5  and  C_6
REMARK    3  A    between atoms: N_8  and  C_9
REMARK    4  A    between atoms: C_12  and  C_13
REMARK    5  A    between atoms: C_13  and  C_14
REMARK    6  A    between atoms: C_14  and  N_15
REMARK    7  A    between atoms: N_15  and  C_16
REMARK    8  A    between atoms: C_16  and  C_17
REMARK    9  A    between atoms: C_17  and  O_18
REMARK   10  A    between atoms: C_17  and  C_19
REMARK                            x       y       z     vdW  Elec       q    Type
REMARK                         _______ _______ _______ _____ _____    ______ ____
ROOT
ATOM      1  C   UNL     1       1.299   8.550  19.899  0.00  0.00    +0.000 A 
ATOM      2  C   UNL     1       1.874   7.325  20.227  0.00  0.00    +0.000 A 
ATOM      3  C   UNL     1       2.779   6.706  19.368  0.00  0.00    +0.000 A 
ATOM      4  C   UNL     1       3.107   7.281  18.136  0.00  0.00    +0.000 A 
ATOM      5  C   UNL     1       2.518   8.503  17.790  0.00  0.00    +0.000 A 
ATOM      6  C   UNL     1       1.618   9.131  18.665  0.00  0.00    +0.000 A 
ENDROOT
BRANCH   1   9
ATOM      7  C   UNL     1       0.626   9.583  22.068  0.00  0.00    +0.000 C 
ATOM      8  O   UNL     1       1.688   9.466  22.677  0.00  0.00    +0.000 OA
ATOM      9  N   UNL     1       0.391   9.214  20.751  0.00  0.00    +0.000 N 
ATOM     10  H   UNL     1      -0.463   9.583  20.332  0.00  0.00    +0.000 HD
BRANCH   7  11
ATOM     11  C   UNL     1      -0.595  10.113  22.795  0.00  0.00    +0.000 C 
BRANCH  11  15
ATOM     12  N   UNL     1      -2.235  13.046  19.384  0.00  0.00    +0.000 N 
ATOM     13  C   UNL     1      -1.827  12.694  20.609  0.00  0.00    +0.000 A 
ATOM     14  N   UNL     1      -1.431  11.479  20.907  0.00  0.00    +0.000 NA
ATOM     15  C   UNL     1      -1.068  11.414  22.251  0.00  0.00    +0.000 A 
ATOM     16  C   UNL     1      -1.214  12.596  22.950  0.00  0.00    +0.000 A 
ATOM     17  S   UNL     1      -1.818  13.815  21.911  0.00  0.00    +0.000 S 
ATOM     18  H   UNL     1      -2.486  12.289  18.762  0.00  0.00    +0.000 HD
ATOM     19  H   UNL     1      -2.825  13.867  19.300  0.00  0.00    +0.000 HD
ENDBRANCH  11  15
ENDBRANCH   7  11
ENDBRANCH   1   9
BRANCH   4  20
ATOM     20  C   UNL     1       4.047   6.554  17.201  0.00  0.00    +0.000 C 
BRANCH  20  21
ATOM     21  C   UNL     1       4.155   5.075  17.602  0.00  0.00    +0.000 C 
BRANCH  21  22
ATOM     22  N   UNL     1       3.039   4.273  17.097  0.00  0.00    +0.000 NA
ATOM     23  H   UNL     1       2.805   4.579  16.152  0.00  0.00    +0.000 HD
BRANCH  22  24
ATOM     24  C   UNL     1       3.373   2.839  17.077  0.00  0.00    +0.000 C 
BRANCH  24  25
ATOM     25  C   UNL     1       3.899   2.238  18.414  0.00  0.00    +0.000 C 
BRANCH  25  26
ATOM     26  C   UNL     1       2.946   2.454  19.562  0.00  0.00    +0.000 A 
ATOM     27  C   UNL     1       1.586   2.704  19.362  0.00  0.00    +0.000 A 
ATOM     28  C   UNL     1       0.761   2.961  20.452  0.00  0.00    +0.000 A 
ATOM     29  C   UNL     1       1.324   2.953  21.717  0.00  0.00    +0.000 A 
ATOM     30  N   UNL     1       2.629   2.712  21.957  0.00  0.00    +0.000 NA
ATOM     31  C   UNL     1       3.408   2.471  20.876  0.00  0.00    +0.000 A 
ENDBRANCH  25  26
BRANCH  25  32
ATOM     32  O   UNL     1       4.161   0.837  18.288  0.00  0.00    +0.000 OA
ATOM     33  H   UNL     1       4.779   0.707  17.553  0.00  0.00    +0.000 HD
ENDBRANCH  25  32
ENDBRANCH  24  25
ENDBRANCH  22  24
ENDBRANCH  21  22
ENDBRANCH  20  21
ENDBRANCH   4  20
TORSDOF 10
ENDMDL
MODEL 2
REMARK VINA RESULT:      -7.4      1.431      1.805
REMARK  Name = 
REMARK  10 active torsions:
REMARK  status: ('A' for Active; 'I' for Inactive)
REMARK    1  A    between atoms: C_4  and  C_5
REMARK    2  A    between atoms: C_5  and  C_6
REMARK    3  A    between atoms: N_8  and  C_9
REMARK    4  A    between atoms: C_12  and  C_13
REMARK    5  A    between atoms: C_13  and  C_14
REMARK    6  A    between atoms: C_14  and  N_15
REMARK    7  A    between atoms: N_15  and  C_16
REMARK    8  A    between atoms: C_16  and  C_17
REMARK    9  A    between atoms: C_17  and  O_18
REMARK   10  A    between atoms: C_17  and  C_19
REMARK                            x       y       z     vdW  Elec       q    Type
REMARK                         _______ _______ _______ _____ _____    ______ ____
ROOT
ATOM      1  C   UNL     1       1.033   8.799  19.955  0.00  0.00    +0.000 A 
ATOM      2  C   UNL     1       1.288   9.364  18.708  0.00  0.00    +0.000 A 
ATOM      3  C   UNL     1       2.178   8.764  17.820  0.00  0.00    +0.000 A 
ATOM      4  C   UNL     1       2.867   7.599  18.172  0.00  0.00    +0.000 A 
ATOM      5  C   UNL     1       2.631   7.037  19.432  0.00  0.00    +0.000 A 
ATOM      6  C   UNL     1       1.722   7.636  20.318  0.00  0.00    +0.000 A 
ENDROOT
BRANCH   1   9
ATOM      7  C   UNL     1       0.334  10.520  21.622  0.00  0.00    +0.000 C 
ATOM      8  O   UNL     1       1.304  11.272  21.544  0.00  0.00    +0.000 OA
ATOM      9  N   UNL     1       0.126   9.369  20.874  0.00  0.00    +0.000 N 
ATOM     10  H   UNL     1      -0.821   8.990  20.896  0.00  0.00    +0.000 HD
BRANCH   7  11
ATOM     11  C   UNL     1      -0.735  10.789  22.663  0.00  0.00    +0.000 C 
BRANCH  11  15
ATOM     12  N   UNL     1      -0.973  15.420  23.854  0.00  0.00    +0.000 N 
ATOM     13  C   UNL     1      -1.308  14.302  23.201  0.00  0.00    +0.000 A 
ATOM     14  N   UNL     1      -0.716  13.150  23.409  0.00  0.00    +0.000 NA
ATOM     15  C   UNL     1      -1.275  12.172  22.588  0.00  0.00    +0.000 A 
ATOM     16  C   UNL     1      -2.283  12.620  21.757  0.00  0.00    +0.000 A 
ATOM     17  S   UNL     1      -2.539  14.295  22.003  0.00  0.00    +0.000 S 
ATOM     18  H   UNL     1      -0.072  15.415  24.316  0.00  0.00    +0.000 HD
ATOM     19  H   UNL     1      -1.217  16.308  23.429  0.00  0.00    +0.000 HD
ENDBRANCH  11  15
ENDBRANCH   7  11
ENDBRANCH   1   9
BRANCH   4  20
ATOM     20  C   UNL     1       3.871   7.008  17.208  0.00  0.00    +0.000 C 
BRANCH  20  21
ATOM     21  C   UNL     1       4.389   5.663  17.740  0.00  0.00    +0.000 C 
BRANCH  21  22
ATOM     22  N   UNL     1       3.744   4.518  17.095  0.00  0.00    +0.000 NA
ATOM     23  H   UNL     1       3.838   4.604  16.083  0.00  0.00    +0.000 HD
BRANCH  22  24
ATOM     24  C   UNL     1       4.341   3.246  17.534  0.00  0.00    +0.000 C 
BRANCH  24  25
ATOM     25  C   UNL     1       3.351   2.172  18.073  0.00  0.00    +0.000 C 
BRANCH  25  26
ATOM     26  C   UNL     1       2.710   2.574  19.376  0.00  0.00    +0.000 A 
ATOM     27  C   UNL     1       1.508   3.285  19.425  0.00  0.00    +0.000 A 
ATOM     28  C   UNL     1       0.991   3.689  20.651  0.00  0.00    +0.000 A 
ATOM     29  C   UNL     1       1.695   3.362  21.799  0.00  0.00    +0.000 A 
ATOM     30  N   UNL     1       2.855   2.675  21.800  0.00  0.00    +0.000 NA
ATOM     31  C   UNL     1       3.335   2.300  20.591  0.00  0.00    +0.000 A 
ENDBRANCH  25  26
BRANCH  25  32
ATOM     32  O   UNL     1       2.321   1.888  17.120  0.00  0.00    +0.000 OA
ATOM     33  H   UNL     1       2.696   1.326  16.424  0.00  0.00    +0.000 HD
ENDBRANCH  25  32
ENDBRANCH  24  25
ENDBRANCH  22  24
ENDBRANCH  21  22
ENDBRANCH  20  21
ENDBRANCH   4  20
TORSDOF 10
ENDMDL
MODEL 3
REMARK VINA RESULT:      -7.3      4.613      9.601
REMARK  Name = 
REMARK  10 active torsions:
REMARK  status: ('A' for Active; 'I' for Inactive)
REMARK    1  A    between atoms: C_4  and  C_5
REMARK    2  A    between atoms: C_5  and  C_6
REMARK    3  A    between atoms: N_8  and  C_9
REMARK    4  A    between atoms: C_12  and  C_13
REMARK    5  A    between atoms: C_13  and  C_14
REMARK    6  A    between atoms: C_14  and  N_15
REMARK    7  A    between atoms: N_15  and  C_16
REMARK    8  A    between atoms: C_16  and  C_17
REMARK    9  A    between atoms: C_17  and  O_18
REMARK   10  A    between atoms: C_17  and  C_19
REMARK                            x       y       z     vdW  Elec       q    Type
REMARK                         _______ _______ _______ _____ _____    ______ ____
ROOT
ATOM      1  C   UNL     1       2.556   6.948  18.627  0.00  0.00    +0.000 A 
ATOM      2  C   UNL     1       2.165   7.098  19.956  0.00  0.00    +0.000 A 
ATOM      3  C   UNL     1       1.494   8.244  20.379  0.00  0.00    +0.000 A 
ATOM      4  C   UNL     1       1.228   9.289  19.489  0.00  0.00    +0.000 A 
ATOM      5  C   UNL     1       1.636   9.154  18.156  0.00  0.00    +0.000 A 
ATOM      6  C   UNL     1       2.298   7.992  17.730  0.00  0.00    +0.000 A 
ENDROOT
BRANCH   1   9
ATOM      7  C   UNL     1       2.646   4.553  17.932  0.00  0.00    +0.000 C 
ATOM      8  O   UNL     1       1.450   4.279  18.023  0.00  0.00    +0.000 OA
ATOM      9  N   UNL     1       3.222   5.795  18.158  0.00  0.00    +0.000 N 
ATOM     10  H   UNL     1       4.178   5.910  17.823  0.00  0.00    +0.000 HD
BRANCH   7  11
ATOM     11  C   UNL     1       3.639   3.454  17.610  0.00  0.00    +0.000 C 
BRANCH  11  15
ATOM     12  N   UNL     1       7.925   5.119  18.947  0.00  0.00    +0.000 N 
ATOM     13  C   UNL     1       6.970   4.731  18.094  0.00  0.00    +0.000 A 
ATOM     14  N   UNL     1       5.794   4.303  18.487  0.00  0.00    +0.000 NA
ATOM     15  C   UNL     1       5.014   3.972  17.379  0.00  0.00    +0.000 A 
ATOM     16  C   UNL     1       5.636   4.147  16.159  0.00  0.00    +0.000 A 
ATOM     17  S   UNL     1       7.226   4.736  16.395  0.00  0.00    +0.000 S 
ATOM     18  H   UNL     1       7.815   4.819  19.907  0.00  0.00    +0.000 HD
ATOM     19  H   UNL     1       8.884   5.114  18.617  0.00  0.00    +0.000 HD
ENDBRANCH  11  15
ENDBRANCH   7  11
ENDBRANCH   1   9
BRANCH   4  20
ATOM     20  C   UNL     1       0.552  10.544  19.994  0.00  0.00    +0.000 C 
BRANCH  20  21
ATOM     21  C   UNL     1      -0.543  10.988  19.014  0.00  0.00    +0.000 C 
BRANCH  21  22
ATOM     22  N   UNL     1      -0.171  12.190  18.264  0.00  0.00    +0.000 NA
ATOM     23  H   UNL     1      -0.992  12.787  18.155  0.00  0.00    +0.000 HD
BRANCH  22  24
ATOM     24  C   UNL     1       0.892  12.943  18.948  0.00  0.00    +0.000 C 
BRANCH  24  25
ATOM     25  C   UNL     1       2.071  13.433  18.055  0.00  0.00    +0.000 C 
BRANCH  25  26
ATOM     26  C   UNL     1       3.176  14.077  18.853  0.00  0.00    +0.000 A 
ATOM     27  C   UNL     1       4.285  14.669  18.243  0.00  0.00    +0.000 A 
ATOM     28  C   UNL     1       5.308  15.193  19.025  0.00  0.00    +0.000 A 
ATOM     29  C   UNL     1       5.188  15.113  20.403  0.00  0.00    +0.000 A 
ATOM     30  N   UNL     1       4.135  14.555  21.034  0.00  0.00    +0.000 NA
ATOM     31  C   UNL     1       3.157  14.049  20.246  0.00  0.00    +0.000 A 
ENDBRANCH  25  26
BRANCH  25  32
ATOM     32  O   UNL     1       2.622  12.359  17.286  0.00  0.00    +0.000 OA
ATOM     33  H   UNL     1       2.669  11.572  17.849  0.00  0.00    +0.000 HD
ENDBRANCH  25  32
ENDBRANCH  24  25
ENDBRANCH  22  24
ENDBRANCH  21  22
ENDBRANCH  20  21
ENDBRANCH   4  20
TORSDOF 10
ENDMDL
MODEL 4
REMARK VINA RESULT:      -7.3      1.666      2.066
REMARK  Name = 
REMARK  10 active torsions:
REMARK  status: ('A' for Active; 'I' for Inactive)
REMARK    1  A    between atoms: C_4  and  C_5
REMARK    2  A    between atoms: C_5  and  C_6
REMARK    3  A    between atoms: N_8  and  C_9
REMARK    4  A    between atoms: C_12  and  C_13
REMARK    5  A    between atoms: C_13  and  C_14
REMARK    6  A    between atoms: C_14  and  N_15
REMARK    7  A    between atoms: N_15  and  C_16
REMARK    8  A    between atoms: C_16  and  C_17
REMARK    9  A    between atoms: C_17  and  O_18
REMARK   10  A    between atoms: C_17  and  C_19
REMARK                            x       y       z     vdW  Elec       q    Type
REMARK                         _______ _______ _______ _____ _____    ______ ____
ROOT
ATOM      1  C   UNL     1       1.040   9.065  20.022  0.00  0.00    +0.000 A 
ATOM      2  C   UNL     1       1.286   9.401  18.692  0.00  0.00    +0.000 A 
ATOM      3  C   UNL     1       2.038   8.563  17.870  0.00  0.00    +0.000 A 
ATOM      4  C   UNL     1       2.596   7.382  18.368  0.00  0.00    +0.000 A 
ATOM      5  C   UNL     1       2.370   7.047  19.708  0.00  0.00    +0.000 A 
ATOM      6  C   UNL     1       1.600   7.886  20.529  0.00  0.00    +0.000 A 
ENDROOT
BRANCH   1   9
ATOM      7  C   UNL     1       0.473  11.230  21.124  0.00  0.00    +0.000 C 
ATOM      8  O   UNL     1       1.301  11.953  20.572  0.00  0.00    +0.000 OA
ATOM      9  N   UNL     1       0.270   9.879  20.879  0.00  0.00    +0.000 N 
ATOM     10  H   UNL     1      -0.594   9.485  21.249  0.00  0.00    +0.000 HD
BRANCH   7  11
ATOM     11  C   UNL     1      -0.390  11.799  22.233  0.00  0.00    +0.000 C 
BRANCH  11  15
ATOM     12  N   UNL     1      -5.063  12.707  22.744  0.00  0.00    +0.000 N 
ATOM     13  C   UNL     1      -3.899  12.594  22.096  0.00  0.00    +0.000 A 
ATOM     14  N   UNL     1      -2.788  12.218  22.685  0.00  0.00    +0.000 NA
ATOM     15  C   UNL     1      -1.745  12.194  21.761  0.00  0.00    +0.000 A 
ATOM     16  C   UNL     1      -2.094  12.572  20.480  0.00  0.00    +0.000 A 
ATOM     17  S   UNL     1      -3.759  12.967  20.424  0.00  0.00    +0.000 S 
ATOM     18  H   UNL     1      -5.010  12.756  23.753  0.00  0.00    +0.000 HD
ATOM     19  H   UNL     1      -5.777  13.302  22.335  0.00  0.00    +0.000 HD
ENDBRANCH  11  15
ENDBRANCH   7  11
ENDBRANCH   1   9
BRANCH   4  20
ATOM     20  C   UNL     1       3.456   6.527  17.465  0.00  0.00    +0.000 C 
BRANCH  20  21
ATOM     21  C   UNL     1       4.920   6.571  17.929  0.00  0.00    +0.000 C 
BRANCH  21  22
ATOM     22  N   UNL     1       5.576   5.265  17.844  0.00  0.00    +0.000 NA
ATOM     23  H   UNL     1       6.577   5.399  17.699  0.00  0.00    +0.000 HD
BRANCH  22  24
ATOM     24  C   UNL     1       5.362   4.475  19.067  0.00  0.00    +0.000 C 
BRANCH  24  25
ATOM     25  C   UNL     1       4.633   3.111  18.885  0.00  0.00    +0.000 C 
BRANCH  25  26
ATOM     26  C   UNL     1       3.358   3.022  19.684  0.00  0.00    +0.000 A 
ATOM     27  C   UNL     1       2.114   3.351  19.137  0.00  0.00    +0.000 A 
ATOM     28  C   UNL     1       0.976   3.315  19.935  0.00  0.00    +0.000 A 
ATOM     29  C   UNL     1       1.116   2.943  21.262  0.00  0.00    +0.000 A 
ATOM     30  N   UNL     1       2.294   2.613  21.829  0.00  0.00    +0.000 NA
ATOM     31  C   UNL     1       3.385   2.663  21.029  0.00  0.00    +0.000 A 
ENDBRANCH  25  26
BRANCH  25  32
ATOM     32  O   UNL     1       4.334   2.859  17.508  0.00  0.00    +0.000 OA
ATOM     33  H   UNL     1       4.988   3.324  16.964  0.00  0.00    +0.000 HD
ENDBRANCH  25  32
ENDBRANCH  24  25
ENDBRANCH  22  24
ENDBRANCH  21  22
ENDBRANCH  20  21
ENDBRANCH   4  20
TORSDOF 10
ENDMDL
MODEL 5
REMARK VINA RESULT:      -7.3      1.040      1.096
REMARK  Name = 
REMARK  10 active torsions:
REMARK  status: ('A' for Active; 'I' for Inactive)
REMARK    1  A    between atoms: C_4  and  C_5
REMARK    2  A    between atoms: C_5  and  C_6
REMARK    3  A    between atoms: N_8  and  C_9
REMARK    4  A    between atoms: C_12  and  C_13
REMARK    5  A    between atoms: C_13  and  C_14
REMARK    6  A    between atoms: C_14  and  N_15
REMARK    7  A    between atoms: N_15  and  C_16
REMARK    8  A    between atoms: C_16  and  C_17
REMARK    9  A    between atoms: C_17  and  O_18
REMARK   10  A    between atoms: C_17  and  C_19
REMARK                            x       y       z     vdW  Elec       q    Type
REMARK                         _______ _______ _______ _____ _____    ______ ____
ROOT
ATOM      1  C   UNL     1       0.823   8.895  20.278  0.00  0.00    +0.000 A 
ATOM      2  C   UNL     1       1.350   7.678  20.705  0.00  0.00    +0.000 A 
ATOM      3  C   UNL     1       2.220   6.952  19.894  0.00  0.00    +0.000 A 
ATOM      4  C   UNL     1       2.557   7.407  18.615  0.00  0.00    +0.000 A 
ATOM      5  C   UNL     1       2.015   8.619  18.172  0.00  0.00    +0.000 A 
ATOM      6  C   UNL     1       1.152   9.355  18.997  0.00  0.00    +0.000 A 
ENDROOT
BRANCH   1   9
ATOM      7  C   UNL     1       0.162  10.024  22.403  0.00  0.00    +0.000 C 
ATOM      8  O   UNL     1       1.173   9.799  23.066  0.00  0.00    +0.000 OA
ATOM      9  N   UNL     1      -0.047   9.667  21.078  0.00  0.00    +0.000 N 
ATOM     10  H   UNL     1      -0.832  10.121  20.613  0.00  0.00    +0.000 HD
BRANCH   7  11
ATOM     11  C   UNL     1      -1.027  10.695  23.062  0.00  0.00    +0.000 C 
BRANCH  11  15
ATOM     12  N   UNL     1      -1.001  13.946  19.547  0.00  0.00    +0.000 N 
ATOM     13  C   UNL     1      -1.503  13.258  20.579  0.00  0.00    +0.000 A 
ATOM     14  N   UNL     1      -0.830  12.321  21.206  0.00  0.00    +0.000 NA
ATOM     15  C   UNL     1      -1.606  11.784  22.231  0.00  0.00    +0.000 A 
ATOM     16  C   UNL     1      -2.871  12.326  22.347  0.00  0.00    +0.000 A 
ATOM     17  S   UNL     1      -3.099  13.530  21.152  0.00  0.00    +0.000 S 
ATOM     18  H   UNL     1      -0.193  13.542  19.090  0.00  0.00    +0.000 HD
ATOM     19  H   UNL     1      -1.656  14.394  18.915  0.00  0.00    +0.000 HD
ENDBRANCH  11  15
ENDBRANCH   7  11
ENDBRANCH   1   9
BRANCH   4  20
ATOM     20  C   UNL     1       3.455   6.564  17.738  0.00  0.00    +0.000 C 
BRANCH  20  21
ATOM     21  C   UNL     1       4.816   6.353  18.419  0.00  0.00    +0.000 C 
BRANCH  21  22
ATOM     22  N   UNL     1       4.912   5.058  19.094  0.00  0.00    +0.000 NA
ATOM     23  H   UNL     1       4.151   4.972  19.769  0.00  0.00    +0.000 HD
BRANCH  22  24
ATOM     24  C   UNL     1       4.838   3.944  18.134  0.00  0.00    +0.000 C 
BRANCH  24  25
ATOM     25  C   UNL     1       4.340   2.581  18.700  0.00  0.00    +0.000 C 
BRANCH  25  26
ATOM     26  C   UNL     1       3.216   2.740  19.691  0.00  0.00    +0.000 A 
ATOM     27  C   UNL     1       1.957   3.221  19.317  0.00  0.00    +0.000 A 
ATOM     28  C   UNL     1       0.974   3.410  20.282  0.00  0.00    +0.000 A 
ATOM     29  C   UNL     1       1.278   3.106  21.598  0.00  0.00    +0.000 A 
ATOM     30  N   UNL     1       2.476   2.636  22.003  0.00  0.00    +0.000 NA
ATOM     31  C   UNL     1       3.414   2.467  21.042  0.00  0.00    +0.000 A 
ENDBRANCH  25  26
BRANCH  25  32
ATOM     32  O   UNL     1       3.911   1.707  17.651  0.00  0.00    +0.000 OA
ATOM     33  H   UNL     1       4.446   0.899  17.689  0.00  0.00    +0.000 HD
ENDBRANCH  25  32
ENDBRANCH  24  25
ENDBRANCH  22  24
ENDBRANCH  21  22
ENDBRANCH  20  21
ENDBRANCH   4  20
TORSDOF 10
ENDMDL
MODEL 6
REMARK VINA RESULT:      -7.3      2.399      3.890
REMARK  Name = 
REMARK  10 active torsions:
REMARK  status: ('A' for Active; 'I' for Inactive)
REMARK    1  A    between atoms: C_4  and  C_5
REMARK    2  A    between atoms: C_5  and  C_6
REMARK    3  A    between atoms: N_8  and  C_9
REMARK    4  A    between atoms: C_12  and  C_13
REMARK    5  A    between atoms: C_13  and  C_14
REMARK    6  A    between atoms: C_14  and  N_15
REMARK    7  A    between atoms: N_15  and  C_16
REMARK    8  A    between atoms: C_16  and  C_17
REMARK    9  A    between atoms: C_17  and  O_18
REMARK   10  A    between atoms: C_17  and  C_19
REMARK                            x       y       z     vdW  Elec       q    Type
REMARK                         _______ _______ _______ _____ _____    ______ ____
ROOT
ATOM      1  C   UNL     1       1.177   9.490  19.189  0.00  0.00    +0.000 A 
ATOM      2  C   UNL     1       1.203   8.664  20.310  0.00  0.00    +0.000 A 
ATOM      3  C   UNL     1       1.919   7.469  20.301  0.00  0.00    +0.000 A 
ATOM      4  C   UNL     1       2.600   7.049  19.154  0.00  0.00    +0.000 A 
ATOM      5  C   UNL     1       2.562   7.864  18.017  0.00  0.00    +0.000 A 
ATOM      6  C   UNL     1       1.852   9.074  18.034  0.00  0.00    +0.000 A 
ENDROOT
BRANCH   1   9
ATOM      7  C   UNL     1      -0.749  10.945  18.556  0.00  0.00    +0.000 C 
ATOM      8  O   UNL     1      -1.460  10.102  18.011  0.00  0.00    +0.000 OA
ATOM      9  N   UNL     1       0.476  10.715  19.166  0.00  0.00    +0.000 N 
ATOM     10  H   UNL     1       0.824  11.466  19.762  0.00  0.00    +0.000 HD
BRANCH   7  11
ATOM     11  C   UNL     1      -1.170  12.401  18.531  0.00  0.00    +0.000 C 
BRANCH  11  15
ATOM     12  N   UNL     1      -2.393  12.048  23.147  0.00  0.00    +0.000 N 
ATOM     13  C   UNL     1      -2.053  12.667  22.011  0.00  0.00    +0.000 A 
ATOM     14  N   UNL     1      -1.816  12.025  20.892  0.00  0.00    +0.000 NA
ATOM     15  C   UNL     1      -1.485  12.931  19.885  0.00  0.00    +0.000 A 
ATOM     16  C   UNL     1      -1.467  14.254  20.278  0.00  0.00    +0.000 A 
ATOM     17  S   UNL     1      -1.869  14.374  21.938  0.00  0.00    +0.000 S 
ATOM     18  H   UNL     1      -2.200  11.055  23.190  0.00  0.00    +0.000 HD
ATOM     19  H   UNL     1      -2.236  12.540  24.020  0.00  0.00    +0.000 HD
ENDBRANCH  11  15
ENDBRANCH   7  11
ENDBRANCH   1   9
BRANCH   4  20
ATOM     20  C   UNL     1       3.317   5.718  19.160  0.00  0.00    +0.000 C 
BRANCH  20  21
ATOM     21  C   UNL     1       2.411   4.624  18.575  0.00  0.00    +0.000 C 
BRANCH  21  22
ATOM     22  N   UNL     1       2.815   4.220  17.227  0.00  0.00    +0.000 NA
ATOM     23  H   UNL     1       2.882   5.047  16.633  0.00  0.00    +0.000 HD
BRANCH  22  24
ATOM     24  C   UNL     1       4.112   3.523  17.241  0.00  0.00    +0.000 C 
BRANCH  24  25
ATOM     25  C   UNL     1       5.233   4.141  16.354  0.00  0.00    +0.000 C 
BRANCH  25  26
ATOM     26  C   UNL     1       6.142   5.064  17.126  0.00  0.00    +0.000 A 
ATOM     27  C   UNL     1       6.337   6.397  16.754  0.00  0.00    +0.000 A 
ATOM     28  C   UNL     1       7.237   7.188  17.460  0.00  0.00    +0.000 A 
ATOM     29  C   UNL     1       7.912   6.621  18.529  0.00  0.00    +0.000 A 
ATOM     30  N   UNL     1       7.751   5.342  18.925  0.00  0.00    +0.000 NA
ATOM     31  C   UNL     1       6.873   4.595  18.215  0.00  0.00    +0.000 A 
ENDBRANCH  25  26
BRANCH  25  32
ATOM     32  O   UNL     1       6.026   3.125  15.733  0.00  0.00    +0.000 OA
ATOM     33  H   UNL     1       5.699   2.992  14.830  0.00  0.00    +0.000 HD
ENDBRANCH  25  32
ENDBRANCH  24  25
ENDBRANCH  22  24
ENDBRANCH  21  22
ENDBRANCH  20  21
ENDBRANCH   4  20
TORSDOF 10
ENDMDL
MODEL 7
REMARK VINA RESULT:      -7.3      2.491      4.353
REMARK  Name = 
REMARK  10 active torsions:
REMARK  status: ('A' for Active; 'I' for Inactive)
REMARK    1  A    between atoms: C_4  and  C_5
REMARK    2  A    between atoms: C_5  and  C_6
REMARK    3  A    between atoms: N_8  and  C_9
REMARK    4  A    between atoms: C_12  and  C_13
REMARK    5  A    between atoms: C_13  and  C_14
REMARK    6  A    between atoms: C_14  and  N_15
REMARK    7  A    between atoms: N_15  and  C_16
REMARK    8  A    between atoms: C_16  and  C_17
REMARK    9  A    between atoms: C_17  and  O_18
REMARK   10  A    between atoms: C_17  and  C_19
REMARK                            x       y       z     vdW  Elec       q    Type
REMARK                         _______ _______ _______ _____ _____    ______ ____
ROOT
ATOM      1  C   UNL     1       1.884   6.445  20.192  0.00  0.00    +0.000 A 
ATOM      2  C   UNL     1       2.023   6.392  18.807  0.00  0.00    +0.000 A 
ATOM      3  C   UNL     1       2.012   5.173  18.133  0.00  0.00    +0.000 A 
ATOM      4  C   UNL     1       1.897   3.968  18.833  0.00  0.00    +0.000 A 
ATOM      5  C   UNL     1       1.777   4.011  20.227  0.00  0.00    +0.000 A 
ATOM      6  C   UNL     1       1.774   5.242  20.901  0.00  0.00    +0.000 A 
ENDROOT
BRANCH   1   9
ATOM      7  C   UNL     1       0.761   8.270  21.471  0.00  0.00    +0.000 C 
ATOM      8  O   UNL     1      -0.378   7.808  21.511  0.00  0.00    +0.000 OA
ATOM      9  N   UNL     1       1.874   7.661  20.908  0.00  0.00    +0.000 N 
ATOM     10  H   UNL     1       2.776   8.067  21.157  0.00  0.00    +0.000 HD
BRANCH   7  11
ATOM     11  C   UNL     1       1.020   9.661  22.016  0.00  0.00    +0.000 C 
BRANCH  11  15
ATOM     12  N   UNL     1      -0.417  11.708  17.933  0.00  0.00    +0.000 N 
ATOM     13  C   UNL     1      -0.245  11.594  19.254  0.00  0.00    +0.000 A 
ATOM     14  N   UNL     1       0.356  10.568  19.809  0.00  0.00    +0.000 NA
ATOM     15  C   UNL     1       0.386  10.727  21.194  0.00  0.00    +0.000 A 
ATOM     16  C   UNL     1      -0.214  11.880  21.659  0.00  0.00    +0.000 A 
ATOM     17  S   UNL     1      -0.830  12.786  20.344  0.00  0.00    +0.000 S 
ATOM     18  H   UNL     1      -0.314  10.857  17.393  0.00  0.00    +0.000 HD
ATOM     19  H   UNL     1      -1.154  12.323  17.603  0.00  0.00    +0.000 HD
ENDBRANCH  11  15
ENDBRANCH   7  11
ENDBRANCH   1   9
BRANCH   4  20
ATOM     20  C   UNL     1       1.949   2.660  18.076  0.00  0.00    +0.000 C 
BRANCH  20  21
ATOM     21  C   UNL     1       2.985   2.741  16.945  0.00  0.00    +0.000 C 
BRANCH  21  22
ATOM     22  N   UNL     1       4.361   2.644  17.436  0.00  0.00    +0.000 NA
ATOM     23  H   UNL     1       4.836   1.877  16.959  0.00  0.00    +0.000 HD
BRANCH  22  24
ATOM     24  C   UNL     1       5.103   3.895  17.208  0.00  0.00    +0.000 C 
BRANCH  24  25
ATOM     25  C   UNL     1       6.084   4.327  18.338  0.00  0.00    +0.000 C 
BRANCH  25  26
ATOM     26  C   UNL     1       6.720   5.668  18.075  0.00  0.00    +0.000 A 
ATOM     27  C   UNL     1       7.793   6.143  18.833  0.00  0.00    +0.000 A 
ATOM     28  C   UNL     1       8.301   7.415  18.592  0.00  0.00    +0.000 A 
ATOM     29  C   UNL     1       7.721   8.175  17.589  0.00  0.00    +0.000 A 
ATOM     30  N   UNL     1       6.689   7.755  16.830  0.00  0.00    +0.000 NA
ATOM     31  C   UNL     1       6.212   6.515  17.092  0.00  0.00    +0.000 A 
ENDBRANCH  25  26
BRANCH  25  32
ATOM     32  O   UNL     1       5.429   4.368  19.610  0.00  0.00    +0.000 OA
ATOM     33  H   UNL     1       5.933   3.821  20.231  0.00  0.00    +0.000 HD
ENDBRANCH  25  32
ENDBRANCH  24  25
ENDBRANCH  22  24
ENDBRANCH  21  22
ENDBRANCH  20  21
ENDBRANCH   4  20
TORSDOF 10
ENDMDL
MODEL 8
REMARK VINA RESULT:      -7.3      3.945      9.910
REMARK  Name = 
REMARK  10 active torsions:
REMARK  status: ('A' for Active; 'I' for Inactive)
REMARK    1  A    between atoms: C_4  and  C_5
REMARK    2  A    between atoms: C_5  and  C_6
REMARK    3  A    between atoms: N_8  and  C_9
REMARK    4  A    between atoms: C_12  and  C_13
REMARK    5  A    between atoms: C_13  and  C_14
REMARK    6  A    between atoms: C_14  and  N_15
REMARK    7  A    between atoms: N_15  and  C_16
REMARK    8  A    between atoms: C_16  and  C_17
REMARK    9  A    between atoms: C_17  and  O_18
REMARK   10  A    between atoms: C_17  and  C_19
REMARK                            x       y       z     vdW  Elec       q    Type
REMARK                         _______ _______ _______ _____ _____    ______ ____
ROOT
ATOM      1  C   UNL     1       2.557   7.412  18.704  0.00  0.00    +0.000 A 
ATOM      2  C   UNL     1       2.405   8.361  17.696  0.00  0.00    +0.000 A 
ATOM      3  C   UNL     1       1.708   9.545  17.928  0.00  0.00    +0.000 A 
ATOM      4  C   UNL     1       1.110   9.795  19.167  0.00  0.00    +0.000 A 
ATOM      5  C   UNL     1       1.242   8.836  20.179  0.00  0.00    +0.000 A 
ATOM      6  C   UNL     1       1.958   7.652  19.947  0.00  0.00    +0.000 A 
ENDROOT
BRANCH   1   9
ATOM      7  C   UNL     1       2.725   4.983  18.156  0.00  0.00    +0.000 C 
ATOM      8  O   UNL     1       1.549   4.766  17.869  0.00  0.00    +0.000 OA
ATOM      9  N   UNL     1       3.270   6.209  18.512  0.00  0.00    +0.000 N 
ATOM     10  H   UNL     1       4.288   6.264  18.495  0.00  0.00    +0.000 HD
BRANCH   7  11
ATOM     11  C   UNL     1       3.705   3.827  18.205  0.00  0.00    +0.000 C 
BRANCH  11  15
ATOM     12  N   UNL     1       7.859   5.532  19.866  0.00  0.00    +0.000 N 
ATOM     13  C   UNL     1       7.003   5.060  18.952  0.00  0.00    +0.000 A 
ATOM     14  N   UNL     1       5.767   4.724  19.239  0.00  0.00    +0.000 NA
ATOM     15  C   UNL     1       5.120   4.268  18.091  0.00  0.00    +0.000 A 
ATOM     16  C   UNL     1       5.899   4.258  16.951  0.00  0.00    +0.000 A 
ATOM     17  S   UNL     1       7.472   4.827  17.316  0.00  0.00    +0.000 S 
ATOM     18  H   UNL     1       7.613   5.370  20.834  0.00  0.00    +0.000 HD
ATOM     19  H   UNL     1       8.851   5.455  19.669  0.00  0.00    +0.000 HD
ENDBRANCH  11  15
ENDBRANCH   7  11
ENDBRANCH   1   9
BRANCH   4  20
ATOM     20  C   UNL     1       0.310  11.062  19.365  0.00  0.00    +0.000 C 
BRANCH  20  21
ATOM     21  C   UNL     1      -0.827  10.820  20.368  0.00  0.00    +0.000 C 
BRANCH  21  22
ATOM     22  N   UNL     1      -0.661  11.588  21.603  0.00  0.00    +0.000 NA
ATOM     23  H   UNL     1       0.330  11.786  21.746  0.00  0.00    +0.000 HD
BRANCH  22  24
ATOM     24  C   UNL     1      -1.409  12.855  21.554  0.00  0.00    +0.000 C 
BRANCH  24  25
ATOM     25  C   UNL     1      -2.898  12.757  21.108  0.00  0.00    +0.000 C 
BRANCH  25  26
ATOM     26  C   UNL     1      -3.851  12.715  22.275  0.00  0.00    +0.000 A 
ATOM     27  C   UNL     1      -3.408  12.566  23.592  0.00  0.00    +0.000 A 
ATOM     28  C   UNL     1      -4.332  12.468  24.627  0.00  0.00    +0.000 A 
ATOM     29  C   UNL     1      -5.679  12.530  24.311  0.00  0.00    +0.000 A 
ATOM     30  N   UNL     1      -6.151  12.678  23.057  0.00  0.00    +0.000 NA
ATOM     31  C   UNL     1      -5.228  12.765  22.071  0.00  0.00    +0.000 A 
ENDBRANCH  25  26
BRANCH  25  32
ATOM     32  O   UNL     1      -3.260  13.846  20.254  0.00  0.00    +0.000 OA
ATOM     33  H   UNL     1      -3.913  14.393  20.716  0.00  0.00    +0.000 HD
ENDBRANCH  25  32
ENDBRANCH  24  25
ENDBRANCH  22  24
ENDBRANCH  21  22
ENDBRANCH  20  21
ENDBRANCH   4  20
TORSDOF 10
ENDMDL
MODEL 9
REMARK VINA RESULT:      -7.2      1.814      2.301
REMARK  Name = 
REMARK  10 active torsions:
REMARK  status: ('A' for Active; 'I' for Inactive)
REMARK    1  A    between atoms: C_4  and  C_5
REMARK    2  A    between atoms: C_5  and  C_6
REMARK    3  A    between atoms: N_8  and  C_9
REMARK    4  A    between atoms: C_12  and  C_13
REMARK    5  A    between atoms: C_13  and  C_14
REMARK    6  A    between atoms: C_14  and  N_15
REMARK    7  A    between atoms: N_15  and  C_16
REMARK    8  A    between atoms: C_16  and  C_17
REMARK    9  A    between atoms: C_17  and  O_18
REMARK   10  A    between atoms: C_17  and  C_19
REMARK                            x       y       z     vdW  Elec       q    Type
REMARK                         _______ _______ _______ _____ _____    ______ ____
ROOT
ATOM      1  C   UNL     1       2.363   7.924  18.621  0.00  0.00    +0.000 A 
ATOM      2  C   UNL     1       3.272   8.042  17.572  0.00  0.00    +0.000 A 
ATOM      3  C   UNL     1       4.256   7.077  17.366  0.00  0.00    +0.000 A 
ATOM      4  C   UNL     1       4.380   5.983  18.229  0.00  0.00    +0.000 A 
ATOM      5  C   UNL     1       3.483   5.868  19.297  0.00  0.00    +0.000 A 
ATOM      6  C   UNL     1       2.484   6.834  19.493  0.00  0.00    +0.000 A 
ENDROOT
BRANCH   1   9
ATOM      7  C   UNL     1       0.901   9.312  20.092  0.00  0.00    +0.000 C 
ATOM      8  O   UNL     1       1.381   9.012  21.184  0.00  0.00    +0.000 OA
ATOM      9  N   UNL     1       1.344   8.872  18.852  0.00  0.00    +0.000 N 
ATOM     10  H   UNL     1       0.990   9.386  18.046  0.00  0.00    +0.000 HD
BRANCH   7  11
ATOM     11  C   UNL     1      -0.332  10.192  20.037  0.00  0.00    +0.000 C 
BRANCH  11  15
ATOM     12  N   UNL     1       2.333  13.530  17.875  0.00  0.00    +0.000 N 
ATOM     13  C   UNL     1       1.260  13.030  18.498  0.00  0.00    +0.000 A 
ATOM     14  N   UNL     1       1.187  11.784  18.902  0.00  0.00    +0.000 NA
ATOM     15  C   UNL     1      -0.044  11.554  19.515  0.00  0.00    +0.000 A 
ATOM     16  C   UNL     1      -0.889  12.646  19.547  0.00  0.00    +0.000 A 
ATOM     17  S   UNL     1      -0.135  13.987  18.797  0.00  0.00    +0.000 S 
ATOM     18  H   UNL     1       2.977  12.855  17.482  0.00  0.00    +0.000 HD
ATOM     19  H   UNL     1       2.206  14.362  17.309  0.00  0.00    +0.000 HD
ENDBRANCH  11  15
ENDBRANCH   7  11
ENDBRANCH   1   9
BRANCH   4  20
ATOM     20  C   UNL     1       5.496   4.987  18.011  0.00  0.00    +0.000 C 
BRANCH  20  21
ATOM     21  C   UNL     1       5.141   4.034  16.860  0.00  0.00    +0.000 C 
BRANCH  21  22
ATOM     22  N   UNL     1       3.695   3.906  16.664  0.00  0.00    +0.000 NA
ATOM     23  H   UNL     1       3.474   4.061  15.680  0.00  0.00    +0.000 HD
BRANCH  22  24
ATOM     24  C   UNL     1       3.214   2.575  17.068  0.00  0.00    +0.000 C 
BRANCH  24  25
ATOM     25  C   UNL     1       3.764   2.027  18.419  0.00  0.00    +0.000 C 
BRANCH  25  26
ATOM     26  C   UNL     1       2.867   2.353  19.586  0.00  0.00    +0.000 A 
ATOM     27  C   UNL     1       1.535   2.739  19.414  0.00  0.00    +0.000 A 
ATOM     28  C   UNL     1       0.769   3.093  20.519  0.00  0.00    +0.000 A 
ATOM     29  C   UNL     1       1.360   3.042  21.771  0.00  0.00    +0.000 A 
ATOM     30  N   UNL     1       2.638   2.670  21.984  0.00  0.00    +0.000 NA
ATOM     31  C   UNL     1       3.361   2.338  20.888  0.00  0.00    +0.000 A 
ENDBRANCH  25  26
BRANCH  25  32
ATOM     32  O   UNL     1       3.957   0.610  18.366  0.00  0.00    +0.000 OA
ATOM     33  H   UNL     1       3.681   0.232  19.215  0.00  0.00    +0.000 HD
ENDBRANCH  25  32
ENDBRANCH  24  25
ENDBRANCH  22  24
ENDBRANCH  21  22
ENDBRANCH  20  21
ENDBRANCH   4  20
TORSDOF 10
ENDMDL
