MODEL 1
REMARK VINA RESULT:      -7.3      0.000      0.000
REMARK  Name = 
REMARK  1 active torsions:
REMARK  status: ('A' for Active; 'I' for Inactive)
REMARK    1  A    between atoms: C_10  and  C_11
REMARK                            x       y       z     vdW  Elec       q    Type
REMARK                         _______ _______ _______ _____ _____    ______ ____
ROOT
ATOM      1  O   UNL     1      -0.448  15.052  18.514  0.00  0.00    +0.000 OA
ATOM      2  C   UNL     1       0.224  14.367  19.284  0.00  0.00    +0.000 A 
ATOM      3  C   UNL     1       1.585  14.819  19.625  0.00  0.00    +0.000 A 
ATOM      4  C   UNL     1       2.084  16.039  19.153  0.00  0.00    +0.000 A 
ATOM      5  C   UNL     1       3.375  16.436  19.498  0.00  0.00    +0.000 A 
ATOM      6  C   UNL     1       4.162  15.614  20.303  0.00  0.00    +0.000 A 
ATOM      7  C   UNL     1       3.655  14.396  20.761  0.00  0.00    +0.000 A 
ATOM      8  C   UNL     1       2.360  13.992  20.432  0.00  0.00    +0.000 A 
ATOM      9  N   UNL     1       1.886  12.782  20.947  0.00  0.00    +0.000 NA
ATOM     10  C   UNL     1       0.666  12.408  20.694  0.00  0.00    +0.000 A 
ATOM     11  N   UNL     1      -0.170  13.162  19.866  0.00  0.00    +0.000 N 
ATOM     12  C   UNL     1      -1.429  12.743  19.506  0.00  0.00    +0.000 A 
ATOM     13  N   UNL     1      -2.539  12.984  20.165  0.00  0.00    +0.000 NA
ATOM     14  C   UNL     1      -3.611  12.394  19.506  0.00  0.00    +0.000 A 
ATOM     15  C   UNL     1      -4.961  12.364  19.924  0.00  0.00    +0.000 A 
ATOM     16 BR   UNL     1      -5.471  13.133  21.580  0.00  0.00    +0.000 Br
ATOM     17  C   UNL     1      -5.933  11.743  19.135  0.00  0.00    +0.000 A 
ATOM     18  C   UNL     1      -5.578  11.151  17.927  0.00  0.00    +0.000 A 
ATOM     19  C   UNL     1      -4.248  11.141  17.496  0.00  0.00    +0.000 A 
ATOM     20  C   UNL     1      -3.278  11.756  18.306  0.00  0.00    +0.000 A 
ATOM     21  S   UNL     1      -1.574  11.852  18.059  0.00  0.00    +0.000 S 
ENDROOT
BRANCH  10  22
ATOM     22  C   UNL     1       0.232  11.111  21.333  0.00  0.00    +0.000 A 
ATOM     23  C   UNL     1      -0.447  11.036  22.552  0.00  0.00    +0.000 A 
ATOM     24  C   UNL     1      -0.744   9.799  23.132  0.00  0.00    +0.000 A 
ATOM     25  C   UNL     1      -0.304   8.622  22.533  0.00  0.00    +0.000 A 
ATOM     26  C   UNL     1       0.413   8.680  21.342  0.00  0.00    +0.000 A 
ATOM     27  C   UNL     1       0.670   9.914  20.739  0.00  0.00    +0.000 A 
ENDBRANCH  10  22
TORSDOF 1
ENDMDL
MODEL 2
REMARK VINA RESULT:      -7.1      8.882     11.007
REMARK  Name = 
REMARK  1 active torsions:
REMARK  status: ('A' for Active; 'I' for Inactive)
REMARK    1  A    between atoms: C_10  and  C_11
REMARK                            x       y       z     vdW  Elec       q    Type
REMARK                         _______ _______ _______ _____ _____    ______ ____
ROOT
ATOM      1  O   UNL     1       3.788   3.747  15.156  0.00  0.00    +0.000 OA
ATOM      2  C   UNL     1       4.881   4.312  15.129  0.00  0.00    +0.000 A 
ATOM      3  C   UNL     1       5.728   4.151  13.934  0.00  0.00    +0.000 A 
ATOM      4  C   UNL     1       5.278   3.440  12.815  0.00  0.00    +0.000 A 
ATOM      5  C   UNL     1       6.105   3.310  11.701  0.00  0.00    +0.000 A 
ATOM      6  C   UNL     1       7.376   3.881  11.710  0.00  0.00    +0.000 A 
ATOM      7  C   UNL     1       7.817   4.582  12.836  0.00  0.00    +0.000 A 
ATOM      8  C   UNL     1       6.993   4.729  13.954  0.00  0.00    +0.000 A 
ATOM      9  N   UNL     1       7.467   5.472  15.039  0.00  0.00    +0.000 NA
ATOM     10  C   UNL     1       6.699   5.662  16.072  0.00  0.00    +0.000 A 
ATOM     11  N   UNL     1       5.427   5.091  16.149  0.00  0.00    +0.000 N 
ATOM     12  C   UNL     1       4.634   5.198  17.267  0.00  0.00    +0.000 A 
ATOM     13  N   UNL     1       3.774   6.159  17.514  0.00  0.00    +0.000 NA
ATOM     14  C   UNL     1       3.165   5.938  18.743  0.00  0.00    +0.000 A 
ATOM     15  C   UNL     1       2.232   6.774  19.398  0.00  0.00    +0.000 A 
ATOM     16 BR   UNL     1       1.728   8.434  18.634  0.00  0.00    +0.000 Br
ATOM     17  C   UNL     1       1.691   6.400  20.632  0.00  0.00    +0.000 A 
ATOM     18  C   UNL     1       2.065   5.198  21.224  0.00  0.00    +0.000 A 
ATOM     19  C   UNL     1       3.003   4.360  20.614  0.00  0.00    +0.000 A 
ATOM     20  C   UNL     1       3.551   4.754  19.381  0.00  0.00    +0.000 A 
ATOM     21  S   UNL     1       4.752   3.958  18.434  0.00  0.00    +0.000 S 
ENDROOT
BRANCH  10  22
ATOM     22  C   UNL     1       7.282   6.516  17.172  0.00  0.00    +0.000 A 
ATOM     23  C   UNL     1       7.523   7.887  17.046  0.00  0.00    +0.000 A 
ATOM     24  C   UNL     1       8.146   8.603  18.072  0.00  0.00    +0.000 A 
ATOM     25  C   UNL     1       8.598   7.942  19.212  0.00  0.00    +0.000 A 
ATOM     26  C   UNL     1       8.407   6.569  19.335  0.00  0.00    +0.000 A 
ATOM     27  C   UNL     1       7.743   5.862  18.329  0.00  0.00    +0.000 A 
ENDBRANCH  10  22
TORSDOF 1
ENDMDL
MODEL 3
REMARK VINA RESULT:      -6.8      0.419      1.017
REMARK  Name = 
REMARK  1 active torsions:
REMARK  status: ('A' for Active; 'I' for Inactive)
REMARK    1  A    between atoms: C_10  and  C_11
REMARK                            x       y       z     vdW  Elec       q    Type
REMARK                         _______ _______ _______ _____ _____    ______ ____
ROOT
ATOM      1  O   UNL     1      -0.607  15.393  18.831  0.00  0.00    +0.000 OA
ATOM      2  C   UNL     1       0.112  14.717  19.566  0.00  0.00    +0.000 A 
ATOM      3  C   UNL     1       1.424  15.260  19.963  0.00  0.00    +0.000 A 
ATOM      4  C   UNL     1       1.822  16.547  19.583  0.00  0.00    +0.000 A 
ATOM      5  C   UNL     1       3.069  17.028  19.978  0.00  0.00    +0.000 A 
ATOM      6  C   UNL     1       3.913  16.223  20.741  0.00  0.00    +0.000 A 
ATOM      7  C   UNL     1       3.507  14.938  21.107  0.00  0.00    +0.000 A 
ATOM      8  C   UNL     1       2.256  14.448  20.726  0.00  0.00    +0.000 A 
ATOM      9  N   UNL     1       1.882  13.170  21.151  0.00  0.00    +0.000 NA
ATOM     10  C   UNL     1       0.702  12.711  20.850  0.00  0.00    +0.000 A 
ATOM     11  N   UNL     1      -0.184  13.446  20.059  0.00  0.00    +0.000 N 
ATOM     12  C   UNL     1      -1.398  12.947  19.648  0.00  0.00    +0.000 A 
ATOM     13  N   UNL     1      -2.533  13.046  20.299  0.00  0.00    +0.000 NA
ATOM     14  C   UNL     1      -3.542  12.414  19.582  0.00  0.00    +0.000 A 
ATOM     15  C   UNL     1      -4.889  12.240  19.971  0.00  0.00    +0.000 A 
ATOM     16 BR   UNL     1      -5.485  12.848  21.665  0.00  0.00    +0.000 Br
ATOM     17  C   UNL     1      -5.793  11.594  19.124  0.00  0.00    +0.000 A 
ATOM     18  C   UNL     1      -5.372  11.118  17.886  0.00  0.00    +0.000 A 
ATOM     19  C   UNL     1      -4.042  11.251  17.481  0.00  0.00    +0.000 A 
ATOM     20  C   UNL     1      -3.139  11.890  18.348  0.00  0.00    +0.000 A 
ATOM     21  S   UNL     1      -1.446  12.148  18.141  0.00  0.00    +0.000 S 
ENDROOT
BRANCH  10  22
ATOM     22  C   UNL     1       0.374  11.342  21.392  0.00  0.00    +0.000 A 
ATOM     23  C   UNL     1       0.666  10.151  20.720  0.00  0.00    +0.000 A 
ATOM     24  C   UNL     1       0.257   8.918  21.237  0.00  0.00    +0.000 A 
ATOM     25  C   UNL     1      -0.509   8.865  22.397  0.00  0.00    +0.000 A 
ATOM     26  C   UNL     1      -0.848  10.044  23.056  0.00  0.00    +0.000 A 
ATOM     27  C   UNL     1      -0.400  11.273  22.564  0.00  0.00    +0.000 A 
ENDBRANCH  10  22
TORSDOF 1
ENDMDL
MODEL 4
REMARK VINA RESULT:      -6.2      7.506     10.649
REMARK  Name = 
REMARK  1 active torsions:
REMARK  status: ('A' for Active; 'I' for Inactive)
REMARK    1  A    between atoms: C_10  and  C_11
REMARK                            x       y       z     vdW  Elec       q    Type
REMARK                         _______ _______ _______ _____ _____    ______ ____
ROOT
ATOM      1  O   UNL     1       5.739  14.895  17.458  0.00  0.00    +0.000 OA
ATOM      2  C   UNL     1       5.775  15.471  18.545  0.00  0.00    +0.000 A 
ATOM      3  C   UNL     1       4.578  16.203  18.996  0.00  0.00    +0.000 A 
ATOM      4  C   UNL     1       3.393  16.185  18.250  0.00  0.00    +0.000 A 
ATOM      5  C   UNL     1       2.279  16.887  18.708  0.00  0.00    +0.000 A 
ATOM      6  C   UNL     1       2.354  17.607  19.899  0.00  0.00    +0.000 A 
ATOM      7  C   UNL     1       3.545  17.623  20.630  0.00  0.00    +0.000 A 
ATOM      8  C   UNL     1       4.664  16.915  20.187  0.00  0.00    +0.000 A 
ATOM      9  N   UNL     1       5.819  16.932  20.975  0.00  0.00    +0.000 NA
ATOM     10  C   UNL     1       6.859  16.241  20.607  0.00  0.00    +0.000 A 
ATOM     11  N   UNL     1       6.869  15.524  19.408  0.00  0.00    +0.000 N 
ATOM     12  C   UNL     1       7.985  14.863  18.951  0.00  0.00    +0.000 A 
ATOM     13  N   UNL     1       8.314  13.622  19.226  0.00  0.00    +0.000 NA
ATOM     14  C   UNL     1       9.511  13.304  18.596  0.00  0.00    +0.000 A 
ATOM     15  C   UNL     1      10.233  12.094  18.694  0.00  0.00    +0.000 A 
ATOM     16 BR   UNL     1       9.625  10.700  19.826  0.00  0.00    +0.000 Br
ATOM     17  C   UNL     1      11.421  11.918  17.978  0.00  0.00    +0.000 A 
ATOM     18  C   UNL     1      11.900  12.937  17.159  0.00  0.00    +0.000 A 
ATOM     19  C   UNL     1      11.222  14.155  17.059  0.00  0.00    +0.000 A 
ATOM     20  C   UNL     1      10.038  14.324  17.796  0.00  0.00    +0.000 A 
ATOM     21  S   UNL     1       9.030  15.719  17.908  0.00  0.00    +0.000 S 
ENDROOT
BRANCH  10  22
ATOM     22  C   UNL     1       8.040  16.286  21.546  0.00  0.00    +0.000 A 
ATOM     23  C   UNL     1       9.094  17.197  21.423  0.00  0.00    +0.000 A 
ATOM     24  C   UNL     1      10.201  17.129  22.273  0.00  0.00    +0.000 A 
ATOM     25  C   UNL     1      10.301  16.107  23.213  0.00  0.00    +0.000 A 
ATOM     26  C   UNL     1       9.282  15.164  23.319  0.00  0.00    +0.000 A 
ATOM     27  C   UNL     1       8.154  15.260  22.500  0.00  0.00    +0.000 A 
ENDBRANCH  10  22
TORSDOF 1
ENDMDL
MODEL 5
REMARK VINA RESULT:      -6.2      3.862      7.226
REMARK  Name = 
REMARK  1 active torsions:
REMARK  status: ('A' for Active; 'I' for Inactive)
REMARK    1  A    between atoms: C_10  and  C_11
REMARK                            x       y       z     vdW  Elec       q    Type
REMARK                         _______ _______ _______ _____ _____    ______ ____
ROOT
ATOM      1  O   UNL     1      -4.129  16.516  23.238  0.00  0.00    +0.000 OA
ATOM      2  C   UNL     1      -4.184  15.293  23.110  0.00  0.00    +0.000 A 
ATOM      3  C   UNL     1      -5.450  14.608  23.424  0.00  0.00    +0.000 A 
ATOM      4  C   UNL     1      -6.595  15.327  23.785  0.00  0.00    +0.000 A 
ATOM      5  C   UNL     1      -7.776  14.646  24.073  0.00  0.00    +0.000 A 
ATOM      6  C   UNL     1      -7.808  13.254  24.008  0.00  0.00    +0.000 A 
ATOM      7  C   UNL     1      -6.656  12.547  23.654  0.00  0.00    +0.000 A 
ATOM      8  C   UNL     1      -5.470  13.219  23.352  0.00  0.00    +0.000 A 
ATOM      9  N   UNL     1      -4.357  12.466  22.966  0.00  0.00    +0.000 NA
ATOM     10  C   UNL     1      -3.254  13.073  22.633  0.00  0.00    +0.000 A 
ATOM     11  N   UNL     1      -3.137  14.463  22.709  0.00  0.00    +0.000 N 
ATOM     12  C   UNL     1      -1.957  15.121  22.454  0.00  0.00    +0.000 A 
ATOM     13  N   UNL     1      -1.553  15.556  21.283  0.00  0.00    +0.000 NA
ATOM     14  C   UNL     1      -0.309  16.161  21.412  0.00  0.00    +0.000 A 
ATOM     15  C   UNL     1       0.494  16.695  20.379  0.00  0.00    +0.000 A 
ATOM     16 BR   UNL     1      -0.064  16.578  18.571  0.00  0.00    +0.000 Br
ATOM     17  C   UNL     1       1.723  17.293  20.674  0.00  0.00    +0.000 A 
ATOM     18  C   UNL     1       2.164  17.369  21.991  0.00  0.00    +0.000 A 
ATOM     19  C   UNL     1       1.406  16.829  23.033  0.00  0.00    +0.000 A 
ATOM     20  C   UNL     1       0.180  16.217  22.722  0.00  0.00    +0.000 A 
ATOM     21  S   UNL     1      -0.929  15.429  23.781  0.00  0.00    +0.000 S 
ENDROOT
BRANCH  10  22
ATOM     22  C   UNL     1      -2.124  12.178  22.187  0.00  0.00    +0.000 A 
ATOM     23  C   UNL     1      -1.744  12.017  20.851  0.00  0.00    +0.000 A 
ATOM     24  C   UNL     1      -0.744  11.106  20.496  0.00  0.00    +0.000 A 
ATOM     25  C   UNL     1      -0.160  10.295  21.465  0.00  0.00    +0.000 A 
ATOM     26  C   UNL     1      -0.558  10.411  22.794  0.00  0.00    +0.000 A 
ATOM     27  C   UNL     1      -1.524  11.354  23.155  0.00  0.00    +0.000 A 
ENDBRANCH  10  22
TORSDOF 1
ENDMDL
MODEL 6
REMARK VINA RESULT:      -6.2      1.636      1.990
REMARK  Name = 
REMARK  1 active torsions:
REMARK  status: ('A' for Active; 'I' for Inactive)
REMARK    1  A    between atoms: C_10  and  C_11
REMARK                            x       y       z     vdW  Elec       q    Type
REMARK                         _______ _______ _______ _____ _____    ______ ____
ROOT
ATOM      1  O   UNL     1      -1.053  15.494  19.336  0.00  0.00    +0.000 OA
ATOM      2  C   UNL     1      -0.238  14.597  19.554  0.00  0.00    +0.000 A 
ATOM      3  C   UNL     1       1.146  14.773  19.078  0.00  0.00    +0.000 A 
ATOM      4  C   UNL     1       1.558  15.960  18.461  0.00  0.00    +0.000 A 
ATOM      5  C   UNL     1       2.875  16.092  18.026  0.00  0.00    +0.000 A 
ATOM      6  C   UNL     1       3.772  15.039  18.201  0.00  0.00    +0.000 A 
ATOM      7  C   UNL     1       3.347  13.856  18.811  0.00  0.00    +0.000 A 
ATOM      8  C   UNL     1       2.032  13.716  19.261  0.00  0.00    +0.000 A 
ATOM      9  N   UNL     1       1.669  12.527  19.899  0.00  0.00    +0.000 NA
ATOM     10  C   UNL     1       0.463  12.392  20.370  0.00  0.00    +0.000 A 
ATOM     11  N   UNL     1      -0.500  13.390  20.201  0.00  0.00    +0.000 N 
ATOM     12  C   UNL     1      -1.805  13.235  20.605  0.00  0.00    +0.000 A 
ATOM     13  N   UNL     1      -2.287  13.535  21.789  0.00  0.00    +0.000 NA
ATOM     14  C   UNL     1      -3.643  13.233  21.833  0.00  0.00    +0.000 A 
ATOM     15  C   UNL     1      -4.509  13.345  22.944  0.00  0.00    +0.000 A 
ATOM     16 BR   UNL     1      -3.844  13.907  24.628  0.00  0.00    +0.000 Br
ATOM     17  C   UNL     1      -5.863  13.018  22.822  0.00  0.00    +0.000 A 
ATOM     18  C   UNL     1      -6.369  12.580  21.602  0.00  0.00    +0.000 A 
ATOM     19  C   UNL     1      -5.534  12.435  20.491  0.00  0.00    +0.000 A 
ATOM     20  C   UNL     1      -4.173  12.753  20.630  0.00  0.00    +0.000 A 
ATOM     21  S   UNL     1      -2.912  12.623  19.460  0.00  0.00    +0.000 S 
ENDROOT
BRANCH  10  22
ATOM     22  C   UNL     1       0.180  11.093  21.083  0.00  0.00    +0.000 A 
ATOM     23  C   UNL     1      -0.236  11.013  22.415  0.00  0.00    +0.000 A 
ATOM     24  C   UNL     1      -0.398   9.774  23.042  0.00  0.00    +0.000 A 
ATOM     25  C   UNL     1      -0.080   8.600  22.365  0.00  0.00    +0.000 A 
ATOM     26  C   UNL     1       0.378   8.663  21.052  0.00  0.00    +0.000 A 
ATOM     27  C   UNL     1       0.496   9.899  20.411  0.00  0.00    +0.000 A 
ENDBRANCH  10  22
TORSDOF 1
ENDMDL
MODEL 7
REMARK VINA RESULT:      -6.2      6.029     10.218
REMARK  Name = 
REMARK  1 active torsions:
REMARK  status: ('A' for Active; 'I' for Inactive)
REMARK    1  A    between atoms: C_10  and  C_11
REMARK                            x       y       z     vdW  Elec       q    Type
REMARK                         _______ _______ _______ _____ _____    ______ ____
ROOT
ATOM      1  O   UNL     1       5.117  14.971  17.446  0.00  0.00    +0.000 OA
ATOM      2  C   UNL     1       5.036  14.905  18.672  0.00  0.00    +0.000 A 
ATOM      3  C   UNL     1       3.700  14.808  19.287  0.00  0.00    +0.000 A 
ATOM      4  C   UNL     1       2.545  14.713  18.502  0.00  0.00    +0.000 A 
ATOM      5  C   UNL     1       1.298  14.621  19.117  0.00  0.00    +0.000 A 
ATOM      6  C   UNL     1       1.208  14.631  20.508  0.00  0.00    +0.000 A 
ATOM      7  C   UNL     1       2.368  14.734  21.280  0.00  0.00    +0.000 A 
ATOM      8  C   UNL     1       3.624  14.817  20.676  0.00  0.00    +0.000 A 
ATOM      9  N   UNL     1       4.756  14.880  21.494  0.00  0.00    +0.000 NA
ATOM     10  C   UNL     1       5.939  14.908  20.953  0.00  0.00    +0.000 A 
ATOM     11  N   UNL     1       6.106  14.936  19.567  0.00  0.00    +0.000 N 
ATOM     12  C   UNL     1       7.339  15.062  18.972  0.00  0.00    +0.000 A 
ATOM     13  N   UNL     1       8.140  14.075  18.642  0.00  0.00    +0.000 NA
ATOM     14  C   UNL     1       9.301  14.585  18.073  0.00  0.00    +0.000 A 
ATOM     15  C   UNL     1      10.436  13.858  17.647  0.00  0.00    +0.000 A 
ATOM     16 BR   UNL     1      10.517  11.979  17.882  0.00  0.00    +0.000 Br
ATOM     17  C   UNL     1      11.525  14.519  17.073  0.00  0.00    +0.000 A 
ATOM     18  C   UNL     1      11.499  15.901  16.913  0.00  0.00    +0.000 A 
ATOM     19  C   UNL     1      10.402  16.652  17.345  0.00  0.00    +0.000 A 
ATOM     20  C   UNL     1       9.320  15.977  17.934  0.00  0.00    +0.000 A 
ATOM     21  S   UNL     1       7.873  16.639  18.601  0.00  0.00    +0.000 S 
ENDROOT
BRANCH  10  22
ATOM     22  C   UNL     1       7.099  14.929  21.919  0.00  0.00    +0.000 A 
ATOM     23  C   UNL     1       7.713  13.777  22.419  0.00  0.00    +0.000 A 
ATOM     24  C   UNL     1       8.726  13.864  23.377  0.00  0.00    +0.000 A 
ATOM     25  C   UNL     1       9.093  15.101  23.899  0.00  0.00    +0.000 A 
ATOM     26  C   UNL     1       8.461  16.256  23.445  0.00  0.00    +0.000 A 
ATOM     27  C   UNL     1       7.480  16.172  22.454  0.00  0.00    +0.000 A 
ENDBRANCH  10  22
TORSDOF 1
ENDMDL
MODEL 8
REMARK VINA RESULT:      -6.2      3.646      5.961
REMARK  Name = 
REMARK  1 active torsions:
REMARK  status: ('A' for Active; 'I' for Inactive)
REMARK    1  A    between atoms: C_10  and  C_11
REMARK                            x       y       z     vdW  Elec       q    Type
REMARK                         _______ _______ _______ _____ _____    ______ ____
ROOT
ATOM      1  O   UNL     1      -5.996  12.456  18.158  0.00  0.00    +0.000 OA
ATOM      2  C   UNL     1      -4.821  12.258  18.469  0.00  0.00    +0.000 A 
ATOM      3  C   UNL     1      -3.986  11.435  17.576  0.00  0.00    +0.000 A 
ATOM      4  C   UNL     1      -4.482  10.949  16.360  0.00  0.00    +0.000 A 
ATOM      5  C   UNL     1      -3.663  10.176  15.539  0.00  0.00    +0.000 A 
ATOM      6  C   UNL     1      -2.359   9.885  15.938  0.00  0.00    +0.000 A 
ATOM      7  C   UNL     1      -1.878  10.369  17.157  0.00  0.00    +0.000 A 
ATOM      8  C   UNL     1      -2.685  11.154  17.982  0.00  0.00    +0.000 A 
ATOM      9  N   UNL     1      -2.144  11.646  19.174  0.00  0.00    +0.000 NA
ATOM     10  C   UNL     1      -2.861  12.419  19.936  0.00  0.00    +0.000 A 
ATOM     11  N   UNL     1      -4.188  12.725  19.620  0.00  0.00    +0.000 N 
ATOM     12  C   UNL     1      -4.996  13.461  20.454  0.00  0.00    +0.000 A 
ATOM     13  N   UNL     1      -5.119  14.768  20.452  0.00  0.00    +0.000 NA
ATOM     14  C   UNL     1      -6.017  15.154  21.440  0.00  0.00    +0.000 A 
ATOM     15  C   UNL     1      -6.372  16.472  21.805  0.00  0.00    +0.000 A 
ATOM     16 BR   UNL     1      -5.553  17.958  20.959  0.00  0.00    +0.000 Br
ATOM     17  C   UNL     1      -7.312  16.699  22.815  0.00  0.00    +0.000 A 
ATOM     18  C   UNL     1      -7.909  15.624  23.467  0.00  0.00    +0.000 A 
ATOM     19  C   UNL     1      -7.562  14.309  23.147  0.00  0.00    +0.000 A 
ATOM     20  C   UNL     1      -6.605  14.095  22.141  0.00  0.00    +0.000 A 
ATOM     21  S   UNL     1      -5.951  12.602  21.578  0.00  0.00    +0.000 S 
ENDROOT
BRANCH  10  22
ATOM     22  C   UNL     1      -2.174  12.936  21.176  0.00  0.00    +0.000 A 
ATOM     23  C   UNL     1      -2.261  12.317  22.426  0.00  0.00    +0.000 A 
ATOM     24  C   UNL     1      -1.672  12.896  23.554  0.00  0.00    +0.000 A 
ATOM     25  C   UNL     1      -1.047  14.135  23.460  0.00  0.00    +0.000 A 
ATOM     26  C   UNL     1      -0.990  14.788  22.231  0.00  0.00    +0.000 A 
ATOM     27  C   UNL     1      -1.539  14.188  21.095  0.00  0.00    +0.000 A 
ENDBRANCH  10  22
TORSDOF 1
ENDMDL
MODEL 9
REMARK VINA RESULT:      -6.2      2.836      7.091
REMARK  Name = 
REMARK  1 active torsions:
REMARK  status: ('A' for Active; 'I' for Inactive)
REMARK    1  A    between atoms: C_10  and  C_11
REMARK                            x       y       z     vdW  Elec       q    Type
REMARK                         _______ _______ _______ _____ _____    ______ ____
ROOT
ATOM      1  O   UNL     1      -3.150  13.804  22.900  0.00  0.00    +0.000 OA
ATOM      2  C   UNL     1      -3.850  13.243  22.057  0.00  0.00    +0.000 A 
ATOM      3  C   UNL     1      -5.257  12.954  22.389  0.00  0.00    +0.000 A 
ATOM      4  C   UNL     1      -5.818  13.373  23.602  0.00  0.00    +0.000 A 
ATOM      5  C   UNL     1      -7.152  13.084  23.881  0.00  0.00    +0.000 A 
ATOM      6  C   UNL     1      -7.916  12.373  22.957  0.00  0.00    +0.000 A 
ATOM      7  C   UNL     1      -7.343  11.954  21.754  0.00  0.00    +0.000 A 
ATOM      8  C   UNL     1      -6.010  12.247  21.457  0.00  0.00    +0.000 A 
ATOM      9  N   UNL     1      -5.496  11.838  20.224  0.00  0.00    +0.000 NA
ATOM     10  C   UNL     1      -4.271  12.142  19.905  0.00  0.00    +0.000 A 
ATOM     11  N   UNL     1      -3.434  12.820  20.795  0.00  0.00    +0.000 N 
ATOM     12  C   UNL     1      -2.110  13.070  20.521  0.00  0.00    +0.000 A 
ATOM     13  N   UNL     1      -1.636  14.127  19.903  0.00  0.00    +0.000 NA
ATOM     14  C   UNL     1      -0.254  14.028  19.799  0.00  0.00    +0.000 A 
ATOM     15  C   UNL     1       0.621  14.925  19.145  0.00  0.00    +0.000 A 
ATOM     16 BR   UNL     1      -0.062  16.435  18.225  0.00  0.00    +0.000 Br
ATOM     17  C   UNL     1       2.000  14.694  19.144  0.00  0.00    +0.000 A 
ATOM     18  C   UNL     1       2.522  13.579  19.791  0.00  0.00    +0.000 A 
ATOM     19  C   UNL     1       1.683  12.660  20.427  0.00  0.00    +0.000 A 
ATOM     20  C   UNL     1       0.297  12.895  20.407  0.00  0.00    +0.000 A 
ATOM     21  S   UNL     1      -0.969  11.919  21.054  0.00  0.00    +0.000 S 
ENDROOT
BRANCH  10  22
ATOM     22  C   UNL     1      -3.821  11.698  18.534  0.00  0.00    +0.000 A 
ATOM     23  C   UNL     1      -4.556  11.923  17.366  0.00  0.00    +0.000 A 
ATOM     24  C   UNL     1      -4.126  11.409  16.140  0.00  0.00    +0.000 A 
ATOM     25  C   UNL     1      -2.991  10.605  16.077  0.00  0.00    +0.000 A 
ATOM     26  C   UNL     1      -2.272  10.334  17.237  0.00  0.00    +0.000 A 
ATOM     27  C   UNL     1      -2.677  10.885  18.456  0.00  0.00    +0.000 A 
ENDBRANCH  10  22
TORSDOF 1
ENDMDL
