MODEL 1
REMARK VINA RESULT:      -8.5      0.000      0.000
REMARK  Name = 
REMARK  7 active torsions:
REMARK  status: ('A' for Active; 'I' for Inactive)
REMARK    1  A    between atoms: C_1  and  C_2
REMARK    2  A    between atoms: C_5  and  N_6
REMARK    3  A    between atoms: C_7  and  C_9
REMARK    4  A    between atoms: C_14  and  S_15
REMARK    5  A    between atoms: S_15  and  N_18
REMARK    6  A    between atoms: C_26  and  C_27
REMARK    7  A    between atoms: C_28  and  C_29
REMARK                            x       y       z     vdW  Elec       q    Type
REMARK                         _______ _______ _______ _____ _____    ______ ____
ROOT
ATOM      1  C   UNL     1       0.811   9.262  20.058  0.00  0.00    +0.000 A 
ATOM      2  O   UNL     1       0.758   8.187  20.910  0.00  0.00    +0.000 OA
ATOM      3  C   UNL     1       1.556   7.212  20.377  0.00  0.00    +0.000 A 
ATOM      4  C   UNL     1       1.786   5.949  20.925  0.00  0.00    +0.000 A 
ATOM      5  C   UNL     1       2.647   5.095  20.214  0.00  0.00    +0.000 A 
ATOM      6  C   UNL     1       3.240   5.512  19.015  0.00  0.00    +0.000 A 
ATOM      7  C   UNL     1       3.000   6.790  18.490  0.00  0.00    +0.000 A 
ATOM      8  C   UNL     1       2.130   7.650  19.191  0.00  0.00    +0.000 A 
ATOM      9  C   UNL     1       1.652   8.974  18.986  0.00  0.00    +0.000 A 
ATOM     10  C   UNL     1       1.988   9.874  17.851  0.00  0.00    +0.000 C 
ENDROOT
BRANCH   1  12
ATOM     11  N   UNL     1       0.537  11.255  21.378  0.00  0.00    +0.000 N 
ATOM     12  C   UNL     1       0.055  10.478  20.333  0.00  0.00    +0.000 C 
ATOM     13  O   UNL     1      -0.933  10.755  19.652  0.00  0.00    +0.000 OA
ATOM     14  H   UNL     1       1.353  10.878  21.837  0.00  0.00    +0.000 HD
BRANCH  11  19
ATOM     15  C   UNL     1      -1.373  16.374  23.250  0.00  0.00    +0.000 C 
ATOM     16  C   UNL     1      -0.898  15.044  22.744  0.00  0.00    +0.000 A 
ATOM     17  C   UNL     1       0.161  14.965  21.850  0.00  0.00    +0.000 A 
ATOM     18  C   UNL     1       0.614  13.721  21.399  0.00  0.00    +0.000 A 
ATOM     19  C   UNL     1       0.035  12.514  21.819  0.00  0.00    +0.000 A 
ATOM     20  C   UNL     1      -1.056  12.587  22.711  0.00  0.00    +0.000 A 
ATOM     21  C   UNL     1      -1.820  11.403  23.242  0.00  0.00    +0.000 C 
ATOM     22  C   UNL     1      -1.502  13.855  23.163  0.00  0.00    +0.000 A 
ENDBRANCH  11  19
ENDBRANCH   1  12
BRANCH   6  23
ATOM     23  S   UNL     1       4.356   4.436  18.139  0.00  0.00    +0.000 S 
ATOM     24  O   UNL     1       5.158   3.764  19.139  0.00  0.00    +0.000 OA
ATOM     25  O   UNL     1       3.585   3.686  17.172  0.00  0.00    +0.000 OA
BRANCH  23  26
ATOM     26  N   UNL     1       5.378   5.498  17.278  0.00  0.00    +0.000 NA
ATOM     27  C   UNL     1       5.570   5.245  15.816  0.00  0.00    +0.000 C 
ATOM     28  C   UNL     1       6.623   4.163  15.547  0.00  0.00    +0.000 C 
ATOM     29  O   UNL     1       7.870   4.462  16.188  0.00  0.00    +0.000 OA
ATOM     30  C   UNL     1       7.703   4.617  17.605  0.00  0.00    +0.000 C 
ATOM     31  C   UNL     1       6.713   5.743  17.921  0.00  0.00    +0.000 C 
ENDBRANCH  23  26
ENDBRANCH   6  23
TORSDOF 4
ENDMDL
MODEL 2
REMARK VINA RESULT:      -8.5      0.504      1.303
REMARK  Name = 
REMARK  7 active torsions:
REMARK  status: ('A' for Active; 'I' for Inactive)
REMARK    1  A    between atoms: C_1  and  C_2
REMARK    2  A    between atoms: C_5  and  N_6
REMARK    3  A    between atoms: C_7  and  C_9
REMARK    4  A    between atoms: C_14  and  S_15
REMARK    5  A    between atoms: S_15  and  N_18
REMARK    6  A    between atoms: C_26  and  C_27
REMARK    7  A    between atoms: C_28  and  C_29
REMARK                            x       y       z     vdW  Elec       q    Type
REMARK                         _______ _______ _______ _____ _____    ______ ____
ROOT
ATOM      1  C   UNL     1       0.710   9.089  20.169  0.00  0.00    +0.000 A 
ATOM      2  O   UNL     1       0.688   8.005  21.010  0.00  0.00    +0.000 OA
ATOM      3  C   UNL     1       1.532   7.068  20.480  0.00  0.00    +0.000 A 
ATOM      4  C   UNL     1       1.804   5.809  21.019  0.00  0.00    +0.000 A 
ATOM      5  C   UNL     1       2.708   4.998  20.312  0.00  0.00    +0.000 A 
ATOM      6  C   UNL     1       3.300   5.450  19.125  0.00  0.00    +0.000 A 
ATOM      7  C   UNL     1       3.017   6.722  18.609  0.00  0.00    +0.000 A 
ATOM      8  C   UNL     1       2.104   7.540  19.306  0.00  0.00    +0.000 A 
ATOM      9  C   UNL     1       1.577   8.846  19.107  0.00  0.00    +0.000 A 
ATOM     10  C   UNL     1       1.892   9.770  17.985  0.00  0.00    +0.000 C 
ENDROOT
BRANCH   1  12
ATOM     11  N   UNL     1       0.093  10.844  21.697  0.00  0.00    +0.000 N 
ATOM     12  C   UNL     1      -0.098  10.272  20.445  0.00  0.00    +0.000 C 
ATOM     13  O   UNL     1      -0.875  10.698  19.591  0.00  0.00    +0.000 OA
ATOM     14  H   UNL     1       0.763  10.363  22.278  0.00  0.00    +0.000 HD
BRANCH  11  19
ATOM     15  C   UNL     1      -2.480  15.630  23.654  0.00  0.00    +0.000 C 
ATOM     16  C   UNL     1      -1.793  14.389  23.166  0.00  0.00    +0.000 A 
ATOM     17  C   UNL     1      -2.279  13.133  23.503  0.00  0.00    +0.000 A 
ATOM     18  C   UNL     1      -1.647  11.980  23.029  0.00  0.00    +0.000 A 
ATOM     19  C   UNL     1      -0.513  12.031  22.203  0.00  0.00    +0.000 A 
ATOM     20  C   UNL     1      -0.000  13.304  21.873  0.00  0.00    +0.000 A 
ATOM     21  C   UNL     1       1.221  13.552  21.028  0.00  0.00    +0.000 C 
ATOM     22  C   UNL     1      -0.655  14.464  22.358  0.00  0.00    +0.000 A 
ENDBRANCH  11  19
ENDBRANCH   1  12
BRANCH   6  23
ATOM     23  S   UNL     1       4.470   4.427  18.256  0.00  0.00    +0.000 S 
ATOM     24  O   UNL     1       5.258   3.747  19.260  0.00  0.00    +0.000 OA
ATOM     25  O   UNL     1       3.749   3.687  17.243  0.00  0.00    +0.000 OA
BRANCH  23  26
ATOM     26  N   UNL     1       5.490   5.540  17.457  0.00  0.00    +0.000 NA
ATOM     27  C   UNL     1       5.590   5.446  15.967  0.00  0.00    +0.000 C 
ATOM     28  C   UNL     1       6.577   4.361  15.518  0.00  0.00    +0.000 C 
ATOM     29  O   UNL     1       7.869   4.537  16.113  0.00  0.00    +0.000 OA
ATOM     30  C   UNL     1       7.788   4.537  17.546  0.00  0.00    +0.000 C 
ATOM     31  C   UNL     1       6.868   5.658  18.042  0.00  0.00    +0.000 C 
ENDBRANCH  23  26
ENDBRANCH   6  23
TORSDOF 4
ENDMDL
MODEL 3
REMARK VINA RESULT:      -8.5      2.465      3.719
REMARK  Name = 
REMARK  7 active torsions:
REMARK  status: ('A' for Active; 'I' for Inactive)
REMARK    1  A    between atoms: C_1  and  C_2
REMARK    2  A    between atoms: C_5  and  N_6
REMARK    3  A    between atoms: C_7  and  C_9
REMARK    4  A    between atoms: C_14  and  S_15
REMARK    5  A    between atoms: S_15  and  N_18
REMARK    6  A    between atoms: C_26  and  C_27
REMARK    7  A    between atoms: C_28  and  C_29
REMARK                            x       y       z     vdW  Elec       q    Type
REMARK                         _______ _______ _______ _____ _____    ______ ____
ROOT
ATOM      1  C   UNL     1       0.046  10.891  20.945  0.00  0.00    +0.000 A 
ATOM      2  O   UNL     1       0.492  10.797  19.651  0.00  0.00    +0.000 OA
ATOM      3  C   UNL     1       1.099   9.577  19.523  0.00  0.00    +0.000 A 
ATOM      4  C   UNL     1       1.695   9.074  18.365  0.00  0.00    +0.000 A 
ATOM      5  C   UNL     1       2.263   7.791  18.449  0.00  0.00    +0.000 A 
ATOM      6  C   UNL     1       2.220   7.066  19.647  0.00  0.00    +0.000 A 
ATOM      7  C   UNL     1       1.608   7.590  20.794  0.00  0.00    +0.000 A 
ATOM      8  C   UNL     1       1.044   8.880  20.722  0.00  0.00    +0.000 A 
ATOM      9  C   UNL     1       0.362   9.726  21.640  0.00  0.00    +0.000 A 
ATOM     10  C   UNL     1       0.045   9.424  23.061  0.00  0.00    +0.000 C 
ENDROOT
BRANCH   1  12
ATOM     11  N   UNL     1      -1.985  11.909  21.739  0.00  0.00    +0.000 N 
ATOM     12  C   UNL     1      -0.645  12.085  21.418  0.00  0.00    +0.000 C 
ATOM     13  O   UNL     1      -0.036  13.151  21.515  0.00  0.00    +0.000 OA
ATOM     14  H   UNL     1      -2.330  10.972  21.594  0.00  0.00    +0.000 HD
BRANCH  11  19
ATOM     15  C   UNL     1      -5.650  15.744  24.023  0.00  0.00    +0.000 C 
ATOM     16  C   UNL     1      -4.686  14.769  23.416  0.00  0.00    +0.000 A 
ATOM     17  C   UNL     1      -3.571  14.342  24.125  0.00  0.00    +0.000 A 
ATOM     18  C   UNL     1      -2.687  13.417  23.562  0.00  0.00    +0.000 A 
ATOM     19  C   UNL     1      -2.877  12.882  22.279  0.00  0.00    +0.000 A 
ATOM     20  C   UNL     1      -3.996  13.326  21.543  0.00  0.00    +0.000 A 
ATOM     21  C   UNL     1      -4.342  12.888  20.144  0.00  0.00    +0.000 C 
ATOM     22  C   UNL     1      -4.886  14.262  22.129  0.00  0.00    +0.000 A 
ENDBRANCH  11  19
ENDBRANCH   1  12
BRANCH   6  23
ATOM     23  S   UNL     1       2.913   5.428  19.734  0.00  0.00    +0.000 S 
ATOM     24  O   UNL     1       4.342   5.569  19.562  0.00  0.00    +0.000 OA
ATOM     25  O   UNL     1       2.361   4.771  20.899  0.00  0.00    +0.000 OA
BRANCH  23  26
ATOM     26  N   UNL     1       2.297   4.636  18.352  0.00  0.00    +0.000 NA
ATOM     27  C   UNL     1       1.269   3.570  18.562  0.00  0.00    +0.000 C 
ATOM     28  C   UNL     1       1.899   2.222  18.939  0.00  0.00    +0.000 C 
ATOM     29  O   UNL     1       2.884   1.809  17.983  0.00  0.00    +0.000 OA
ATOM     30  C   UNL     1       3.921   2.793  17.846  0.00  0.00    +0.000 C 
ATOM     31  C   UNL     1       3.343   4.139  17.395  0.00  0.00    +0.000 C 
ENDBRANCH  23  26
ENDBRANCH   6  23
TORSDOF 4
ENDMDL
MODEL 4
REMARK VINA RESULT:      -8.5      2.252      3.308
REMARK  Name = 
REMARK  7 active torsions:
REMARK  status: ('A' for Active; 'I' for Inactive)
REMARK    1  A    between atoms: C_1  and  C_2
REMARK    2  A    between atoms: C_5  and  N_6
REMARK    3  A    between atoms: C_7  and  C_9
REMARK    4  A    between atoms: C_14  and  S_15
REMARK    5  A    between atoms: S_15  and  N_18
REMARK    6  A    between atoms: C_26  and  C_27
REMARK    7  A    between atoms: C_28  and  C_29
REMARK                            x       y       z     vdW  Elec       q    Type
REMARK                         _______ _______ _______ _____ _____    ______ ____
ROOT
ATOM      1  C   UNL     1      -0.109  10.887  20.698  0.00  0.00    +0.000 A 
ATOM      2  O   UNL     1       0.449  10.797  19.447  0.00  0.00    +0.000 OA
ATOM      3  C   UNL     1       1.078   9.584  19.374  0.00  0.00    +0.000 A 
ATOM      4  C   UNL     1       1.777   9.087  18.272  0.00  0.00    +0.000 A 
ATOM      5  C   UNL     1       2.349   7.811  18.407  0.00  0.00    +0.000 A 
ATOM      6  C   UNL     1       2.211   7.086  19.598  0.00  0.00    +0.000 A 
ATOM      7  C   UNL     1       1.497   7.603  20.687  0.00  0.00    +0.000 A 
ATOM      8  C   UNL     1       0.927   8.887  20.565  0.00  0.00    +0.000 A 
ATOM      9  C   UNL     1       0.158   9.726  21.419  0.00  0.00    +0.000 A 
ATOM     10  C   UNL     1      -0.276   9.421  22.808  0.00  0.00    +0.000 C 
ENDROOT
BRANCH   1  12
ATOM     11  N   UNL     1      -0.707  12.434  22.441  0.00  0.00    +0.000 N 
ATOM     12  C   UNL     1      -0.851  12.074  21.107  0.00  0.00    +0.000 C 
ATOM     13  O   UNL     1      -1.538  12.683  20.287  0.00  0.00    +0.000 OA
ATOM     14  H   UNL     1      -0.112  11.821  22.978  0.00  0.00    +0.000 HD
BRANCH  11  19
ATOM     15  C   UNL     1      -2.857  17.041  25.182  0.00  0.00    +0.000 C 
ATOM     16  C   UNL     1      -2.314  15.851  24.448  0.00  0.00    +0.000 A 
ATOM     17  C   UNL     1      -1.086  15.916  23.805  0.00  0.00    +0.000 A 
ATOM     18  C   UNL     1      -0.575  14.797  23.140  0.00  0.00    +0.000 A 
ATOM     19  C   UNL     1      -1.263  13.575  23.091  0.00  0.00    +0.000 A 
ATOM     20  C   UNL     1      -2.523  13.506  23.723  0.00  0.00    +0.000 A 
ATOM     21  C   UNL     1      -3.415  12.293  23.746  0.00  0.00    +0.000 C 
ATOM     22  C   UNL     1      -3.026  14.648  24.397  0.00  0.00    +0.000 A 
ENDBRANCH  11  19
ENDBRANCH   1  12
BRANCH   6  23
ATOM     23  S   UNL     1       2.912   5.455  19.746  0.00  0.00    +0.000 S 
ATOM     24  O   UNL     1       4.336   5.592  19.532  0.00  0.00    +0.000 OA
ATOM     25  O   UNL     1       2.391   4.855  20.955  0.00  0.00    +0.000 OA
BRANCH  23  26
ATOM     26  N   UNL     1       2.265   4.596  18.420  0.00  0.00    +0.000 NA
ATOM     27  C   UNL     1       1.303   3.488  18.712  0.00  0.00    +0.000 C 
ATOM     28  C   UNL     1       2.017   2.184  19.089  0.00  0.00    +0.000 C 
ATOM     29  O   UNL     1       2.970   1.791  18.094  0.00  0.00    +0.000 OA
ATOM     30  C   UNL     1       3.949   2.818  17.876  0.00  0.00    +0.000 C 
ATOM     31  C   UNL     1       3.283   4.122  17.423  0.00  0.00    +0.000 C 
ENDBRANCH  23  26
ENDBRANCH   6  23
TORSDOF 4
ENDMDL
MODEL 5
REMARK VINA RESULT:      -8.4      2.424      3.556
REMARK  Name = 
REMARK  7 active torsions:
REMARK  status: ('A' for Active; 'I' for Inactive)
REMARK    1  A    between atoms: C_1  and  C_2
REMARK    2  A    between atoms: C_5  and  N_6
REMARK    3  A    between atoms: C_7  and  C_9
REMARK    4  A    between atoms: C_14  and  S_15
REMARK    5  A    between atoms: S_15  and  N_18
REMARK    6  A    between atoms: C_26  and  C_27
REMARK    7  A    between atoms: C_28  and  C_29
REMARK                            x       y       z     vdW  Elec       q    Type
REMARK                         _______ _______ _______ _____ _____    ______ ____
ROOT
ATOM      1  C   UNL     1       0.117  10.984  20.966  0.00  0.00    +0.000 A 
ATOM      2  O   UNL     1       0.560  10.909  19.669  0.00  0.00    +0.000 OA
ATOM      3  C   UNL     1       1.139   9.680  19.514  0.00  0.00    +0.000 A 
ATOM      4  C   UNL     1       1.722   9.190  18.343  0.00  0.00    +0.000 A 
ATOM      5  C   UNL     1       2.261   7.893  18.398  0.00  0.00    +0.000 A 
ATOM      6  C   UNL     1       2.203   7.142  19.579  0.00  0.00    +0.000 A 
ATOM      7  C   UNL     1       1.604   7.653  20.739  0.00  0.00    +0.000 A 
ATOM      8  C   UNL     1       1.069   8.957  20.696  0.00  0.00    +0.000 A 
ATOM      9  C   UNL     1       0.406   9.797  21.634  0.00  0.00    +0.000 A 
ATOM     10  C   UNL     1       0.084   9.470  23.048  0.00  0.00    +0.000 C 
ENDROOT
BRANCH   1  12
ATOM     11  N   UNL     1      -1.899  12.284  21.166  0.00  0.00    +0.000 N 
ATOM     12  C   UNL     1      -0.547  12.183  21.467  0.00  0.00    +0.000 C 
ATOM     13  O   UNL     1       0.091  13.015  22.112  0.00  0.00    +0.000 OA
ATOM     14  H   UNL     1      -2.265  11.517  20.621  0.00  0.00    +0.000 HD
BRANCH  11  19
ATOM     15  C   UNL     1      -5.429  16.530  22.859  0.00  0.00    +0.000 C 
ATOM     16  C   UNL     1      -4.535  15.412  22.411  0.00  0.00    +0.000 A 
ATOM     17  C   UNL     1      -3.913  15.457  21.170  0.00  0.00    +0.000 A 
ATOM     18  C   UNL     1      -3.064  14.422  20.767  0.00  0.00    +0.000 A 
ATOM     19  C   UNL     1      -2.800  13.309  21.579  0.00  0.00    +0.000 A 
ATOM     20  C   UNL     1      -3.444  13.245  22.834  0.00  0.00    +0.000 A 
ATOM     21  C   UNL     1      -3.306  12.117  23.821  0.00  0.00    +0.000 C 
ATOM     22  C   UNL     1      -4.299  14.304  23.230  0.00  0.00    +0.000 A 
ENDBRANCH  11  19
ENDBRANCH   1  12
BRANCH   6  23
ATOM     23  S   UNL     1       2.858   5.487  19.627  0.00  0.00    +0.000 S 
ATOM     24  O   UNL     1       4.299   5.609  19.661  0.00  0.00    +0.000 OA
ATOM     25  O   UNL     1       2.147   4.755  20.652  0.00  0.00    +0.000 OA
BRANCH  23  26
ATOM     26  N   UNL     1       2.427   4.818  18.117  0.00  0.00    +0.000 NA
ATOM     27  C   UNL     1       1.264   3.876  18.080  0.00  0.00    +0.000 C 
ATOM     28  C   UNL     1       1.657   2.452  18.494  0.00  0.00    +0.000 C 
ATOM     29  O   UNL     1       2.751   1.954  17.713  0.00  0.00    +0.000 OA
ATOM     30  C   UNL     1       3.899   2.809  17.818  0.00  0.00    +0.000 C 
ATOM     31  C   UNL     1       3.570   4.228  17.342  0.00  0.00    +0.000 C 
ENDBRANCH  23  26
ENDBRANCH   6  23
TORSDOF 4
ENDMDL
MODEL 6
REMARK VINA RESULT:      -8.4      3.639     10.441
REMARK  Name = 
REMARK  7 active torsions:
REMARK  status: ('A' for Active; 'I' for Inactive)
REMARK    1  A    between atoms: C_1  and  C_2
REMARK    2  A    between atoms: C_5  and  N_6
REMARK    3  A    between atoms: C_7  and  C_9
REMARK    4  A    between atoms: C_14  and  S_15
REMARK    5  A    between atoms: S_15  and  N_18
REMARK    6  A    between atoms: C_26  and  C_27
REMARK    7  A    between atoms: C_28  and  C_29
REMARK                            x       y       z     vdW  Elec       q    Type
REMARK                         _______ _______ _______ _____ _____    ______ ____
ROOT
ATOM      1  C   UNL     1       1.185   9.185  19.436  0.00  0.00    +0.000 A 
ATOM      2  O   UNL     1       1.156   8.731  20.731  0.00  0.00    +0.000 OA
ATOM      3  C   UNL     1       0.309   9.551  21.425  0.00  0.00    +0.000 A 
ATOM      4  C   UNL     1      -0.009   9.444  22.780  0.00  0.00    +0.000 A 
ATOM      5  C   UNL     1      -0.908  10.393  23.298  0.00  0.00    +0.000 A 
ATOM      6  C   UNL     1      -1.450  11.389  22.475  0.00  0.00    +0.000 A 
ATOM      7  C   UNL     1      -1.122  11.469  21.115  0.00  0.00    +0.000 A 
ATOM      8  C   UNL     1      -0.214  10.527  20.588  0.00  0.00    +0.000 A 
ATOM      9  C   UNL     1       0.349  10.290  19.304  0.00  0.00    +0.000 A 
ATOM     10  C   UNL     1       0.091  11.069  18.063  0.00  0.00    +0.000 C 
ENDROOT
BRANCH   1  12
ATOM     11  N   UNL     1       2.587   7.328  18.819  0.00  0.00    +0.000 N 
ATOM     12  C   UNL     1       2.010   8.530  18.427  0.00  0.00    +0.000 C 
ATOM     13  O   UNL     1       2.149   9.045  17.318  0.00  0.00    +0.000 OA
ATOM     14  H   UNL     1       2.377   7.053  19.767  0.00  0.00    +0.000 HD
BRANCH  11  19
ATOM     15  C   UNL     1       5.756   3.855  15.465  0.00  0.00    +0.000 C 
ATOM     16  C   UNL     1       4.947   4.747  16.359  0.00  0.00    +0.000 A 
ATOM     17  C   UNL     1       5.298   6.078  16.536  0.00  0.00    +0.000 A 
ATOM     18  C   UNL     1       4.527   6.911  17.353  0.00  0.00    +0.000 A 
ATOM     19  C   UNL     1       3.382   6.453  18.022  0.00  0.00    +0.000 A 
ATOM     20  C   UNL     1       3.030   5.095  17.866  0.00  0.00    +0.000 A 
ATOM     21  C   UNL     1       1.857   4.423  18.529  0.00  0.00    +0.000 C 
ATOM     22  C   UNL     1       3.819   4.265  17.030  0.00  0.00    +0.000 A 
ENDBRANCH  11  19
ENDBRANCH   1  12
BRANCH   6  23
ATOM     23  S   UNL     1      -2.614  12.566  23.133  0.00  0.00    +0.000 S 
ATOM     24  O   UNL     1      -3.550  11.818  23.944  0.00  0.00    +0.000 OA
ATOM     25  O   UNL     1      -1.865  13.673  23.685  0.00  0.00    +0.000 OA
BRANCH  23  26
ATOM     26  N   UNL     1      -3.454  13.140  21.762  0.00  0.00    +0.000 NA
ATOM     27  C   UNL     1      -3.297  14.584  21.405  0.00  0.00    +0.000 C 
ATOM     28  C   UNL     1      -4.218  15.490  22.233  0.00  0.00    +0.000 C 
ATOM     29  O   UNL     1      -5.589  15.081  22.143  0.00  0.00    +0.000 OA
ATOM     30  C   UNL     1      -5.756  13.721  22.570  0.00  0.00    +0.000 C 
ATOM     31  C   UNL     1      -4.909  12.770  21.718  0.00  0.00    +0.000 C 
ENDBRANCH  23  26
ENDBRANCH   6  23
TORSDOF 4
ENDMDL
MODEL 7
REMARK VINA RESULT:      -8.4      2.045      3.388
REMARK  Name = 
REMARK  7 active torsions:
REMARK  status: ('A' for Active; 'I' for Inactive)
REMARK    1  A    between atoms: C_1  and  C_2
REMARK    2  A    between atoms: C_5  and  N_6
REMARK    3  A    between atoms: C_7  and  C_9
REMARK    4  A    between atoms: C_14  and  S_15
REMARK    5  A    between atoms: S_15  and  N_18
REMARK    6  A    between atoms: C_26  and  C_27
REMARK    7  A    between atoms: C_28  and  C_29
REMARK                            x       y       z     vdW  Elec       q    Type
REMARK                         _______ _______ _______ _____ _____    ______ ____
ROOT
ATOM      1  C   UNL     1      -0.156  10.548  20.456  0.00  0.00    +0.000 A 
ATOM      2  O   UNL     1       0.429  10.591  19.216  0.00  0.00    +0.000 OA
ATOM      3  C   UNL     1       1.181   9.455  19.087  0.00  0.00    +0.000 A 
ATOM      4  C   UNL     1       1.946   9.100  17.975  0.00  0.00    +0.000 A 
ATOM      5  C   UNL     1       2.646   7.883  18.048  0.00  0.00    +0.000 A 
ATOM      6  C   UNL     1       2.563   7.077  19.191  0.00  0.00    +0.000 A 
ATOM      7  C   UNL     1       1.781   7.452  20.292  0.00  0.00    +0.000 A 
ATOM      8  C   UNL     1       1.083   8.676  20.231  0.00  0.00    +0.000 A 
ATOM      9  C   UNL     1       0.217   9.378  21.115  0.00  0.00    +0.000 A 
ATOM     10  C   UNL     1      -0.207   8.947  22.473  0.00  0.00    +0.000 C 
ENDROOT
BRANCH   1  12
ATOM     11  N   UNL     1      -0.916  11.941  22.266  0.00  0.00    +0.000 N 
ATOM     12  C   UNL     1      -1.024  11.625  20.917  0.00  0.00    +0.000 C 
ATOM     13  O   UNL     1      -1.778  12.190  20.124  0.00  0.00    +0.000 OA
ATOM     14  H   UNL     1      -0.255  11.374  22.776  0.00  0.00    +0.000 HD
BRANCH  11  19
ATOM     15  C   UNL     1      -3.767  16.163  24.988  0.00  0.00    +0.000 C 
ATOM     16  C   UNL     1      -3.010  15.063  24.303  0.00  0.00    +0.000 A 
ATOM     17  C   UNL     1      -3.499  13.764  24.298  0.00  0.00    +0.000 A 
ATOM     18  C   UNL     1      -2.800  12.747  23.641  0.00  0.00    +0.000 A 
ATOM     19  C   UNL     1      -1.593  12.983  22.964  0.00  0.00    +0.000 A 
ATOM     20  C   UNL     1      -1.077  14.297  22.983  0.00  0.00    +0.000 A 
ATOM     21  C   UNL     1       0.215  14.728  22.341  0.00  0.00    +0.000 C 
ATOM     22  C   UNL     1      -1.800  15.318  23.650  0.00  0.00    +0.000 A 
ENDBRANCH  11  19
ENDBRANCH   1  12
BRANCH   6  23
ATOM     23  S   UNL     1       3.426   5.521  19.260  0.00  0.00    +0.000 S 
ATOM     24  O   UNL     1       4.838   5.822  19.176  0.00  0.00    +0.000 OA
ATOM     25  O   UNL     1       2.889   4.762  20.368  0.00  0.00    +0.000 OA
BRANCH  23  26
ATOM     26  N   UNL     1       2.976   4.724  17.819  0.00  0.00    +0.000 NA
ATOM     27  C   UNL     1       1.559   4.257  17.696  0.00  0.00    +0.000 C 
ATOM     28  C   UNL     1       1.327   2.915  18.401  0.00  0.00    +0.000 C 
ATOM     29  O   UNL     1       2.244   1.910  17.948  0.00  0.00    +0.000 OA
ATOM     30  C   UNL     1       3.605   2.319  18.147  0.00  0.00    +0.000 C 
ATOM     31  C   UNL     1       3.902   3.621  17.396  0.00  0.00    +0.000 C 
ENDBRANCH  23  26
ENDBRANCH   6  23
TORSDOF 4
ENDMDL
MODEL 8
REMARK VINA RESULT:      -8.3      1.433      1.736
REMARK  Name = 
REMARK  7 active torsions:
REMARK  status: ('A' for Active; 'I' for Inactive)
REMARK    1  A    between atoms: C_1  and  C_2
REMARK    2  A    between atoms: C_5  and  N_6
REMARK    3  A    between atoms: C_7  and  C_9
REMARK    4  A    between atoms: C_14  and  S_15
REMARK    5  A    between atoms: S_15  and  N_18
REMARK    6  A    between atoms: C_26  and  C_27
REMARK    7  A    between atoms: C_28  and  C_29
REMARK                            x       y       z     vdW  Elec       q    Type
REMARK                         _______ _______ _______ _____ _____    ______ ____
ROOT
ATOM      1  C   UNL     1       1.110   9.371  20.174  0.00  0.00    +0.000 A 
ATOM      2  O   UNL     1       1.074   8.274  20.998  0.00  0.00    +0.000 OA
ATOM      3  C   UNL     1       1.731   7.264  20.350  0.00  0.00    +0.000 A 
ATOM      4  C   UNL     1       1.927   5.969  20.835  0.00  0.00    +0.000 A 
ATOM      5  C   UNL     1       2.634   5.081  20.006  0.00  0.00    +0.000 A 
ATOM      6  C   UNL     1       3.115   5.496  18.757  0.00  0.00    +0.000 A 
ATOM      7  C   UNL     1       2.912   6.805  18.297  0.00  0.00    +0.000 A 
ATOM      8  C   UNL     1       2.196   7.700  19.117  0.00  0.00    +0.000 A 
ATOM      9  C   UNL     1       1.798   9.061  19.004  0.00  0.00    +0.000 A 
ATOM     10  C   UNL     1       2.067   9.973  17.861  0.00  0.00    +0.000 C 
ENDROOT
BRANCH   1  12
ATOM     11  N   UNL     1      -0.818  10.520  21.043  0.00  0.00    +0.000 N 
ATOM     12  C   UNL     1       0.483  10.628  20.567  0.00  0.00    +0.000 C 
ATOM     13  O   UNL     1       1.108  11.684  20.470  0.00  0.00    +0.000 OA
ATOM     14  H   UNL     1      -1.184   9.580  21.049  0.00  0.00    +0.000 HD
BRANCH  11  19
ATOM     15  C   UNL     1      -4.240  14.667  23.154  0.00  0.00    +0.000 C 
ATOM     16  C   UNL     1      -3.332  13.609  22.600  0.00  0.00    +0.000 A 
ATOM     17  C   UNL     1      -2.538  12.845  23.444  0.00  0.00    +0.000 A 
ATOM     18  C   UNL     1      -1.709  11.846  22.924  0.00  0.00    +0.000 A 
ATOM     19  C   UNL     1      -1.639  11.569  21.550  0.00  0.00    +0.000 A 
ATOM     20  C   UNL     1      -2.427  12.357  20.682  0.00  0.00    +0.000 A 
ATOM     21  C   UNL     1      -2.457  12.226  19.182  0.00  0.00    +0.000 C 
ATOM     22  C   UNL     1      -3.265  13.363  21.225  0.00  0.00    +0.000 A 
ENDBRANCH  11  19
ENDBRANCH   1  12
BRANCH   6  23
ATOM     23  S   UNL     1       4.039   4.373  17.729  0.00  0.00    +0.000 S 
ATOM     24  O   UNL     1       4.870   3.586  18.613  0.00  0.00    +0.000 OA
ATOM     25  O   UNL     1       3.114   3.742  16.814  0.00  0.00    +0.000 OA
BRANCH  23  26
ATOM     26  N   UNL     1       5.065   5.387  16.814  0.00  0.00    +0.000 NA
ATOM     27  C   UNL     1       5.393   4.964  15.417  0.00  0.00    +0.000 C 
ATOM     28  C   UNL     1       6.527   3.933  15.373  0.00  0.00    +0.000 C 
ATOM     29  O   UNL     1       7.696   4.397  16.061  0.00  0.00    +0.000 OA
ATOM     30  C   UNL     1       7.403   4.718  17.429  0.00  0.00    +0.000 C 
ATOM     31  C   UNL     1       6.324   5.804  17.518  0.00  0.00    +0.000 C 
ENDBRANCH  23  26
ENDBRANCH   6  23
TORSDOF 4
ENDMDL
MODEL 9
REMARK VINA RESULT:      -8.2      2.517      3.480
REMARK  Name = 
REMARK  7 active torsions:
REMARK  status: ('A' for Active; 'I' for Inactive)
REMARK    1  A    between atoms: C_1  and  C_2
REMARK    2  A    between atoms: C_5  and  N_6
REMARK    3  A    between atoms: C_7  and  C_9
REMARK    4  A    between atoms: C_14  and  S_15
REMARK    5  A    between atoms: S_15  and  N_18
REMARK    6  A    between atoms: C_26  and  C_27
REMARK    7  A    between atoms: C_28  and  C_29
REMARK                            x       y       z     vdW  Elec       q    Type
REMARK                         _______ _______ _______ _____ _____    ______ ____
ROOT
ATOM      1  C   UNL     1      -0.053  10.814  20.351  0.00  0.00    +0.000 A 
ATOM      2  O   UNL     1       0.574  10.937  19.137  0.00  0.00    +0.000 OA
ATOM      3  C   UNL     1       1.258   9.772  18.919  0.00  0.00    +0.000 A 
ATOM      4  C   UNL     1       2.036   9.475  17.798  0.00  0.00    +0.000 A 
ATOM      5  C   UNL     1       2.655   8.213  17.772  0.00  0.00    +0.000 A 
ATOM      6  C   UNL     1       2.485   7.310  18.829  0.00  0.00    +0.000 A 
ATOM      7  C   UNL     1       1.692   7.630  19.940  0.00  0.00    +0.000 A 
ATOM      8  C   UNL     1       1.074   8.896  19.979  0.00  0.00    +0.000 A 
ATOM      9  C   UNL     1       0.225   9.566  20.903  0.00  0.00    +0.000 A 
ATOM     10  C   UNL     1      -0.270   9.037  22.202  0.00  0.00    +0.000 C 
ENDROOT
BRANCH   1  12
ATOM     11  N   UNL     1      -0.465  12.384  22.129  0.00  0.00    +0.000 N 
ATOM     12  C   UNL     1      -0.867  11.898  20.891  0.00  0.00    +0.000 C 
ATOM     13  O   UNL     1      -1.830  12.321  20.251  0.00  0.00    +0.000 OA
ATOM     14  H   UNL     1       0.341  11.919  22.519  0.00  0.00    +0.000 HD
BRANCH  11  19
ATOM     15  C   UNL     1      -2.661  16.777  25.168  0.00  0.00    +0.000 C 
ATOM     16  C   UNL     1      -2.109  15.642  24.358  0.00  0.00    +0.000 A 
ATOM     17  C   UNL     1      -0.944  15.801  23.620  0.00  0.00    +0.000 A 
ATOM     18  C   UNL     1      -0.422  14.733  22.883  0.00  0.00    +0.000 A 
ATOM     19  C   UNL     1      -1.035  13.471  22.854  0.00  0.00    +0.000 A 
ATOM     20  C   UNL     1      -2.232  13.307  23.584  0.00  0.00    +0.000 A 
ATOM     21  C   UNL     1      -3.042  12.040  23.644  0.00  0.00    +0.000 C 
ATOM     22  C   UNL     1      -2.746  14.398  24.329  0.00  0.00    +0.000 A 
ENDBRANCH  11  19
ENDBRANCH   1  12
BRANCH   6  23
ATOM     23  S   UNL     1       3.247   5.701  18.771  0.00  0.00    +0.000 S 
ATOM     24  O   UNL     1       3.518   5.418  17.378  0.00  0.00    +0.000 OA
ATOM     25  O   UNL     1       4.304   5.672  19.759  0.00  0.00    +0.000 OA
BRANCH  23  26
ATOM     26  N   UNL     1       2.020   4.635  19.292  0.00  0.00    +0.000 NA
ATOM     27  C   UNL     1       2.288   3.810  20.511  0.00  0.00    +0.000 C 
ATOM     28  C   UNL     1       3.114   2.556  20.194  0.00  0.00    +0.000 C 
ATOM     29  O   UNL     1       2.511   1.769  19.159  0.00  0.00    +0.000 OA
ATOM     30  C   UNL     1       2.335   2.534  17.958  0.00  0.00    +0.000 C 
ATOM     31  C   UNL     1       1.450   3.759  18.213  0.00  0.00    +0.000 C 
ENDBRANCH  23  26
ENDBRANCH   6  23
TORSDOF 4
ENDMDL
