MODEL 1
REMARK VINA RESULT:      -8.3      0.000      0.000
REMARK  Name = 
REMARK  3 active torsions:
REMARK  status: ('A' for Active; 'I' for Inactive)
REMARK    1  A    between atoms: C_2  and  C_17
REMARK    2  A    between atoms: N_3  and  N_4
REMARK    3  A    between atoms: C_5  and  C_7
REMARK                            x       y       z     vdW  Elec       q    Type
REMARK                         _______ _______ _______ _____ _____    ______ ____
ROOT
ATOM      1  N   UNL     1       7.892   6.941  18.256  0.00  0.00    +0.000 N 
ATOM      2  C   UNL     1       7.621   5.795  18.989  0.00  0.00    +0.000 C 
ATOM      3  O   UNL     1       7.829   5.716  20.199  0.00  0.00    +0.000 OA
ATOM      4  H   UNL     1       7.993   6.872  17.241  0.00  0.00    +0.000 HD
ENDROOT
BRANCH   2   5
ATOM      5  C   UNL     1       6.916   4.694  18.170  0.00  0.00    +0.000 C 
ATOM      6  C   UNL     1       6.644   5.126  16.733  0.00  0.00    +0.000 C 
ATOM      7  O   UNL     1       5.663   6.171  16.647  0.00  0.00    +0.000 OA
ATOM      8  C   UNL     1       4.703   6.090  17.619  0.00  0.00    +0.000 A 
ATOM      9  C   UNL     1       3.721   7.076  17.615  0.00  0.00    +0.000 A 
ATOM     10  C   UNL     1       2.754   7.098  18.624  0.00  0.00    +0.000 A 
ATOM     11  C   UNL     1       2.748   6.113  19.613  0.00  0.00    +0.000 A 
ATOM     12  C   UNL     1       3.716   5.112  19.607  0.00  0.00    +0.000 A 
ATOM     13  C   UNL     1       4.706   5.124  18.629  0.00  0.00    +0.000 A 
ATOM     14  O   UNL     1       5.715   4.206  18.771  0.00  0.00    +0.000 OA
ENDBRANCH   2   5
BRANCH   1  17
ATOM     15  O   UNL     1       7.766   9.554  17.489  0.00  0.00    +0.000 OA
ATOM     16  C   UNL     1       8.516   9.241  18.412  0.00  0.00    +0.000 C 
ATOM     17  N   UNL     1       8.654   7.946  18.865  0.00  0.00    +0.000 N 
ATOM     18  H   UNL     1       9.191   7.674  19.681  0.00  0.00    +0.000 HD
BRANCH  16  19
ATOM     19  C   UNL     1       9.302  10.270  19.143  0.00  0.00    +0.000 A 
ATOM     20  C   UNL     1      10.311  10.954  18.451  0.00  0.00    +0.000 A 
ATOM     21  C   UNL     1      11.059  11.941  19.099  0.00  0.00    +0.000 A 
ATOM     22  C   UNL     1      10.808  12.240  20.436  0.00  0.00    +0.000 A 
ATOM     23  C   UNL     1       9.816  11.551  21.136  0.00  0.00    +0.000 A 
ATOM     24  C   UNL     1       9.065  10.564  20.492  0.00  0.00    +0.000 A 
ENDBRANCH  16  19
ENDBRANCH   1  17
TORSDOF 3
ENDMDL
MODEL 2
REMARK VINA RESULT:      -8.3      0.071      1.033
REMARK  Name = 
REMARK  3 active torsions:
REMARK  status: ('A' for Active; 'I' for Inactive)
REMARK    1  A    between atoms: C_2  and  C_17
REMARK    2  A    between atoms: N_3  and  N_4
REMARK    3  A    between atoms: C_5  and  C_7
REMARK                            x       y       z     vdW  Elec       q    Type
REMARK                         _______ _______ _______ _____ _____    ______ ____
ROOT
ATOM      1  N   UNL     1       7.875   6.948  18.251  0.00  0.00    +0.000 N 
ATOM      2  C   UNL     1       7.640   5.803  18.999  0.00  0.00    +0.000 C 
ATOM      3  O   UNL     1       7.882   5.736  20.204  0.00  0.00    +0.000 OA
ATOM      4  H   UNL     1       7.949   6.874  17.234  0.00  0.00    +0.000 HD
ENDROOT
BRANCH   2   5
ATOM      5  C   UNL     1       6.929   4.687  18.207  0.00  0.00    +0.000 C 
ATOM      6  C   UNL     1       6.663   5.084  16.759  0.00  0.00    +0.000 C 
ATOM      7  O   UNL     1       5.691   6.134  16.644  0.00  0.00    +0.000 OA
ATOM      8  C   UNL     1       4.728   6.085  17.615  0.00  0.00    +0.000 A 
ATOM      9  C   UNL     1       3.753   7.078  17.584  0.00  0.00    +0.000 A 
ATOM     10  C   UNL     1       2.784   7.133  18.589  0.00  0.00    +0.000 A 
ATOM     11  C   UNL     1       2.768   6.174  19.603  0.00  0.00    +0.000 A 
ATOM     12  C   UNL     1       3.729   5.166  19.625  0.00  0.00    +0.000 A 
ATOM     13  C   UNL     1       4.721   5.145  18.650  0.00  0.00    +0.000 A 
ATOM     14  O   UNL     1       5.723   4.223  18.818  0.00  0.00    +0.000 OA
ENDBRANCH   2   5
BRANCH   1  17
ATOM     15  O   UNL     1       7.737   9.543  17.429  0.00  0.00    +0.000 OA
ATOM     16  C   UNL     1       8.495   9.252  18.353  0.00  0.00    +0.000 C 
ATOM     17  N   UNL     1       8.639   7.968  18.833  0.00  0.00    +0.000 N 
ATOM     18  H   UNL     1       9.183   7.715  19.651  0.00  0.00    +0.000 HD
BRANCH  16  19
ATOM     19  C   UNL     1       9.284  10.298  19.055  0.00  0.00    +0.000 A 
ATOM     20  C   UNL     1       9.055  10.501  20.422  0.00  0.00    +0.000 A 
ATOM     21  C   UNL     1       9.791  11.461  21.121  0.00  0.00    +0.000 A 
ATOM     22  C   UNL     1      10.748  12.226  20.457  0.00  0.00    +0.000 A 
ATOM     23  C   UNL     1      10.970  12.040  19.091  0.00  0.00    +0.000 A 
ATOM     24  C   UNL     1      10.237  11.080  18.388  0.00  0.00    +0.000 A 
ENDBRANCH  16  19
ENDBRANCH   1  17
TORSDOF 3
ENDMDL
MODEL 3
REMARK VINA RESULT:      -7.6      3.719      7.409
REMARK  Name = 
REMARK  3 active torsions:
REMARK  status: ('A' for Active; 'I' for Inactive)
REMARK    1  A    between atoms: C_2  and  C_17
REMARK    2  A    between atoms: N_3  and  N_4
REMARK    3  A    between atoms: C_5  and  C_7
REMARK                            x       y       z     vdW  Elec       q    Type
REMARK                         _______ _______ _______ _____ _____    ______ ____
ROOT
ATOM      1  N   UNL     1       6.225   5.608  15.421  0.00  0.00    +0.000 N 
ATOM      2  C   UNL     1       7.078   5.321  16.476  0.00  0.00    +0.000 C 
ATOM      3  O   UNL     1       7.802   4.326  16.492  0.00  0.00    +0.000 OA
ATOM      4  H   UNL     1       5.443   6.250  15.570  0.00  0.00    +0.000 HD
ENDROOT
BRANCH   2   5
ATOM      5  C   UNL     1       7.126   6.429  17.548  0.00  0.00    +0.000 C 
ATOM      6  C   UNL     1       7.438   5.879  18.935  0.00  0.00    +0.000 C 
ATOM      7  O   UNL     1       6.377   5.067  19.459  0.00  0.00    +0.000 OA
ATOM      8  C   UNL     1       5.134   5.480  19.059  0.00  0.00    +0.000 A 
ATOM      9  C   UNL     1       4.049   4.736  19.513  0.00  0.00    +0.000 A 
ATOM     10  C   UNL     1       2.759   5.056  19.082  0.00  0.00    +0.000 A 
ATOM     11  C   UNL     1       2.551   6.141  18.229  0.00  0.00    +0.000 A 
ATOM     12  C   UNL     1       3.634   6.902  17.792  0.00  0.00    +0.000 A 
ATOM     13  C   UNL     1       4.921   6.548  18.183  0.00  0.00    +0.000 A 
ATOM     14  O   UNL     1       5.949   7.239  17.595  0.00  0.00    +0.000 OA
ENDBRANCH   2   5
BRANCH   1  17
ATOM     15  O   UNL     1       7.664   5.429  13.113  0.00  0.00    +0.000 OA
ATOM     16  C   UNL     1       6.787   4.596  13.331  0.00  0.00    +0.000 C 
ATOM     17  N   UNL     1       6.002   4.609  14.465  0.00  0.00    +0.000 N 
ATOM     18  H   UNL     1       5.337   3.885  14.715  0.00  0.00    +0.000 HD
BRANCH  16  19
ATOM     19  C   UNL     1       6.543   3.473  12.388  0.00  0.00    +0.000 A 
ATOM     20  C   UNL     1       7.649   2.843  11.803  0.00  0.00    +0.000 A 
ATOM     21  C   UNL     1       7.462   1.770  10.927  0.00  0.00    +0.000 A 
ATOM     22  C   UNL     1       6.174   1.333  10.626  0.00  0.00    +0.000 A 
ATOM     23  C   UNL     1       5.067   1.967  11.193  0.00  0.00    +0.000 A 
ATOM     24  C   UNL     1       5.249   3.039  12.071  0.00  0.00    +0.000 A 
ENDBRANCH  16  19
ENDBRANCH   1  17
TORSDOF 3
ENDMDL
MODEL 4
REMARK VINA RESULT:      -7.6      3.694      7.422
REMARK  Name = 
REMARK  3 active torsions:
REMARK  status: ('A' for Active; 'I' for Inactive)
REMARK    1  A    between atoms: C_2  and  C_17
REMARK    2  A    between atoms: N_3  and  N_4
REMARK    3  A    between atoms: C_5  and  C_7
REMARK                            x       y       z     vdW  Elec       q    Type
REMARK                         _______ _______ _______ _____ _____    ______ ____
ROOT
ATOM      1  N   UNL     1       6.293   5.604  15.465  0.00  0.00    +0.000 N 
ATOM      2  C   UNL     1       7.094   5.306  16.557  0.00  0.00    +0.000 C 
ATOM      3  O   UNL     1       7.791   4.293  16.612  0.00  0.00    +0.000 OA
ATOM      4  H   UNL     1       5.523   6.267  15.576  0.00  0.00    +0.000 HD
ENDROOT
BRANCH   2   5
ATOM      5  C   UNL     1       7.126   6.423  17.620  0.00  0.00    +0.000 C 
ATOM      6  C   UNL     1       7.415   5.884  19.017  0.00  0.00    +0.000 C 
ATOM      7  O   UNL     1       6.343   5.078  19.530  0.00  0.00    +0.000 OA
ATOM      8  C   UNL     1       5.108   5.490  19.106  0.00  0.00    +0.000 A 
ATOM      9  C   UNL     1       4.014   4.753  19.548  0.00  0.00    +0.000 A 
ATOM     10  C   UNL     1       2.732   5.071  19.094  0.00  0.00    +0.000 A 
ATOM     11  C   UNL     1       2.540   6.149  18.228  0.00  0.00    +0.000 A 
ATOM     12  C   UNL     1       3.631   6.904  17.802  0.00  0.00    +0.000 A 
ATOM     13  C   UNL     1       4.911   6.551  18.218  0.00  0.00    +0.000 A 
ATOM     14  O   UNL     1       5.951   7.235  17.641  0.00  0.00    +0.000 OA
ENDBRANCH   2   5
BRANCH   1  17
ATOM     15  O   UNL     1       7.695   5.477  13.131  0.00  0.00    +0.000 OA
ATOM     16  C   UNL     1       6.848   4.617  13.362  0.00  0.00    +0.000 C 
ATOM     17  N   UNL     1       6.084   4.601  14.509  0.00  0.00    +0.000 N 
ATOM     18  H   UNL     1       5.446   3.856  14.769  0.00  0.00    +0.000 HD
BRANCH  16  19
ATOM     19  C   UNL     1       6.623   3.489  12.419  0.00  0.00    +0.000 A 
ATOM     20  C   UNL     1       5.305   3.090  12.160  0.00  0.00    +0.000 A 
ATOM     21  C   UNL     1       5.052   2.047  11.265  0.00  0.00    +0.000 A 
ATOM     22  C   UNL     1       6.112   1.396  10.636  0.00  0.00    +0.000 A 
ATOM     23  C   UNL     1       7.428   1.779  10.902  0.00  0.00    +0.000 A 
ATOM     24  C   UNL     1       7.685   2.822  11.795  0.00  0.00    +0.000 A 
ENDBRANCH  16  19
ENDBRANCH   1  17
TORSDOF 3
ENDMDL
MODEL 5
REMARK VINA RESULT:      -7.6      3.577      6.379
REMARK  Name = 
REMARK  3 active torsions:
REMARK  status: ('A' for Active; 'I' for Inactive)
REMARK    1  A    between atoms: C_2  and  C_17
REMARK    2  A    between atoms: N_3  and  N_4
REMARK    3  A    between atoms: C_5  and  C_7
REMARK                            x       y       z     vdW  Elec       q    Type
REMARK                         _______ _______ _______ _____ _____    ______ ____
ROOT
ATOM      1  N   UNL     1       2.668   6.738  18.295  0.00  0.00    +0.000 N 
ATOM      2  C   UNL     1       3.163   5.596  18.906  0.00  0.00    +0.000 C 
ATOM      3  O   UNL     1       2.981   5.348  20.098  0.00  0.00    +0.000 OA
ATOM      4  H   UNL     1       3.082   7.054  17.415  0.00  0.00    +0.000 HD
ENDROOT
BRANCH   2   5
ATOM      5  C   UNL     1       3.839   4.617  17.924  0.00  0.00    +0.000 C 
ATOM      6  C   UNL     1       4.643   3.539  18.644  0.00  0.00    +0.000 C 
ATOM      7  O   UNL     1       5.799   4.066  19.311  0.00  0.00    +0.000 OA
ATOM      8  C   UNL     1       6.357   5.133  18.661  0.00  0.00    +0.000 A 
ATOM      9  C   UNL     1       7.477   5.713  19.250  0.00  0.00    +0.000 A 
ATOM     10  C   UNL     1       8.051   6.852  18.681  0.00  0.00    +0.000 A 
ATOM     11  C   UNL     1       7.529   7.389  17.503  0.00  0.00    +0.000 A 
ATOM     12  C   UNL     1       6.422   6.797  16.897  0.00  0.00    +0.000 A 
ATOM     13  C   UNL     1       5.824   5.693  17.496  0.00  0.00    +0.000 A 
ATOM     14  O   UNL     1       4.650   5.256  16.936  0.00  0.00    +0.000 OA
ENDBRANCH   2   5
BRANCH   1  17
ATOM     15  O   UNL     1       1.846   9.146  17.317  0.00  0.00    +0.000 OA
ATOM     16  C   UNL     1       1.763   8.937  18.525  0.00  0.00    +0.000 C 
ATOM     17  N   UNL     1       2.160   7.755  19.114  0.00  0.00    +0.000 N 
ATOM     18  H   UNL     1       2.018   7.520  20.090  0.00  0.00    +0.000 HD
BRANCH  16  19
ATOM     19  C   UNL     1       1.174   9.950  19.440  0.00  0.00    +0.000 A 
ATOM     20  C   UNL     1       0.647   9.517  20.664  0.00  0.00    +0.000 A 
ATOM     21  C   UNL     1       0.102  10.441  21.559  0.00  0.00    +0.000 A 
ATOM     22  C   UNL     1       0.074  11.795  21.231  0.00  0.00    +0.000 A 
ATOM     23  C   UNL     1       0.582  12.232  20.007  0.00  0.00    +0.000 A 
ATOM     24  C   UNL     1       1.129  11.311  19.109  0.00  0.00    +0.000 A 
ENDBRANCH  16  19
ENDBRANCH   1  17
TORSDOF 3
ENDMDL
MODEL 6
REMARK VINA RESULT:      -7.6      4.622      6.610
REMARK  Name = 
REMARK  3 active torsions:
REMARK  status: ('A' for Active; 'I' for Inactive)
REMARK    1  A    between atoms: C_2  and  C_17
REMARK    2  A    between atoms: N_3  and  N_4
REMARK    3  A    between atoms: C_5  and  C_7
REMARK                            x       y       z     vdW  Elec       q    Type
REMARK                         _______ _______ _______ _____ _____    ______ ____
ROOT
ATOM      1  N   UNL     1       2.993   5.071  19.930  0.00  0.00    +0.000 N 
ATOM      2  C   UNL     1       2.499   4.268  18.913  0.00  0.00    +0.000 C 
ATOM      3  O   UNL     1       1.515   4.577  18.241  0.00  0.00    +0.000 OA
ATOM      4  H   UNL     1       3.598   4.659  20.643  0.00  0.00    +0.000 HD
ENDROOT
BRANCH   2   5
ATOM      5  C   UNL     1       3.376   3.032  18.624  0.00  0.00    +0.000 C 
ATOM      6  C   UNL     1       4.548   2.916  19.593  0.00  0.00    +0.000 C 
ATOM      7  O   UNL     1       5.517   3.961  19.415  0.00  0.00    +0.000 OA
ATOM      8  C   UNL     1       5.634   4.372  18.115  0.00  0.00    +0.000 A 
ATOM      9  C   UNL     1       6.543   5.393  17.859  0.00  0.00    +0.000 A 
ATOM     10  C   UNL     1       6.659   5.913  16.567  0.00  0.00    +0.000 A 
ATOM     11  C   UNL     1       5.892   5.387  15.526  0.00  0.00    +0.000 A 
ATOM     12  C   UNL     1       4.997   4.349  15.775  0.00  0.00    +0.000 A 
ATOM     13  C   UNL     1       4.850   3.869  17.073  0.00  0.00    +0.000 A 
ATOM     14  O   UNL     1       3.845   2.958  17.276  0.00  0.00    +0.000 OA
ENDBRANCH   2   5
BRANCH   1  17
ATOM     15  O   UNL     1       3.022   7.514  18.721  0.00  0.00    +0.000 OA
ATOM     16  C   UNL     1       2.279   7.338  19.685  0.00  0.00    +0.000 C 
ATOM     17  N   UNL     1       2.201   6.141  20.366  0.00  0.00    +0.000 N 
ATOM     18  H   UNL     1       1.533   5.939  21.102  0.00  0.00    +0.000 HD
BRANCH  16  19
ATOM     19  C   UNL     1       1.367   8.412  20.156  0.00  0.00    +0.000 A 
ATOM     20  C   UNL     1       0.870   8.338  21.464  0.00  0.00    +0.000 A 
ATOM     21  C   UNL     1       0.024   9.340  21.950  0.00  0.00    +0.000 A 
ATOM     22  C   UNL     1      -0.332  10.409  21.130  0.00  0.00    +0.000 A 
ATOM     23  C   UNL     1       0.147  10.480  19.821  0.00  0.00    +0.000 A 
ATOM     24  C   UNL     1       0.993   9.482  19.331  0.00  0.00    +0.000 A 
ENDBRANCH  16  19
ENDBRANCH   1  17
TORSDOF 3
ENDMDL
MODEL 7
REMARK VINA RESULT:      -7.6      3.583      6.317
REMARK  Name = 
REMARK  3 active torsions:
REMARK  status: ('A' for Active; 'I' for Inactive)
REMARK    1  A    between atoms: C_2  and  C_17
REMARK    2  A    between atoms: N_3  and  N_4
REMARK    3  A    between atoms: C_5  and  C_7
REMARK                            x       y       z     vdW  Elec       q    Type
REMARK                         _______ _______ _______ _____ _____    ______ ____
ROOT
ATOM      1  N   UNL     1       2.627   6.643  18.296  0.00  0.00    +0.000 N 
ATOM      2  C   UNL     1       3.195   5.534  18.906  0.00  0.00    +0.000 C 
ATOM      3  O   UNL     1       3.065   5.297  20.107  0.00  0.00    +0.000 OA
ATOM      4  H   UNL     1       2.996   6.962  17.397  0.00  0.00    +0.000 HD
ENDROOT
BRANCH   2   5
ATOM      5  C   UNL     1       3.880   4.570  17.915  0.00  0.00    +0.000 C 
ATOM      6  C   UNL     1       4.703   3.500  18.625  0.00  0.00    +0.000 C 
ATOM      7  O   UNL     1       5.855   4.040  19.289  0.00  0.00    +0.000 OA
ATOM      8  C   UNL     1       6.394   5.120  18.643  0.00  0.00    +0.000 A 
ATOM      9  C   UNL     1       7.508   5.712  19.230  0.00  0.00    +0.000 A 
ATOM     10  C   UNL     1       8.062   6.863  18.665  0.00  0.00    +0.000 A 
ATOM     11  C   UNL     1       7.527   7.398  17.492  0.00  0.00    +0.000 A 
ATOM     12  C   UNL     1       6.426   6.794  16.889  0.00  0.00    +0.000 A 
ATOM     13  C   UNL     1       5.847   5.678  17.484  0.00  0.00    +0.000 A 
ATOM     14  O   UNL     1       4.677   5.227  16.927  0.00  0.00    +0.000 OA
ENDBRANCH   2   5
BRANCH   1  17
ATOM     15  O   UNL     1       1.969   9.116  17.359  0.00  0.00    +0.000 OA
ATOM     16  C   UNL     1       1.793   8.867  18.550  0.00  0.00    +0.000 C 
ATOM     17  N   UNL     1       2.103   7.648  19.117  0.00  0.00    +0.000 N 
ATOM     18  H   UNL     1       1.883   7.384  20.072  0.00  0.00    +0.000 HD
BRANCH  16  19
ATOM     19  C   UNL     1       1.180   9.868  19.461  0.00  0.00    +0.000 A 
ATOM     20  C   UNL     1       1.057  11.190  19.013  0.00  0.00    +0.000 A 
ATOM     21  C   UNL     1       0.468  12.156  19.833  0.00  0.00    +0.000 A 
ATOM     22  C   UNL     1       0.012  11.808  21.103  0.00  0.00    +0.000 A 
ATOM     23  C   UNL     1       0.146  10.496  21.562  0.00  0.00    +0.000 A 
ATOM     24  C   UNL     1       0.733   9.527  20.745  0.00  0.00    +0.000 A 
ENDBRANCH  16  19
ENDBRANCH   1  17
TORSDOF 3
ENDMDL
MODEL 8
REMARK VINA RESULT:      -7.6      4.625      6.550
REMARK  Name = 
REMARK  3 active torsions:
REMARK  status: ('A' for Active; 'I' for Inactive)
REMARK    1  A    between atoms: C_2  and  C_17
REMARK    2  A    between atoms: N_3  and  N_4
REMARK    3  A    between atoms: C_5  and  C_7
REMARK                            x       y       z     vdW  Elec       q    Type
REMARK                         _______ _______ _______ _____ _____    ______ ____
ROOT
ATOM      1  N   UNL     1       2.979   5.072  19.977  0.00  0.00    +0.000 N 
ATOM      2  C   UNL     1       2.493   4.270  18.955  0.00  0.00    +0.000 C 
ATOM      3  O   UNL     1       1.513   4.579  18.277  0.00  0.00    +0.000 OA
ATOM      4  H   UNL     1       3.581   4.658  20.693  0.00  0.00    +0.000 HD
ENDROOT
BRANCH   2   5
ATOM      5  C   UNL     1       3.374   3.036  18.669  0.00  0.00    +0.000 C 
ATOM      6  C   UNL     1       4.552   2.931  19.633  0.00  0.00    +0.000 C 
ATOM      7  O   UNL     1       5.515   3.978  19.445  0.00  0.00    +0.000 OA
ATOM      8  C   UNL     1       5.624   4.382  18.141  0.00  0.00    +0.000 A 
ATOM      9  C   UNL     1       6.528   5.405  17.875  0.00  0.00    +0.000 A 
ATOM     10  C   UNL     1       6.636   5.918  16.580  0.00  0.00    +0.000 A 
ATOM     11  C   UNL     1       5.866   5.383  15.545  0.00  0.00    +0.000 A 
ATOM     12  C   UNL     1       4.976   4.342  15.805  0.00  0.00    +0.000 A 
ATOM     13  C   UNL     1       4.838   3.869  17.106  0.00  0.00    +0.000 A 
ATOM     14  O   UNL     1       3.837   2.956  17.319  0.00  0.00    +0.000 OA
ENDBRANCH   2   5
BRANCH   1  17
ATOM     15  O   UNL     1       3.021   7.520  18.780  0.00  0.00    +0.000 OA
ATOM     16  C   UNL     1       2.269   7.339  19.735  0.00  0.00    +0.000 C 
ATOM     17  N   UNL     1       2.183   6.139  20.410  0.00  0.00    +0.000 N 
ATOM     18  H   UNL     1       1.508   5.934  21.138  0.00  0.00    +0.000 HD
BRANCH  16  19
ATOM     19  C   UNL     1       1.351   8.411  20.203  0.00  0.00    +0.000 A 
ATOM     20  C   UNL     1       1.020   9.441  19.312  0.00  0.00    +0.000 A 
ATOM     21  C   UNL     1       0.145  10.456  19.708  0.00  0.00    +0.000 A 
ATOM     22  C   UNL     1      -0.391  10.451  20.994  0.00  0.00    +0.000 A 
ATOM     23  C   UNL     1      -0.053   9.437  21.892  0.00  0.00    +0.000 A 
ATOM     24  C   UNL     1       0.820   8.419  21.500  0.00  0.00    +0.000 A 
ENDBRANCH  16  19
ENDBRANCH   1  17
TORSDOF 3
ENDMDL
MODEL 9
REMARK VINA RESULT:      -7.3      4.609      6.665
REMARK  Name = 
REMARK  3 active torsions:
REMARK  status: ('A' for Active; 'I' for Inactive)
REMARK    1  A    between atoms: C_2  and  C_17
REMARK    2  A    between atoms: N_3  and  N_4
REMARK    3  A    between atoms: C_5  and  C_7
REMARK                            x       y       z     vdW  Elec       q    Type
REMARK                         _______ _______ _______ _____ _____    ______ ____
ROOT
ATOM      1  N   UNL     1       3.331   5.868  19.630  0.00  0.00    +0.000 N 
ATOM      2  C   UNL     1       2.869   5.080  18.586  0.00  0.00    +0.000 C 
ATOM      3  O   UNL     1       2.104   5.506  17.720  0.00  0.00    +0.000 OA
ATOM      4  H   UNL     1       3.703   5.417  20.469  0.00  0.00    +0.000 HD
ENDROOT
BRANCH   2   5
ATOM      5  C   UNL     1       3.509   3.677  18.544  0.00  0.00    +0.000 C 
ATOM      6  C   UNL     1       4.650   3.532  19.545  0.00  0.00    +0.000 C 
ATOM      7  O   UNL     1       5.788   4.338  19.205  0.00  0.00    +0.000 OA
ATOM      8  C   UNL     1       5.964   4.481  17.855  0.00  0.00    +0.000 A 
ATOM      9  C   UNL     1       7.040   5.261  17.441  0.00  0.00    +0.000 A 
ATOM     10  C   UNL     1       7.234   5.511  16.080  0.00  0.00    +0.000 A 
ATOM     11  C   UNL     1       6.376   4.949  15.133  0.00  0.00    +0.000 A 
ATOM     12  C   UNL     1       5.312   4.148  15.543  0.00  0.00    +0.000 A 
ATOM     13  C   UNL     1       5.094   3.945  16.902  0.00  0.00    +0.000 A 
ATOM     14  O   UNL     1       3.944   3.279  17.242  0.00  0.00    +0.000 OA
ENDBRANCH   2   5
BRANCH   1  17
ATOM     15  O   UNL     1       1.124   6.163  21.201  0.00  0.00    +0.000 OA
ATOM     16  C   UNL     1       1.604   7.157  20.660  0.00  0.00    +0.000 C 
ATOM     17  N   UNL     1       2.714   7.107  19.842  0.00  0.00    +0.000 N 
ATOM     18  H   UNL     1       3.186   7.919  19.459  0.00  0.00    +0.000 HD
BRANCH  16  19
ATOM     19  C   UNL     1       1.035   8.510  20.897  0.00  0.00    +0.000 A 
ATOM     20  C   UNL     1       1.042   9.430  19.840  0.00  0.00    +0.000 A 
ATOM     21  C   UNL     1       0.498  10.705  20.018  0.00  0.00    +0.000 A 
ATOM     22  C   UNL     1      -0.042  11.066  21.251  0.00  0.00    +0.000 A 
ATOM     23  C   UNL     1      -0.037  10.160  22.312  0.00  0.00    +0.000 A 
ATOM     24  C   UNL     1       0.504   8.883  22.139  0.00  0.00    +0.000 A 
ENDBRANCH  16  19
ENDBRANCH   1  17
TORSDOF 3
ENDMDL
