MODEL 1
REMARK VINA RESULT:      -6.8      0.000      0.000
REMARK  Name = 
REMARK  9 active torsions:
REMARK  status: ('A' for Active; 'I' for Inactive)
REMARK    1  A    between atoms: C_1  and  C_2
REMARK    2  A    between atoms: C_5  and  S_6
REMARK    3  A    between atoms: S_6  and  C_9
REMARK    4  A    between atoms: C_14  and  C_15
REMARK    5  A    between atoms: C_15  and  N_16
REMARK    6  A    between atoms: N_16  and  C_17
REMARK    7  A    between atoms: C_17  and  C_18
REMARK    8  A    between atoms: C_18  and  C_19
REMARK    9  A    between atoms: C_19  and  O_20
REMARK                            x       y       z     vdW  Elec       q    Type
REMARK                         _______ _______ _______ _____ _____    ______ ____
ROOT
ATOM      1  C   UNL     1       3.948   5.714  18.488  0.00  0.00    +0.000 A 
ATOM      2  N   UNL     1       4.101   6.662  17.522  0.00  0.00    +0.000 NA
ATOM      3  C   UNL     1       3.278   7.726  17.584  0.00  0.00    +0.000 A 
ATOM      4  C   UNL     1       2.307   7.883  18.557  0.00  0.00    +0.000 A 
ATOM      5  C   UNL     1       2.180   6.897  19.534  0.00  0.00    +0.000 A 
ATOM      6  C   UNL     1       3.020   5.775  19.525  0.00  0.00    +0.000 A 
ENDROOT
BRANCH   1   7
ATOM      7  S   UNL     1       5.073   4.331  18.298  0.00  0.00    +0.000 S 
ATOM      8  O   UNL     1       4.271   3.120  18.323  0.00  0.00    +0.000 OA
ATOM      9  O   UNL     1       6.154   4.506  19.257  0.00  0.00    +0.000 OA
BRANCH   7  14
ATOM     10  C   UNL     1       7.434   4.978  12.759  0.00  0.00    +0.000 C 
ATOM     11  C   UNL     1       6.875   4.744  14.131  0.00  0.00    +0.000 A 
ATOM     12  C   UNL     1       5.578   4.242  14.295  0.00  0.00    +0.000 A 
ATOM     13  C   UNL     1       5.040   4.083  15.570  0.00  0.00    +0.000 A 
ATOM     14  C   UNL     1       5.801   4.443  16.682  0.00  0.00    +0.000 A 
ATOM     15  C   UNL     1       7.113   4.905  16.541  0.00  0.00    +0.000 A 
ATOM     16  C   UNL     1       7.643   5.063  15.261  0.00  0.00    +0.000 A 
ENDBRANCH   7  14
ENDBRANCH   1   7
BRANCH   6  17
ATOM     17  C   UNL     1       2.898   4.743  20.614  0.00  0.00    +0.000 C 
BRANCH  17  18
ATOM     18  N   UNL     1       1.531   4.345  20.931  0.00  0.00    +0.000 NA
ATOM     19  H   UNL     1       0.883   4.647  20.195  0.00  0.00    +0.000 HD
BRANCH  18  20
ATOM     20  C   UNL     1       1.358   2.911  21.156  0.00  0.00    +0.000 C 
BRANCH  20  21
ATOM     21  C   UNL     1       1.602   2.147  19.857  0.00  0.00    +0.000 C 
BRANCH  21  22
ATOM     22  C   UNL     1       0.657   2.576  18.741  0.00  0.00    +0.000 C 
BRANCH  22  23
ATOM     23  O   UNL     1       1.402   3.215  17.710  0.00  0.00    +0.000 OA
ATOM     24  H   UNL     1       0.976   2.972  16.869  0.00  0.00    +0.000 HD
ENDBRANCH  22  23
ENDBRANCH  21  22
ENDBRANCH  20  21
ENDBRANCH  18  20
ENDBRANCH  17  18
ENDBRANCH   6  17
TORSDOF 8
ENDMDL
MODEL 2
REMARK VINA RESULT:      -6.7      1.893      2.407
REMARK  Name = 
REMARK  9 active torsions:
REMARK  status: ('A' for Active; 'I' for Inactive)
REMARK    1  A    between atoms: C_1  and  C_2
REMARK    2  A    between atoms: C_5  and  S_6
REMARK    3  A    between atoms: S_6  and  C_9
REMARK    4  A    between atoms: C_14  and  C_15
REMARK    5  A    between atoms: C_15  and  N_16
REMARK    6  A    between atoms: N_16  and  C_17
REMARK    7  A    between atoms: C_17  and  C_18
REMARK    8  A    between atoms: C_18  and  C_19
REMARK    9  A    between atoms: C_19  and  O_20
REMARK                            x       y       z     vdW  Elec       q    Type
REMARK                         _______ _______ _______ _____ _____    ______ ____
ROOT
ATOM      1  C   UNL     1       5.084   6.297  17.785  0.00  0.00    +0.000 A 
ATOM      2  N   UNL     1       4.442   7.356  17.217  0.00  0.00    +0.000 NA
ATOM      3  C   UNL     1       3.222   7.654  17.704  0.00  0.00    +0.000 A 
ATOM      4  C   UNL     1       2.612   6.943  18.721  0.00  0.00    +0.000 A 
ATOM      5  C   UNL     1       3.298   5.867  19.283  0.00  0.00    +0.000 A 
ATOM      6  C   UNL     1       4.577   5.521  18.824  0.00  0.00    +0.000 A 
ENDROOT
BRANCH   1   7
ATOM      7  S   UNL     1       6.685   5.970  17.048  0.00  0.00    +0.000 S 
ATOM      8  O   UNL     1       7.376   5.037  17.921  0.00  0.00    +0.000 OA
ATOM      9  O   UNL     1       7.294   7.254  16.728  0.00  0.00    +0.000 OA
BRANCH   7  14
ATOM     10  C   UNL     1       5.920   2.906  11.881  0.00  0.00    +0.000 C 
ATOM     11  C   UNL     1       6.073   3.725  13.128  0.00  0.00    +0.000 A 
ATOM     12  C   UNL     1       7.186   4.557  13.301  0.00  0.00    +0.000 A 
ATOM     13  C   UNL     1       7.356   5.270  14.485  0.00  0.00    +0.000 A 
ATOM     14  C   UNL     1       6.411   5.136  15.504  0.00  0.00    +0.000 A 
ATOM     15  C   UNL     1       5.272   4.345  15.333  0.00  0.00    +0.000 A 
ATOM     16  C   UNL     1       5.111   3.633  14.146  0.00  0.00    +0.000 A 
ENDBRANCH   7  14
ENDBRANCH   1   7
BRANCH   6  17
ATOM     17  C   UNL     1       5.320   4.385  19.474  0.00  0.00    +0.000 C 
BRANCH  17  18
ATOM     18  N   UNL     1       4.992   3.062  18.956  0.00  0.00    +0.000 NA
ATOM     19  H   UNL     1       5.845   2.519  18.778  0.00  0.00    +0.000 HD
BRANCH  18  20
ATOM     20  C   UNL     1       4.103   2.282  19.814  0.00  0.00    +0.000 C 
BRANCH  20  21
ATOM     21  C   UNL     1       2.756   2.083  19.123  0.00  0.00    +0.000 C 
BRANCH  21  22
ATOM     22  C   UNL     1       2.867   2.128  17.605  0.00  0.00    +0.000 C 
BRANCH  22  23
ATOM     23  O   UNL     1       2.246   3.314  17.120  0.00  0.00    +0.000 OA
ATOM     24  H   UNL     1       2.775   3.614  16.360  0.00  0.00    +0.000 HD
ENDBRANCH  22  23
ENDBRANCH  21  22
ENDBRANCH  20  21
ENDBRANCH  18  20
ENDBRANCH  17  18
ENDBRANCH   6  17
TORSDOF 8
ENDMDL
MODEL 3
REMARK VINA RESULT:      -6.7      2.210      6.307
REMARK  Name = 
REMARK  9 active torsions:
REMARK  status: ('A' for Active; 'I' for Inactive)
REMARK    1  A    between atoms: C_1  and  C_2
REMARK    2  A    between atoms: C_5  and  S_6
REMARK    3  A    between atoms: S_6  and  C_9
REMARK    4  A    between atoms: C_14  and  C_15
REMARK    5  A    between atoms: C_15  and  N_16
REMARK    6  A    between atoms: N_16  and  C_17
REMARK    7  A    between atoms: C_17  and  C_18
REMARK    8  A    between atoms: C_18  and  C_19
REMARK    9  A    between atoms: C_19  and  O_20
REMARK                            x       y       z     vdW  Elec       q    Type
REMARK                         _______ _______ _______ _____ _____    ______ ____
ROOT
ATOM      1  C   UNL     1       2.651   4.556  18.571  0.00  0.00    +0.000 A 
ATOM      2  N   UNL     1       1.558   4.557  19.384  0.00  0.00    +0.000 NA
ATOM      3  C   UNL     1       0.824   3.428  19.410  0.00  0.00    +0.000 A 
ATOM      4  C   UNL     1       1.124   2.306  18.661  0.00  0.00    +0.000 A 
ATOM      5  C   UNL     1       2.252   2.335  17.842  0.00  0.00    +0.000 A 
ATOM      6  C   UNL     1       3.060   3.480  17.786  0.00  0.00    +0.000 A 
ENDROOT
BRANCH   1   7
ATOM      7  S   UNL     1       3.541   6.112  18.589  0.00  0.00    +0.000 S 
ATOM      8  O   UNL     1       3.960   6.382  17.224  0.00  0.00    +0.000 OA
ATOM      9  O   UNL     1       4.532   6.041  19.654  0.00  0.00    +0.000 OA
BRANCH   7  14
ATOM     10  C   UNL     1      -0.146  10.624  20.239  0.00  0.00    +0.000 C 
ATOM     11  C   UNL     1       0.704   9.463  19.816  0.00  0.00    +0.000 A 
ATOM     12  C   UNL     1       1.097   8.492  20.746  0.00  0.00    +0.000 A 
ATOM     13  C   UNL     1       1.936   7.449  20.363  0.00  0.00    +0.000 A 
ATOM     14  C   UNL     1       2.392   7.388  19.046  0.00  0.00    +0.000 A 
ATOM     15  C   UNL     1       1.978   8.323  18.093  0.00  0.00    +0.000 A 
ATOM     16  C   UNL     1       1.139   9.365  18.485  0.00  0.00    +0.000 A 
ENDBRANCH   7  14
ENDBRANCH   1   7
BRANCH   6  17
ATOM     17  C   UNL     1       4.298   3.477  16.931  0.00  0.00    +0.000 C 
BRANCH  17  18
ATOM     18  N   UNL     1       5.540   3.746  17.648  0.00  0.00    +0.000 NA
ATOM     19  H   UNL     1       5.869   2.905  18.135  0.00  0.00    +0.000 HD
BRANCH  18  20
ATOM     20  C   UNL     1       6.619   4.264  16.811  0.00  0.00    +0.000 C 
BRANCH  20  21
ATOM     21  C   UNL     1       7.843   4.570  17.671  0.00  0.00    +0.000 C 
BRANCH  21  22
ATOM     22  C   UNL     1       7.623   5.759  18.597  0.00  0.00    +0.000 C 
BRANCH  22  23
ATOM     23  O   UNL     1       7.205   5.291  19.875  0.00  0.00    +0.000 OA
ATOM     24  H   UNL     1       8.015   5.094  20.376  0.00  0.00    +0.000 HD
ENDBRANCH  22  23
ENDBRANCH  21  22
ENDBRANCH  20  21
ENDBRANCH  18  20
ENDBRANCH  17  18
ENDBRANCH   6  17
TORSDOF 8
ENDMDL
MODEL 4
REMARK VINA RESULT:      -6.6      2.248      5.156
REMARK  Name = 
REMARK  9 active torsions:
REMARK  status: ('A' for Active; 'I' for Inactive)
REMARK    1  A    between atoms: C_1  and  C_2
REMARK    2  A    between atoms: C_5  and  S_6
REMARK    3  A    between atoms: S_6  and  C_9
REMARK    4  A    between atoms: C_14  and  C_15
REMARK    5  A    between atoms: C_15  and  N_16
REMARK    6  A    between atoms: N_16  and  C_17
REMARK    7  A    between atoms: C_17  and  C_18
REMARK    8  A    between atoms: C_18  and  C_19
REMARK    9  A    between atoms: C_19  and  O_20
REMARK                            x       y       z     vdW  Elec       q    Type
REMARK                         _______ _______ _______ _____ _____    ______ ____
ROOT
ATOM      1  C   UNL     1       6.839   4.960  15.398  0.00  0.00    +0.000 A 
ATOM      2  N   UNL     1       7.566   5.490  14.374  0.00  0.00    +0.000 NA
ATOM      3  C   UNL     1       7.345   4.978  13.149  0.00  0.00    +0.000 A 
ATOM      4  C   UNL     1       6.443   3.960  12.899  0.00  0.00    +0.000 A 
ATOM      5  C   UNL     1       5.712   3.442  13.968  0.00  0.00    +0.000 A 
ATOM      6  C   UNL     1       5.892   3.949  15.263  0.00  0.00    +0.000 A 
ENDROOT
BRANCH   1   7
ATOM      7  S   UNL     1       7.228   5.693  16.987  0.00  0.00    +0.000 S 
ATOM      8  O   UNL     1       7.831   6.988  16.726  0.00  0.00    +0.000 OA
ATOM      9  O   UNL     1       7.951   4.698  17.768  0.00  0.00    +0.000 OA
BRANCH   7  14
ATOM     10  C   UNL     1       1.882   6.496  19.719  0.00  0.00    +0.000 C 
ATOM     11  C   UNL     1       3.232   6.360  19.079  0.00  0.00    +0.000 A 
ATOM     12  C   UNL     1       3.514   7.005  17.868  0.00  0.00    +0.000 A 
ATOM     13  C   UNL     1       4.747   6.829  17.246  0.00  0.00    +0.000 A 
ATOM     14  C   UNL     1       5.695   5.992  17.836  0.00  0.00    +0.000 A 
ATOM     15  C   UNL     1       5.449   5.374  19.065  0.00  0.00    +0.000 A 
ATOM     16  C   UNL     1       4.212   5.554  19.680  0.00  0.00    +0.000 A 
ENDBRANCH   7  14
ENDBRANCH   1   7
BRANCH   6  17
ATOM     17  C   UNL     1       5.061   3.409  16.395  0.00  0.00    +0.000 C 
BRANCH  17  18
ATOM     18  N   UNL     1       3.626   3.634  16.266  0.00  0.00    +0.000 NA
ATOM     19  H   UNL     1       3.267   3.212  15.402  0.00  0.00    +0.000 HD
BRANCH  18  20
ATOM     20  C   UNL     1       2.836   3.150  17.396  0.00  0.00    +0.000 C 
BRANCH  20  21
ATOM     21  C   UNL     1       3.494   1.911  17.998  0.00  0.00    +0.000 C 
BRANCH  21  22
ATOM     22  C   UNL     1       3.692   2.028  19.504  0.00  0.00    +0.000 C 
BRANCH  22  23
ATOM     23  O   UNL     1       5.076   1.899  19.810  0.00  0.00    +0.000 OA
ATOM     24  H   UNL     1       5.537   1.774  18.962  0.00  0.00    +0.000 HD
ENDBRANCH  22  23
ENDBRANCH  21  22
ENDBRANCH  20  21
ENDBRANCH  18  20
ENDBRANCH  17  18
ENDBRANCH   6  17
TORSDOF 8
ENDMDL
MODEL 5
REMARK VINA RESULT:      -6.5      0.412      1.112
REMARK  Name = 
REMARK  9 active torsions:
REMARK  status: ('A' for Active; 'I' for Inactive)
REMARK    1  A    between atoms: C_1  and  C_2
REMARK    2  A    between atoms: C_5  and  S_6
REMARK    3  A    between atoms: S_6  and  C_9
REMARK    4  A    between atoms: C_14  and  C_15
REMARK    5  A    between atoms: C_15  and  N_16
REMARK    6  A    between atoms: N_16  and  C_17
REMARK    7  A    between atoms: C_17  and  C_18
REMARK    8  A    between atoms: C_18  and  C_19
REMARK    9  A    between atoms: C_19  and  O_20
REMARK                            x       y       z     vdW  Elec       q    Type
REMARK                         _______ _______ _______ _____ _____    ______ ____
ROOT
ATOM      1  C   UNL     1       4.069   5.656  18.272  0.00  0.00    +0.000 A 
ATOM      2  N   UNL     1       4.163   6.648  17.343  0.00  0.00    +0.000 NA
ATOM      3  C   UNL     1       3.367   7.719  17.522  0.00  0.00    +0.000 A 
ATOM      4  C   UNL     1       2.478   7.842  18.574  0.00  0.00    +0.000 A 
ATOM      5  C   UNL     1       2.409   6.811  19.510  0.00  0.00    +0.000 A 
ATOM      6  C   UNL     1       3.226   5.679  19.381  0.00  0.00    +0.000 A 
ENDROOT
BRANCH   1   7
ATOM      7  S   UNL     1       5.150   4.268  17.929  0.00  0.00    +0.000 S 
ATOM      8  O   UNL     1       4.323   3.074  17.918  0.00  0.00    +0.000 OA
ATOM      9  O   UNL     1       6.286   4.358  18.835  0.00  0.00    +0.000 OA
BRANCH   7  14
ATOM     10  C   UNL     1       7.489   4.722  12.361  0.00  0.00    +0.000 C 
ATOM     11  C   UNL     1       6.880   4.680  13.731  0.00  0.00    +0.000 A 
ATOM     12  C   UNL     1       7.580   5.177  14.837  0.00  0.00    +0.000 A 
ATOM     13  C   UNL     1       7.036   5.083  16.115  0.00  0.00    +0.000 A 
ATOM     14  C   UNL     1       5.792   4.475  16.285  0.00  0.00    +0.000 A 
ATOM     15  C   UNL     1       5.059   4.011  15.189  0.00  0.00    +0.000 A 
ATOM     16  C   UNL     1       5.611   4.108  13.913  0.00  0.00    +0.000 A 
ENDBRANCH   7  14
ENDBRANCH   1   7
BRANCH   6  17
ATOM     17  C   UNL     1       3.170   4.597  20.425  0.00  0.00    +0.000 C 
BRANCH  17  18
ATOM     18  N   UNL     1       1.951   4.578  21.225  0.00  0.00    +0.000 NA
ATOM     19  H   UNL     1       1.534   5.515  21.277  0.00  0.00    +0.000 HD
BRANCH  18  20
ATOM     20  C   UNL     1       0.939   3.633  20.758  0.00  0.00    +0.000 C 
BRANCH  20  21
ATOM     21  C   UNL     1       1.606   2.496  19.987  0.00  0.00    +0.000 C 
BRANCH  21  22
ATOM     22  C   UNL     1       0.953   2.246  18.634  0.00  0.00    +0.000 C 
BRANCH  22  23
ATOM     23  O   UNL     1       1.359   3.259  17.719  0.00  0.00    +0.000 OA
ATOM     24  H   UNL     1       0.684   3.286  17.019  0.00  0.00    +0.000 HD
ENDBRANCH  22  23
ENDBRANCH  21  22
ENDBRANCH  20  21
ENDBRANCH  18  20
ENDBRANCH  17  18
ENDBRANCH   6  17
TORSDOF 8
ENDMDL
MODEL 6
REMARK VINA RESULT:      -6.5      0.864      1.379
REMARK  Name = 
REMARK  9 active torsions:
REMARK  status: ('A' for Active; 'I' for Inactive)
REMARK    1  A    between atoms: C_1  and  C_2
REMARK    2  A    between atoms: C_5  and  S_6
REMARK    3  A    between atoms: S_6  and  C_9
REMARK    4  A    between atoms: C_14  and  C_15
REMARK    5  A    between atoms: C_15  and  N_16
REMARK    6  A    between atoms: N_16  and  C_17
REMARK    7  A    between atoms: C_17  and  C_18
REMARK    8  A    between atoms: C_18  and  C_19
REMARK    9  A    between atoms: C_19  and  O_20
REMARK                            x       y       z     vdW  Elec       q    Type
REMARK                         _______ _______ _______ _____ _____    ______ ____
ROOT
ATOM      1  C   UNL     1       3.913   5.737  19.071  0.00  0.00    +0.000 A 
ATOM      2  N   UNL     1       3.969   6.773  18.188  0.00  0.00    +0.000 NA
ATOM      3  C   UNL     1       2.969   7.672  18.246  0.00  0.00    +0.000 A 
ATOM      4  C   UNL     1       1.915   7.583  19.136  0.00  0.00    +0.000 A 
ATOM      5  C   UNL     1       1.887   6.514  20.030  0.00  0.00    +0.000 A 
ATOM      6  C   UNL     1       2.911   5.555  20.022  0.00  0.00    +0.000 A 
ENDROOT
BRANCH   1   7
ATOM      7  S   UNL     1       5.274   4.586  18.892  0.00  0.00    +0.000 S 
ATOM      8  O   UNL     1       4.767   3.267  19.227  0.00  0.00    +0.000 OA
ATOM      9  O   UNL     1       6.413   5.133  19.617  0.00  0.00    +0.000 OA
BRANCH   7  14
ATOM     10  C   UNL     1       6.954   4.197  13.087  0.00  0.00    +0.000 C 
ATOM     11  C   UNL     1       6.516   4.366  14.511  0.00  0.00    +0.000 A 
ATOM     12  C   UNL     1       7.407   4.855  15.476  0.00  0.00    +0.000 A 
ATOM     13  C   UNL     1       7.016   4.955  16.809  0.00  0.00    +0.000 A 
ATOM     14  C   UNL     1       5.732   4.550  17.176  0.00  0.00    +0.000 A 
ATOM     15  C   UNL     1       4.815   4.100  16.222  0.00  0.00    +0.000 A 
ATOM     16  C   UNL     1       5.215   4.002  14.890  0.00  0.00    +0.000 A 
ENDBRANCH   7  14
ENDBRANCH   1   7
BRANCH   6  17
ATOM     17  C   UNL     1       2.888   4.433  21.024  0.00  0.00    +0.000 C 
BRANCH  17  18
ATOM     18  N   UNL     1       1.600   3.766  21.170  0.00  0.00    +0.000 NA
ATOM     19  H   UNL     1       0.835   4.376  20.858  0.00  0.00    +0.000 HD
BRANCH  18  20
ATOM     20  C   UNL     1       1.501   2.486  20.472  0.00  0.00    +0.000 C 
BRANCH  20  21
ATOM     21  C   UNL     1       0.920   2.699  19.076  0.00  0.00    +0.000 C 
BRANCH  21  22
ATOM     22  C   UNL     1       1.918   2.376  17.972  0.00  0.00    +0.000 C 
BRANCH  22  23
ATOM     23  O   UNL     1       2.819   1.373  18.429  0.00  0.00    +0.000 OA
ATOM     24  H   UNL     1       3.006   0.799  17.666  0.00  0.00    +0.000 HD
ENDBRANCH  22  23
ENDBRANCH  21  22
ENDBRANCH  20  21
ENDBRANCH  18  20
ENDBRANCH  17  18
ENDBRANCH   6  17
TORSDOF 8
ENDMDL
MODEL 7
REMARK VINA RESULT:      -6.5      1.773      2.123
REMARK  Name = 
REMARK  9 active torsions:
REMARK  status: ('A' for Active; 'I' for Inactive)
REMARK    1  A    between atoms: C_1  and  C_2
REMARK    2  A    between atoms: C_5  and  S_6
REMARK    3  A    between atoms: S_6  and  C_9
REMARK    4  A    between atoms: C_14  and  C_15
REMARK    5  A    between atoms: C_15  and  N_16
REMARK    6  A    between atoms: N_16  and  C_17
REMARK    7  A    between atoms: C_17  and  C_18
REMARK    8  A    between atoms: C_18  and  C_19
REMARK    9  A    between atoms: C_19  and  O_20
REMARK                            x       y       z     vdW  Elec       q    Type
REMARK                         _______ _______ _______ _____ _____    ______ ____
ROOT
ATOM      1  C   UNL     1       4.960   6.115  17.880  0.00  0.00    +0.000 A 
ATOM      2  N   UNL     1       4.481   7.282  17.366  0.00  0.00    +0.000 NA
ATOM      3  C   UNL     1       3.242   7.646  17.746  0.00  0.00    +0.000 A 
ATOM      4  C   UNL     1       2.457   6.899  18.605  0.00  0.00    +0.000 A 
ATOM      5  C   UNL     1       2.977   5.711  19.117  0.00  0.00    +0.000 A 
ATOM      6  C   UNL     1       4.268   5.292  18.766  0.00  0.00    +0.000 A 
ENDROOT
BRANCH   1   7
ATOM      7  S   UNL     1       6.603   5.711  17.292  0.00  0.00    +0.000 S 
ATOM      8  O   UNL     1       7.156   4.728  18.208  0.00  0.00    +0.000 OA
ATOM      9  O   UNL     1       7.309   6.963  17.056  0.00  0.00    +0.000 OA
BRANCH   7  14
ATOM     10  C   UNL     1       5.862   3.228  11.818  0.00  0.00    +0.000 C 
ATOM     11  C   UNL     1       6.080   3.777  13.197  0.00  0.00    +0.000 A 
ATOM     12  C   UNL     1       5.124   3.579  14.201  0.00  0.00    +0.000 A 
ATOM     13  C   UNL     1       5.301   4.140  15.463  0.00  0.00    +0.000 A 
ATOM     14  C   UNL     1       6.434   4.915  15.712  0.00  0.00    +0.000 A 
ATOM     15  C   UNL     1       7.419   5.090  14.737  0.00  0.00    +0.000 A 
ATOM     16  C   UNL     1       7.234   4.525  13.476  0.00  0.00    +0.000 A 
ENDBRANCH   7  14
ENDBRANCH   1   7
BRANCH   6  17
ATOM     17  C   UNL     1       4.830   4.031  19.364  0.00  0.00    +0.000 C 
BRANCH  17  18
ATOM     18  N   UNL     1       4.689   2.841  18.533  0.00  0.00    +0.000 NA
ATOM     19  H   UNL     1       5.557   2.294  18.527  0.00  0.00    +0.000 HD
BRANCH  18  20
ATOM     20  C   UNL     1       3.581   1.967  18.914  0.00  0.00    +0.000 C 
BRANCH  20  21
ATOM     21  C   UNL     1       2.390   2.205  17.989  0.00  0.00    +0.000 C 
BRANCH  21  22
ATOM     22  C   UNL     1       1.072   2.305  18.747  0.00  0.00    +0.000 C 
BRANCH  22  23
ATOM     23  O   UNL     1       1.326   2.736  20.080  0.00  0.00    +0.000 OA
ATOM     24  H   UNL     1       1.259   1.946  20.645  0.00  0.00    +0.000 HD
ENDBRANCH  22  23
ENDBRANCH  21  22
ENDBRANCH  20  21
ENDBRANCH  18  20
ENDBRANCH  17  18
ENDBRANCH   6  17
TORSDOF 8
ENDMDL
MODEL 8
REMARK VINA RESULT:      -6.4      2.186      6.297
REMARK  Name = 
REMARK  9 active torsions:
REMARK  status: ('A' for Active; 'I' for Inactive)
REMARK    1  A    between atoms: C_1  and  C_2
REMARK    2  A    between atoms: C_5  and  S_6
REMARK    3  A    between atoms: S_6  and  C_9
REMARK    4  A    between atoms: C_14  and  C_15
REMARK    5  A    between atoms: C_15  and  N_16
REMARK    6  A    between atoms: N_16  and  C_17
REMARK    7  A    between atoms: C_17  and  C_18
REMARK    8  A    between atoms: C_18  and  C_19
REMARK    9  A    between atoms: C_19  and  O_20
REMARK                            x       y       z     vdW  Elec       q    Type
REMARK                         _______ _______ _______ _____ _____    ______ ____
ROOT
ATOM      1  C   UNL     1       2.611   4.564  18.605  0.00  0.00    +0.000 A 
ATOM      2  N   UNL     1       1.569   4.602  19.483  0.00  0.00    +0.000 NA
ATOM      3  C   UNL     1       0.811   3.493  19.567  0.00  0.00    +0.000 A 
ATOM      4  C   UNL     1       1.037   2.355  18.815  0.00  0.00    +0.000 A 
ATOM      5  C   UNL     1       2.114   2.347  17.929  0.00  0.00    +0.000 A 
ATOM      6  C   UNL     1       2.945   3.470  17.811  0.00  0.00    +0.000 A 
ENDROOT
BRANCH   1   7
ATOM      7  S   UNL     1       3.539   6.097  18.551  0.00  0.00    +0.000 S 
ATOM      8  O   UNL     1       3.850   6.359  17.157  0.00  0.00    +0.000 OA
ATOM      9  O   UNL     1       4.613   5.998  19.530  0.00  0.00    +0.000 OA
BRANCH   7  14
ATOM     10  C   UNL     1      -0.351  10.384  20.330  0.00  0.00    +0.000 C 
ATOM     11  C   UNL     1       0.670   9.370  19.907  0.00  0.00    +0.000 A 
ATOM     12  C   UNL     1       1.151   9.351  18.592  0.00  0.00    +0.000 A 
ATOM     13  C   UNL     1       2.055   8.371  18.187  0.00  0.00    +0.000 A 
ATOM     14  C   UNL     1       2.465   7.401  19.102  0.00  0.00    +0.000 A 
ATOM     15  C   UNL     1       2.029   7.428  20.429  0.00  0.00    +0.000 A 
ATOM     16  C   UNL     1       1.124   8.411  20.826  0.00  0.00    +0.000 A 
ENDBRANCH   7  14
ENDBRANCH   1   7
BRANCH   6  17
ATOM     17  C   UNL     1       4.129   3.426  16.884  0.00  0.00    +0.000 C 
BRANCH  17  18
ATOM     18  N   UNL     1       5.419   3.653  17.524  0.00  0.00    +0.000 NA
ATOM     19  H   UNL     1       5.776   2.786  17.943  0.00  0.00    +0.000 HD
BRANCH  18  20
ATOM     20  C   UNL     1       6.441   4.209  16.640  0.00  0.00    +0.000 C 
BRANCH  20  21
ATOM     21  C   UNL     1       7.593   4.773  17.468  0.00  0.00    +0.000 C 
BRANCH  21  22
ATOM     22  C   UNL     1       7.439   6.262  17.746  0.00  0.00    +0.000 C 
BRANCH  22  23
ATOM     23  O   UNL     1       6.733   6.873  16.670  0.00  0.00    +0.000 OA
ATOM     24  H   UNL     1       6.945   7.822  16.703  0.00  0.00    +0.000 HD
ENDBRANCH  22  23
ENDBRANCH  21  22
ENDBRANCH  20  21
ENDBRANCH  18  20
ENDBRANCH  17  18
ENDBRANCH   6  17
TORSDOF 8
ENDMDL
MODEL 9
REMARK VINA RESULT:      -6.3      2.225      6.253
REMARK  Name = 
REMARK  9 active torsions:
REMARK  status: ('A' for Active; 'I' for Inactive)
REMARK    1  A    between atoms: C_1  and  C_2
REMARK    2  A    between atoms: C_5  and  S_6
REMARK    3  A    between atoms: S_6  and  C_9
REMARK    4  A    between atoms: C_14  and  C_15
REMARK    5  A    between atoms: C_15  and  N_16
REMARK    6  A    between atoms: N_16  and  C_17
REMARK    7  A    between atoms: C_17  and  C_18
REMARK    8  A    between atoms: C_18  and  C_19
REMARK    9  A    between atoms: C_19  and  O_20
REMARK                            x       y       z     vdW  Elec       q    Type
REMARK                         _______ _______ _______ _____ _____    ______ ____
ROOT
ATOM      1  C   UNL     1       2.695   4.520  18.544  0.00  0.00    +0.000 A 
ATOM      2  N   UNL     1       1.599   4.546  19.353  0.00  0.00    +0.000 NA
ATOM      3  C   UNL     1       0.872   3.416  19.422  0.00  0.00    +0.000 A 
ATOM      4  C   UNL     1       1.180   2.267  18.717  0.00  0.00    +0.000 A 
ATOM      5  C   UNL     1       2.311   2.270  17.901  0.00  0.00    +0.000 A 
ATOM      6  C   UNL     1       3.112   3.417  17.803  0.00  0.00    +0.000 A 
ENDROOT
BRANCH   1   7
ATOM      7  S   UNL     1       3.576   6.080  18.505  0.00  0.00    +0.000 S 
ATOM      8  O   UNL     1       3.920   6.343  17.118  0.00  0.00    +0.000 OA
ATOM      9  O   UNL     1       4.624   6.022  19.515  0.00  0.00    +0.000 OA
BRANCH   7  14
ATOM     10  C   UNL     1      -0.041  10.583  20.325  0.00  0.00    +0.000 C 
ATOM     11  C   UNL     1       0.791   9.425  19.862  0.00  0.00    +0.000 A 
ATOM     12  C   UNL     1       1.225   8.452  20.772  0.00  0.00    +0.000 A 
ATOM     13  C   UNL     1       2.048   7.411  20.350  0.00  0.00    +0.000 A 
ATOM     14  C   UNL     1       2.447   7.354  19.014  0.00  0.00    +0.000 A 
ATOM     15  C   UNL     1       1.990   8.291  18.082  0.00  0.00    +0.000 A 
ATOM     16  C   UNL     1       1.168   9.331  18.513  0.00  0.00    +0.000 A 
ENDBRANCH   7  14
ENDBRANCH   1   7
BRANCH   6  17
ATOM     17  C   UNL     1       4.353   3.388  16.953  0.00  0.00    +0.000 C 
BRANCH  17  18
ATOM     18  N   UNL     1       5.597   3.635  17.674  0.00  0.00    +0.000 NA
ATOM     19  H   UNL     1       6.018   2.753  17.989  0.00  0.00    +0.000 HD
BRANCH  18  20
ATOM     20  C   UNL     1       6.592   4.392  16.917  0.00  0.00    +0.000 C 
BRANCH  20  21
ATOM     21  C   UNL     1       6.666   3.868  15.485  0.00  0.00    +0.000 C 
BRANCH  21  22
ATOM     22  C   UNL     1       6.441   4.963  14.450  0.00  0.00    +0.000 C 
BRANCH  22  23
ATOM     23  O   UNL     1       5.981   6.142  15.103  0.00  0.00    +0.000 OA
ATOM     24  H   UNL     1       6.157   6.882  14.495  0.00  0.00    +0.000 HD
ENDBRANCH  22  23
ENDBRANCH  21  22
ENDBRANCH  20  21
ENDBRANCH  18  20
ENDBRANCH  17  18
ENDBRANCH   6  17
TORSDOF 8
ENDMDL
