MODEL 1
REMARK VINA RESULT:      -7.8      0.000      0.000
REMARK  Name = 
REMARK  7 active torsions:
REMARK  status: ('A' for Active; 'I' for Inactive)
REMARK    1  A    between atoms: C_1  and  O_2
REMARK    2  A    between atoms: O_2  and  C_3
REMARK    3  A    between atoms: C_6  and  C_7
REMARK    4  A    between atoms: C_8  and  C_9
REMARK    5  A    between atoms: C_14  and  C_15
REMARK    6  A    between atoms: C_23  and  O_24
REMARK    7  A    between atoms: O_24  and  C_25
REMARK                            x       y       z     vdW  Elec       q    Type
REMARK                         _______ _______ _______ _____ _____    ______ ____
ROOT
ATOM      1  C   UNL     1       1.183   9.360  18.692  0.00  0.00    +0.000 C 
ATOM      2  O   UNL     1       0.549  10.274  18.184  0.00  0.00    +0.000 OA
ATOM      3  N   UNL     1       1.245   9.026  20.023  0.00  0.00    +0.000 N 
ATOM      4  C   UNL     1       0.499   9.694  20.954  0.00  0.00    +0.000 A 
ATOM      5  N   UNL     1      -0.442  10.587  20.810  0.00  0.00    +0.000 NA
ATOM      6  C   UNL     1      -0.861  10.993  22.076  0.00  0.00    +0.000 A 
ATOM      7  N   UNL     1      -0.291  10.438  23.154  0.00  0.00    +0.000 NA
ATOM      8  S   UNL     1       0.815   9.323  22.590  0.00  0.00    +0.000 S 
ATOM      9  H   UNL     1       1.874   8.317  20.361  0.00  0.00    +0.000 HD
ENDROOT
BRANCH   6  10
ATOM     10  C   UNL     1      -1.933  12.040  22.201  0.00  0.00    +0.000 A 
ATOM     11  C   UNL     1      -2.659  12.253  23.357  0.00  0.00    +0.000 A 
ATOM     12  C   UNL     1      -3.618  13.296  23.204  0.00  0.00    +0.000 A 
ATOM     13  C   UNL     1      -3.602  13.829  21.935  0.00  0.00    +0.000 A 
ATOM     14  S   UNL     1      -2.406  13.100  20.949  0.00  0.00    +0.000 S 
ENDBRANCH   6  10
BRANCH   1  16
ATOM     15  C   UNL     1       2.510   7.326  18.403  0.00  0.00    +0.000 C 
ATOM     16  C   UNL     1       2.036   8.458  17.863  0.00  0.00    +0.000 C 
BRANCH  15  20
ATOM     17  C   UNL     1       5.249   4.667  16.434  0.00  0.00    +0.000 A 
ATOM     18  C   UNL     1       5.346   6.059  16.294  0.00  0.00    +0.000 A 
ATOM     19  C   UNL     1       4.453   6.913  16.943  0.00  0.00    +0.000 A 
ATOM     20  C   UNL     1       3.409   6.394  17.712  0.00  0.00    +0.000 A 
ATOM     21  C   UNL     1       3.290   5.003  17.816  0.00  0.00    +0.000 A 
ATOM     22  C   UNL     1       4.185   4.130  17.173  0.00  0.00    +0.000 A 
BRANCH  17  24
ATOM     23  C   UNL     1       6.277   3.921  14.430  0.00  0.00    +0.000 C 
ATOM     24  O   UNL     1       6.156   3.826  15.849  0.00  0.00    +0.000 OA
ENDBRANCH  17  24
BRANCH  22  25
ATOM     25  O   UNL     1       3.870   2.819  17.412  0.00  0.00    +0.000 OA
ATOM     26  C   UNL     1       2.535   2.474  17.744  0.00  0.00    +0.000 C 
ENDBRANCH  22  25
ENDBRANCH  15  20
ENDBRANCH   1  16
TORSDOF 5
ENDMDL
MODEL 2
REMARK VINA RESULT:      -7.6      1.045      2.116
REMARK  Name = 
REMARK  7 active torsions:
REMARK  status: ('A' for Active; 'I' for Inactive)
REMARK    1  A    between atoms: C_1  and  O_2
REMARK    2  A    between atoms: O_2  and  C_3
REMARK    3  A    between atoms: C_6  and  C_7
REMARK    4  A    between atoms: C_8  and  C_9
REMARK    5  A    between atoms: C_14  and  C_15
REMARK    6  A    between atoms: C_23  and  O_24
REMARK    7  A    between atoms: O_24  and  C_25
REMARK                            x       y       z     vdW  Elec       q    Type
REMARK                         _______ _______ _______ _____ _____    ______ ____
ROOT
ATOM      1  C   UNL     1       1.224   9.466  18.806  0.00  0.00    +0.000 C 
ATOM      2  O   UNL     1       0.594  10.363  18.265  0.00  0.00    +0.000 OA
ATOM      3  N   UNL     1       1.237   9.143  20.141  0.00  0.00    +0.000 N 
ATOM      4  C   UNL     1       0.439   9.802  21.035  0.00  0.00    +0.000 A 
ATOM      5  N   UNL     1      -0.513  10.675  20.844  0.00  0.00    +0.000 NA
ATOM      6  C   UNL     1      -0.993  11.081  22.088  0.00  0.00    +0.000 A 
ATOM      7  N   UNL     1      -0.458  10.545  23.193  0.00  0.00    +0.000 NA
ATOM      8  S   UNL     1       0.692   9.449  22.685  0.00  0.00    +0.000 S 
ATOM      9  H   UNL     1       1.864   8.449  20.511  0.00  0.00    +0.000 HD
ENDROOT
BRANCH   6  10
ATOM     10  C   UNL     1      -2.090  12.107  22.160  0.00  0.00    +0.000 A 
ATOM     11  C   UNL     1      -2.416  12.948  21.114  0.00  0.00    +0.000 A 
ATOM     12  C   UNL     1      -3.485  13.831  21.447  0.00  0.00    +0.000 A 
ATOM     13  C   UNL     1      -3.923  13.643  22.739  0.00  0.00    +0.000 A 
ATOM     14  S   UNL     1      -3.076  12.381  23.526  0.00  0.00    +0.000 S 
ENDBRANCH   6  10
BRANCH   1  16
ATOM     15  C   UNL     1       2.521   7.409  18.552  0.00  0.00    +0.000 C 
ATOM     16  C   UNL     1       2.129   8.576  18.021  0.00  0.00    +0.000 C 
BRANCH  15  20
ATOM     17  C   UNL     1       5.159   4.650  16.580  0.00  0.00    +0.000 A 
ATOM     18  C   UNL     1       3.927   4.240  17.110  0.00  0.00    +0.000 A 
ATOM     19  C   UNL     1       3.076   5.147  17.744  0.00  0.00    +0.000 A 
ATOM     20  C   UNL     1       3.458   6.481  17.907  0.00  0.00    +0.000 A 
ATOM     21  C   UNL     1       4.706   6.878  17.413  0.00  0.00    +0.000 A 
ATOM     22  C   UNL     1       5.571   5.978  16.768  0.00  0.00    +0.000 A 
BRANCH  17  24
ATOM     23  C   UNL     1       5.997   3.916  14.485  0.00  0.00    +0.000 C 
ATOM     24  O   UNL     1       5.971   3.780  15.906  0.00  0.00    +0.000 OA
ENDBRANCH  17  24
BRANCH  22  25
ATOM     25  O   UNL     1       6.733   6.587  16.377  0.00  0.00    +0.000 OA
ATOM     26  C   UNL     1       7.549   7.219  17.351  0.00  0.00    +0.000 C 
ENDBRANCH  22  25
ENDBRANCH  15  20
ENDBRANCH   1  16
TORSDOF 5
ENDMDL
MODEL 3
REMARK VINA RESULT:      -7.4      2.134      3.119
REMARK  Name = 
REMARK  7 active torsions:
REMARK  status: ('A' for Active; 'I' for Inactive)
REMARK    1  A    between atoms: C_1  and  O_2
REMARK    2  A    between atoms: O_2  and  C_3
REMARK    3  A    between atoms: C_6  and  C_7
REMARK    4  A    between atoms: C_8  and  C_9
REMARK    5  A    between atoms: C_14  and  C_15
REMARK    6  A    between atoms: C_23  and  O_24
REMARK    7  A    between atoms: O_24  and  C_25
REMARK                            x       y       z     vdW  Elec       q    Type
REMARK                         _______ _______ _______ _____ _____    ______ ____
ROOT
ATOM      1  C   UNL     1       0.962   9.557  18.543  0.00  0.00    +0.000 C 
ATOM      2  O   UNL     1       1.036   9.890  19.718  0.00  0.00    +0.000 OA
ATOM      3  N   UNL     1      -0.059   9.821  17.664  0.00  0.00    +0.000 N 
ATOM      4  C   UNL     1      -1.129  10.590  18.034  0.00  0.00    +0.000 A 
ATOM      5  N   UNL     1      -1.339  11.292  19.114  0.00  0.00    +0.000 NA
ATOM      6  C   UNL     1      -2.608  11.862  19.027  0.00  0.00    +0.000 A 
ATOM      7  N   UNL     1      -3.346  11.632  17.933  0.00  0.00    +0.000 NA
ATOM      8  S   UNL     1      -2.422  10.676  16.925  0.00  0.00    +0.000 S 
ATOM      9  H   UNL     1      -0.079   9.421  16.741  0.00  0.00    +0.000 HD
ENDROOT
BRANCH   6  10
ATOM     10  C   UNL     1      -3.117  12.713  20.157  0.00  0.00    +0.000 A 
ATOM     11  C   UNL     1      -4.437  12.730  20.564  0.00  0.00    +0.000 A 
ATOM     12  C   UNL     1      -4.654  13.630  21.649  0.00  0.00    +0.000 A 
ATOM     13  C   UNL     1      -3.497  14.278  22.018  0.00  0.00    +0.000 A 
ATOM     14  S   UNL     1      -2.152  13.771  21.087  0.00  0.00    +0.000 S 
ENDBRANCH   6  10
BRANCH   1  16
ATOM     15  C   UNL     1       2.242   7.488  18.299  0.00  0.00    +0.000 C 
ATOM     16  C   UNL     1       2.041   8.752  17.900  0.00  0.00    +0.000 C 
BRANCH  15  20
ATOM     17  C   UNL     1       5.276   4.888  16.721  0.00  0.00    +0.000 A 
ATOM     18  C   UNL     1       4.053   4.391  17.193  0.00  0.00    +0.000 A 
ATOM     19  C   UNL     1       3.073   5.246  17.699  0.00  0.00    +0.000 A 
ATOM     20  C   UNL     1       3.310   6.619  17.790  0.00  0.00    +0.000 A 
ATOM     21  C   UNL     1       4.548   7.108  17.356  0.00  0.00    +0.000 A 
ATOM     22  C   UNL     1       5.543   6.260  16.840  0.00  0.00    +0.000 A 
BRANCH  17  24
ATOM     23  C   UNL     1       6.272   4.035  14.744  0.00  0.00    +0.000 C 
ATOM     24  O   UNL     1       6.218   4.063  16.170  0.00  0.00    +0.000 OA
ENDBRANCH  17  24
BRANCH  22  25
ATOM     25  O   UNL     1       6.667   6.958  16.487  0.00  0.00    +0.000 OA
ATOM     26  C   UNL     1       7.572   7.374  17.496  0.00  0.00    +0.000 C 
ENDBRANCH  22  25
ENDBRANCH  15  20
ENDBRANCH   1  16
TORSDOF 5
ENDMDL
MODEL 4
REMARK VINA RESULT:      -7.4      1.948      2.860
REMARK  Name = 
REMARK  7 active torsions:
REMARK  status: ('A' for Active; 'I' for Inactive)
REMARK    1  A    between atoms: C_1  and  O_2
REMARK    2  A    between atoms: O_2  and  C_3
REMARK    3  A    between atoms: C_6  and  C_7
REMARK    4  A    between atoms: C_8  and  C_9
REMARK    5  A    between atoms: C_14  and  C_15
REMARK    6  A    between atoms: C_23  and  O_24
REMARK    7  A    between atoms: O_24  and  C_25
REMARK                            x       y       z     vdW  Elec       q    Type
REMARK                         _______ _______ _______ _____ _____    ______ ____
ROOT
ATOM      1  C   UNL     1       1.254   9.156  18.771  0.00  0.00    +0.000 C 
ATOM      2  O   UNL     1       1.321   9.190  19.992  0.00  0.00    +0.000 OA
ATOM      3  N   UNL     1       0.327   9.774  17.969  0.00  0.00    +0.000 N 
ATOM      4  C   UNL     1      -0.633  10.592  18.498  0.00  0.00    +0.000 A 
ATOM      5  N   UNL     1      -0.788  11.047  19.712  0.00  0.00    +0.000 NA
ATOM      6  C   UNL     1      -1.952  11.812  19.749  0.00  0.00    +0.000 A 
ATOM      7  N   UNL     1      -2.663  11.962  18.624  0.00  0.00    +0.000 NA
ATOM      8  S   UNL     1      -1.845  11.136  17.427  0.00  0.00    +0.000 S 
ATOM      9  H   UNL     1       0.292   9.608  16.977  0.00  0.00    +0.000 HD
ENDROOT
BRANCH   6  10
ATOM     10  C   UNL     1      -2.382  12.445  21.044  0.00  0.00    +0.000 A 
ATOM     11  C   UNL     1      -1.561  12.550  22.150  0.00  0.00    +0.000 A 
ATOM     12  C   UNL     1      -2.217  13.181  23.248  0.00  0.00    +0.000 A 
ATOM     13  C   UNL     1      -3.517  13.518  22.945  0.00  0.00    +0.000 A 
ATOM     14  S   UNL     1      -3.926  13.112  21.333  0.00  0.00    +0.000 S 
ENDBRANCH   6  10
BRANCH   1  16
ATOM     15  C   UNL     1       2.691   7.204  18.453  0.00  0.00    +0.000 C 
ATOM     16  C   UNL     1       2.231   8.365  17.966  0.00  0.00    +0.000 C 
BRANCH  15  20
ATOM     17  C   UNL     1       5.548   4.728  16.411  0.00  0.00    +0.000 A 
ATOM     18  C   UNL     1       4.303   4.230  16.824  0.00  0.00    +0.000 A 
ATOM     19  C   UNL     1       3.382   5.046  17.481  0.00  0.00    +0.000 A 
ATOM     20  C   UNL     1       3.700   6.371  17.787  0.00  0.00    +0.000 A 
ATOM     21  C   UNL     1       4.959   6.853  17.410  0.00  0.00    +0.000 A 
ATOM     22  C   UNL     1       5.896   6.045  16.743  0.00  0.00    +0.000 A 
BRANCH  17  24
ATOM     23  C   UNL     1       6.309   3.980  14.292  0.00  0.00    +0.000 C 
ATOM     24  O   UNL     1       6.432   3.951  15.713  0.00  0.00    +0.000 OA
ENDBRANCH  17  24
BRANCH  22  25
ATOM     25  O   UNL     1       7.054   6.727  16.482  0.00  0.00    +0.000 OA
ATOM     26  C   UNL     1       7.587   7.596  17.469  0.00  0.00    +0.000 C 
ENDBRANCH  22  25
ENDBRANCH  15  20
ENDBRANCH   1  16
TORSDOF 5
ENDMDL
MODEL 5
REMARK VINA RESULT:      -7.3      1.767      2.054
REMARK  Name = 
REMARK  7 active torsions:
REMARK  status: ('A' for Active; 'I' for Inactive)
REMARK    1  A    between atoms: C_1  and  O_2
REMARK    2  A    between atoms: O_2  and  C_3
REMARK    3  A    between atoms: C_6  and  C_7
REMARK    4  A    between atoms: C_8  and  C_9
REMARK    5  A    between atoms: C_14  and  C_15
REMARK    6  A    between atoms: C_23  and  O_24
REMARK    7  A    between atoms: O_24  and  C_25
REMARK                            x       y       z     vdW  Elec       q    Type
REMARK                         _______ _______ _______ _____ _____    ______ ____
ROOT
ATOM      1  C   UNL     1       1.118   9.331  18.706  0.00  0.00    +0.000 C 
ATOM      2  O   UNL     1       1.279   9.456  19.912  0.00  0.00    +0.000 OA
ATOM      3  N   UNL     1       0.120   9.877  17.937  0.00  0.00    +0.000 N 
ATOM      4  C   UNL     1      -0.809  10.721  18.480  0.00  0.00    +0.000 A 
ATOM      5  N   UNL     1      -0.877  11.263  19.666  0.00  0.00    +0.000 NA
ATOM      6  C   UNL     1      -2.048  12.015  19.739  0.00  0.00    +0.000 A 
ATOM      7  N   UNL     1      -2.847  12.072  18.665  0.00  0.00    +0.000 NA
ATOM      8  S   UNL     1      -2.110  11.170  17.471  0.00  0.00    +0.000 S 
ATOM      9  H   UNL     1       0.011   9.638  16.966  0.00  0.00    +0.000 HD
ENDROOT
BRANCH   6  10
ATOM     10  C   UNL     1      -2.386  12.737  21.014  0.00  0.00    +0.000 A 
ATOM     11  C   UNL     1      -1.988  12.304  22.263  0.00  0.00    +0.000 A 
ATOM     12  C   UNL     1      -2.450  13.163  23.303  0.00  0.00    +0.000 A 
ATOM     13  C   UNL     1      -3.197  14.210  22.810  0.00  0.00    +0.000 A 
ATOM     14  S   UNL     1      -3.302  14.175  21.102  0.00  0.00    +0.000 S 
ENDBRANCH   6  10
BRANCH   1  16
ATOM     15  C   UNL     1       2.432   7.299  18.354  0.00  0.00    +0.000 C 
ATOM     16  C   UNL     1       2.043   8.494  17.887  0.00  0.00    +0.000 C 
BRANCH  15  20
ATOM     17  C   UNL     1       5.330   4.787  16.417  0.00  0.00    +0.000 A 
ATOM     18  C   UNL     1       5.369   6.185  16.299  0.00  0.00    +0.000 A 
ATOM     19  C   UNL     1       4.425   6.990  16.937  0.00  0.00    +0.000 A 
ATOM     20  C   UNL     1       3.387   6.416  17.673  0.00  0.00    +0.000 A 
ATOM     21  C   UNL     1       3.326   5.020  17.756  0.00  0.00    +0.000 A 
ATOM     22  C   UNL     1       4.272   4.196  17.123  0.00  0.00    +0.000 A 
BRANCH  17  24
ATOM     23  C   UNL     1       6.608   4.284  14.483  0.00  0.00    +0.000 C 
ATOM     24  O   UNL     1       6.286   3.995  15.843  0.00  0.00    +0.000 OA
ENDBRANCH  17  24
BRANCH  22  25
ATOM     25  O   UNL     1       4.009   2.869  17.337  0.00  0.00    +0.000 OA
ATOM     26  C   UNL     1       2.715   2.478  17.768  0.00  0.00    +0.000 C 
ENDBRANCH  22  25
ENDBRANCH  15  20
ENDBRANCH   1  16
TORSDOF 5
ENDMDL
MODEL 6
REMARK VINA RESULT:      -7.2      3.703     10.347
REMARK  Name = 
REMARK  7 active torsions:
REMARK  status: ('A' for Active; 'I' for Inactive)
REMARK    1  A    between atoms: C_1  and  O_2
REMARK    2  A    between atoms: O_2  and  C_3
REMARK    3  A    between atoms: C_6  and  C_7
REMARK    4  A    between atoms: C_8  and  C_9
REMARK    5  A    between atoms: C_14  and  C_15
REMARK    6  A    between atoms: C_23  and  O_24
REMARK    7  A    between atoms: O_24  and  C_25
REMARK                            x       y       z     vdW  Elec       q    Type
REMARK                         _______ _______ _______ _____ _____    ______ ____
ROOT
ATOM      1  C   UNL     1       1.955   7.724  19.841  0.00  0.00    +0.000 C 
ATOM      2  O   UNL     1       2.366   8.209  18.797  0.00  0.00    +0.000 OA
ATOM      3  N   UNL     1       2.196   6.462  20.327  0.00  0.00    +0.000 N 
ATOM      4  C   UNL     1       3.030   5.599  19.670  0.00  0.00    +0.000 A 
ATOM      5  N   UNL     1       3.814   5.790  18.643  0.00  0.00    +0.000 NA
ATOM      6  C   UNL     1       4.426   4.578  18.327  0.00  0.00    +0.000 A 
ATOM      7  N   UNL     1       4.148   3.500  19.073  0.00  0.00    +0.000 NA
ATOM      8  S   UNL     1       3.089   4.000  20.261  0.00  0.00    +0.000 S 
ATOM      9  H   UNL     1       1.733   6.115  21.150  0.00  0.00    +0.000 HD
ENDROOT
BRANCH   6  10
ATOM     10  C   UNL     1       5.374   4.508  17.162  0.00  0.00    +0.000 A 
ATOM     11  C   UNL     1       4.980   4.184  15.878  0.00  0.00    +0.000 A 
ATOM     12  C   UNL     1       6.075   4.180  14.965  0.00  0.00    +0.000 A 
ATOM     13  C   UNL     1       7.265   4.483  15.588  0.00  0.00    +0.000 A 
ATOM     14  S   UNL     1       7.051   4.811  17.255  0.00  0.00    +0.000 S 
ENDBRANCH   6  10
BRANCH   1  16
ATOM     15  C   UNL     1       0.396   9.557  20.275  0.00  0.00    +0.000 C 
ATOM     16  C   UNL     1       1.065   8.499  20.755  0.00  0.00    +0.000 C 
BRANCH  15  20
ATOM     17  C   UNL     1      -1.988  12.151  22.734  0.00  0.00    +0.000 A 
ATOM     18  C   UNL     1      -1.236  11.101  23.283  0.00  0.00    +0.000 A 
ATOM     19  C   UNL     1      -0.461  10.269  22.474  0.00  0.00    +0.000 A 
ATOM     20  C   UNL     1      -0.456  10.434  21.087  0.00  0.00    +0.000 A 
ATOM     21  C   UNL     1      -1.239  11.456  20.539  0.00  0.00    +0.000 A 
ATOM     22  C   UNL     1      -2.021  12.306  21.340  0.00  0.00    +0.000 A 
BRANCH  17  24
ATOM     23  C   UNL     1      -3.879  12.471  24.130  0.00  0.00    +0.000 C 
ATOM     24  O   UNL     1      -2.702  13.007  23.526  0.00  0.00    +0.000 OA
ENDBRANCH  17  24
BRANCH  22  25
ATOM     25  O   UNL     1      -2.705  13.223  20.587  0.00  0.00    +0.000 OA
ATOM     26  C   UNL     1      -4.049  12.956  20.220  0.00  0.00    +0.000 C 
ENDBRANCH  22  25
ENDBRANCH  15  20
ENDBRANCH   1  16
TORSDOF 5
ENDMDL
MODEL 7
REMARK VINA RESULT:      -7.2      2.349      2.672
REMARK  Name = 
REMARK  7 active torsions:
REMARK  status: ('A' for Active; 'I' for Inactive)
REMARK    1  A    between atoms: C_1  and  O_2
REMARK    2  A    between atoms: O_2  and  C_3
REMARK    3  A    between atoms: C_6  and  C_7
REMARK    4  A    between atoms: C_8  and  C_9
REMARK    5  A    between atoms: C_14  and  C_15
REMARK    6  A    between atoms: C_23  and  O_24
REMARK    7  A    between atoms: O_24  and  C_25
REMARK                            x       y       z     vdW  Elec       q    Type
REMARK                         _______ _______ _______ _____ _____    ______ ____
ROOT
ATOM      1  C   UNL     1       0.954   9.657  18.754  0.00  0.00    +0.000 C 
ATOM      2  O   UNL     1       0.919  10.040  19.914  0.00  0.00    +0.000 OA
ATOM      3  N   UNL     1      -0.006   9.832  17.788  0.00  0.00    +0.000 N 
ATOM      4  C   UNL     1      -1.138  10.558  18.040  0.00  0.00    +0.000 A 
ATOM      5  N   UNL     1      -1.467  11.291  19.069  0.00  0.00    +0.000 NA
ATOM      6  C   UNL     1      -2.751  11.790  18.860  0.00  0.00    +0.000 A 
ATOM      7  N   UNL     1      -3.389  11.478  17.724  0.00  0.00    +0.000 NA
ATOM      8  S   UNL     1      -2.343  10.532  16.832  0.00  0.00    +0.000 S 
ATOM      9  H   UNL     1       0.066   9.394  16.885  0.00  0.00    +0.000 HD
ENDROOT
BRANCH   6  10
ATOM     10  C   UNL     1      -3.388  12.659  19.910  0.00  0.00    +0.000 A 
ATOM     11  C   UNL     1      -2.668  13.435  20.796  0.00  0.00    +0.000 A 
ATOM     12  C   UNL     1      -3.514  14.152  21.693  0.00  0.00    +0.000 A 
ATOM     13  C   UNL     1      -4.845  13.884  21.468  0.00  0.00    +0.000 A 
ATOM     14  S   UNL     1      -5.071  12.807  20.157  0.00  0.00    +0.000 S 
ENDBRANCH   6  10
BRANCH   1  16
ATOM     15  C   UNL     1       2.088   7.544  18.274  0.00  0.00    +0.000 C 
ATOM     16  C   UNL     1       2.119   8.884  18.231  0.00  0.00    +0.000 C 
BRANCH  15  20
ATOM     17  C   UNL     1       5.418   5.101  17.091  0.00  0.00    +0.000 A 
ATOM     18  C   UNL     1       5.340   6.457  16.745  0.00  0.00    +0.000 A 
ATOM     19  C   UNL     1       4.255   7.242  17.139  0.00  0.00    +0.000 A 
ATOM     20  C   UNL     1       3.195   6.677  17.851  0.00  0.00    +0.000 A 
ATOM     21  C   UNL     1       3.256   5.314  18.161  0.00  0.00    +0.000 A 
ATOM     22  C   UNL     1       4.344   4.512  17.775  0.00  0.00    +0.000 A 
BRANCH  17  24
ATOM     23  C   UNL     1       7.672   4.527  17.560  0.00  0.00    +0.000 C 
ATOM     24  O   UNL     1       6.505   4.340  16.759  0.00  0.00    +0.000 OA
ENDBRANCH  17  24
BRANCH  22  25
ATOM     25  O   UNL     1       4.182   3.214  18.180  0.00  0.00    +0.000 OA
ATOM     26  C   UNL     1       4.468   2.865  19.526  0.00  0.00    +0.000 C 
ENDBRANCH  22  25
ENDBRANCH  15  20
ENDBRANCH   1  16
TORSDOF 5
ENDMDL
MODEL 8
REMARK VINA RESULT:      -7.1      1.604      1.868
REMARK  Name = 
REMARK  7 active torsions:
REMARK  status: ('A' for Active; 'I' for Inactive)
REMARK    1  A    between atoms: C_1  and  O_2
REMARK    2  A    between atoms: O_2  and  C_3
REMARK    3  A    between atoms: C_6  and  C_7
REMARK    4  A    between atoms: C_8  and  C_9
REMARK    5  A    between atoms: C_14  and  C_15
REMARK    6  A    between atoms: C_23  and  O_24
REMARK    7  A    between atoms: O_24  and  C_25
REMARK                            x       y       z     vdW  Elec       q    Type
REMARK                         _______ _______ _______ _____ _____    ______ ____
ROOT
ATOM      1  C   UNL     1       1.396   8.428  20.443  0.00  0.00    +0.000 C 
ATOM      2  O   UNL     1       1.288   8.557  21.654  0.00  0.00    +0.000 OA
ATOM      3  N   UNL     1       0.756   9.151  19.466  0.00  0.00    +0.000 N 
ATOM      4  C   UNL     1      -0.069  10.194  19.786  0.00  0.00    +0.000 A 
ATOM      5  N   UNL     1      -0.299  10.778  20.931  0.00  0.00    +0.000 NA
ATOM      6  C   UNL     1      -1.260  11.768  20.734  0.00  0.00    +0.000 A 
ATOM      7  N   UNL     1      -1.747  11.960  19.501  0.00  0.00    +0.000 NA
ATOM      8  S   UNL     1      -0.961  10.879  18.502  0.00  0.00    +0.000 S 
ATOM      9  H   UNL     1       0.832   8.908  18.493  0.00  0.00    +0.000 HD
ENDROOT
BRANCH   6  10
ATOM     10  C   UNL     1      -1.727  12.589  21.904  0.00  0.00    +0.000 A 
ATOM     11  C   UNL     1      -0.876  13.320  22.711  0.00  0.00    +0.000 A 
ATOM     12  C   UNL     1      -1.574  13.998  23.752  0.00  0.00    +0.000 A 
ATOM     13  C   UNL     1      -2.927  13.747  23.713  0.00  0.00    +0.000 A 
ATOM     14  S   UNL     1      -3.354  12.733  22.402  0.00  0.00    +0.000 S 
ENDBRANCH   6  10
BRANCH   1  16
ATOM     15  C   UNL     1       2.620   7.463  18.558  0.00  0.00    +0.000 C 
ATOM     16  C   UNL     1       2.285   7.383  19.854  0.00  0.00    +0.000 C 
BRANCH  15  20
ATOM     17  C   UNL     1       5.108   4.610  16.527  0.00  0.00    +0.000 A 
ATOM     18  C   UNL     1       5.225   5.988  16.293  0.00  0.00    +0.000 A 
ATOM     19  C   UNL     1       4.414   6.905  16.963  0.00  0.00    +0.000 A 
ATOM     20  C   UNL     1       3.430   6.465  17.851  0.00  0.00    +0.000 A 
ATOM     21  C   UNL     1       3.289   5.087  18.052  0.00  0.00    +0.000 A 
ATOM     22  C   UNL     1       4.100   4.151  17.388  0.00  0.00    +0.000 A 
BRANCH  17  24
ATOM     23  C   UNL     1       6.211   3.940  14.537  0.00  0.00    +0.000 C 
ATOM     24  O   UNL     1       5.938   3.710  15.918  0.00  0.00    +0.000 OA
ENDBRANCH  17  24
BRANCH  22  25
ATOM     25  O   UNL     1       3.777   2.866  17.736  0.00  0.00    +0.000 OA
ATOM     26  C   UNL     1       2.417   2.463  17.719  0.00  0.00    +0.000 C 
ENDBRANCH  22  25
ENDBRANCH  15  20
ENDBRANCH   1  16
TORSDOF 5
ENDMDL
MODEL 9
REMARK VINA RESULT:      -7.1      7.502     10.405
REMARK  Name = 
REMARK  7 active torsions:
REMARK  status: ('A' for Active; 'I' for Inactive)
REMARK    1  A    between atoms: C_1  and  O_2
REMARK    2  A    between atoms: O_2  and  C_3
REMARK    3  A    between atoms: C_6  and  C_7
REMARK    4  A    between atoms: C_8  and  C_9
REMARK    5  A    between atoms: C_14  and  C_15
REMARK    6  A    between atoms: C_23  and  O_24
REMARK    7  A    between atoms: O_24  and  C_25
REMARK                            x       y       z     vdW  Elec       q    Type
REMARK                         _______ _______ _______ _____ _____    ______ ____
ROOT
ATOM      1  C   UNL     1       7.776   7.704  18.031  0.00  0.00    +0.000 C 
ATOM      2  O   UNL     1       7.831   7.039  19.057  0.00  0.00    +0.000 OA
ATOM      3  N   UNL     1       7.019   7.452  16.914  0.00  0.00    +0.000 N 
ATOM      4  C   UNL     1       6.150   6.397  16.873  0.00  0.00    +0.000 A 
ATOM      5  N   UNL     1       5.765   5.573  17.810  0.00  0.00    +0.000 NA
ATOM      6  C   UNL     1       4.895   4.641  17.247  0.00  0.00    +0.000 A 
ATOM      7  N   UNL     1       4.602   4.737  15.943  0.00  0.00    +0.000 NA
ATOM      8  S   UNL     1       5.420   6.071  15.365  0.00  0.00    +0.000 S 
ATOM      9  H   UNL     1       7.113   8.002  16.077  0.00  0.00    +0.000 HD
ENDROOT
BRANCH   6  10
ATOM     10  C   UNL     1       4.313   3.555  18.110  0.00  0.00    +0.000 A 
ATOM     11  C   UNL     1       4.768   3.267  19.382  0.00  0.00    +0.000 A 
ATOM     12  C   UNL     1       4.051   2.187  19.976  0.00  0.00    +0.000 A 
ATOM     13  C   UNL     1       3.090   1.681  19.131  0.00  0.00    +0.000 A 
ATOM     14  S   UNL     1       3.028   2.532  17.647  0.00  0.00    +0.000 S 
ENDBRANCH   6  10
BRANCH   1  16
ATOM     15  C   UNL     1       8.960   9.636  18.951  0.00  0.00    +0.000 C 
ATOM     16  C   UNL     1       8.602   8.936  17.865  0.00  0.00    +0.000 C 
BRANCH  15  20
ATOM     17  C   UNL     1      11.091  13.359  18.721  0.00  0.00    +0.000 A 
ATOM     18  C   UNL     1      10.992  12.498  17.619  0.00  0.00    +0.000 A 
ATOM     19  C   UNL     1      10.292  11.294  17.704  0.00  0.00    +0.000 A 
ATOM     20  C   UNL     1       9.713  10.895  18.911  0.00  0.00    +0.000 A 
ATOM     21  C   UNL     1       9.848  11.738  20.020  0.00  0.00    +0.000 A 
ATOM     22  C   UNL     1      10.545  12.956  19.949  0.00  0.00    +0.000 A 
BRANCH  17  24
ATOM     23  C   UNL     1      11.386  15.370  17.497  0.00  0.00    +0.000 C 
ATOM     24  O   UNL     1      11.724  14.568  18.628  0.00  0.00    +0.000 OA
ENDBRANCH  17  24
BRANCH  22  25
ATOM     25  O   UNL     1      10.552  13.605  21.155  0.00  0.00    +0.000 OA
ATOM     26  C   UNL     1       9.318  13.921  21.780  0.00  0.00    +0.000 C 
ENDBRANCH  22  25
ENDBRANCH  15  20
ENDBRANCH   1  16
TORSDOF 5
ENDMDL
