MODEL 1
REMARK VINA RESULT:      -8.1      0.000      0.000
REMARK  Name = 
REMARK  5 active torsions:
REMARK  status: ('A' for Active; 'I' for Inactive)
REMARK    1  A    between atoms: C_1  and  C_2
REMARK    2  A    between atoms: C_2  and  C_4
REMARK    3  A    between atoms: C_10  and  N_11
REMARK    4  A    between atoms: C_14  and  C_15
REMARK    5  A    between atoms: C_15  and  C_16
REMARK                            x       y       z     vdW  Elec       q    Type
REMARK                         _______ _______ _______ _____ _____    ______ ____
ROOT
ATOM      1  N   UNL     1       4.608   4.977  18.385  0.00  0.00    +0.000 N 
ATOM      2  C   UNL     1       6.022   4.997  18.779  0.00  0.00    +0.000 C 
ATOM      3  C   UNL     1       6.731   6.133  18.048  0.00  0.00    +0.000 C 
ATOM      4  C   UNL     1       6.582   6.029  16.522  0.00  0.00    +0.000 C 
ATOM      5  C   UNL     1       5.083   5.921  16.169  0.00  0.00    +0.000 C 
ATOM      6  C   UNL     1       4.359   4.813  16.951  0.00  0.00    +0.000 C 
ENDROOT
BRANCH   1  13
ATOM      7  C   UNL     1       3.334   3.508  19.959  0.00  0.00    +0.000 A 
ATOM      8  C   UNL     1       2.229   3.388  20.819  0.00  0.00    +0.000 A 
ATOM      9  F   UNL     1       1.887   2.210  21.353  0.00  0.00    +0.000 F 
ATOM     10  C   UNL     1       1.405   4.464  21.121  0.00  0.00    +0.000 A 
ATOM     11  C   UNL     1       1.687   5.702  20.570  0.00  0.00    +0.000 A 
ATOM     12  C   UNL     1       2.778   5.838  19.708  0.00  0.00    +0.000 A 
ATOM     13  C   UNL     1       3.619   4.756  19.342  0.00  0.00    +0.000 A 
BRANCH   7  15
ATOM     14  C   UNL     1       3.636   1.429  18.459  0.00  0.00    +0.000 C 
ATOM     15  C   UNL     1       4.068   2.241  19.662  0.00  0.00    +0.000 C 
ATOM     16  O   UNL     1       5.007   1.867  20.361  0.00  0.00    +0.000 OA
ENDBRANCH   7  15
ENDBRANCH   1  13
BRANCH   4  17
ATOM     17  C   UNL     1       7.373   4.855  15.904  0.00  0.00    +0.000 C 
BRANCH  17  18
ATOM     18  C   UNL     1       7.131   4.617  14.437  0.00  0.00    +0.000 A 
ATOM     19  C   UNL     1       6.221   3.659  13.982  0.00  0.00    +0.000 A 
ATOM     20  C   UNL     1       6.069   3.446  12.614  0.00  0.00    +0.000 A 
ATOM     21  C   UNL     1       6.835   4.201  11.742  0.00  0.00    +0.000 A 
ATOM     22  N   UNL     1       7.717   5.140  12.140  0.00  0.00    +0.000 NA
ATOM     23  C   UNL     1       7.847   5.323  13.473  0.00  0.00    +0.000 A 
ENDBRANCH  17  18
ENDBRANCH   4  17
TORSDOF 4
ENDMDL
MODEL 2
REMARK VINA RESULT:      -7.8      0.618      1.021
REMARK  Name = 
REMARK  5 active torsions:
REMARK  status: ('A' for Active; 'I' for Inactive)
REMARK    1  A    between atoms: C_1  and  C_2
REMARK    2  A    between atoms: C_2  and  C_4
REMARK    3  A    between atoms: C_10  and  N_11
REMARK    4  A    between atoms: C_14  and  C_15
REMARK    5  A    between atoms: C_15  and  C_16
REMARK                            x       y       z     vdW  Elec       q    Type
REMARK                         _______ _______ _______ _____ _____    ______ ____
ROOT
ATOM      1  N   UNL     1       4.644   5.158  18.320  0.00  0.00    +0.000 N 
ATOM      2  C   UNL     1       6.054   5.176  18.728  0.00  0.00    +0.000 C 
ATOM      3  C   UNL     1       6.783   6.280  17.967  0.00  0.00    +0.000 C 
ATOM      4  C   UNL     1       6.649   6.127  16.445  0.00  0.00    +0.000 C 
ATOM      5  C   UNL     1       5.153   6.023  16.079  0.00  0.00    +0.000 C 
ATOM      6  C   UNL     1       4.408   4.950  16.889  0.00  0.00    +0.000 C 
ENDROOT
BRANCH   1  13
ATOM      7  C   UNL     1       3.312   3.747  19.898  0.00  0.00    +0.000 A 
ATOM      8  C   UNL     1       2.197   3.673  20.752  0.00  0.00    +0.000 A 
ATOM      9  F   UNL     1       1.812   2.512  21.294  0.00  0.00    +0.000 F 
ATOM     10  C   UNL     1       1.411   4.780  21.042  0.00  0.00    +0.000 A 
ATOM     11  C   UNL     1       1.739   6.003  20.483  0.00  0.00    +0.000 A 
ATOM     12  C   UNL     1       2.839   6.093  19.626  0.00  0.00    +0.000 A 
ATOM     13  C   UNL     1       3.643   4.979  19.273  0.00  0.00    +0.000 A 
BRANCH   7  15
ATOM     14  C   UNL     1       3.499   1.611  18.461  0.00  0.00    +0.000 C 
ATOM     15  C   UNL     1       4.002   2.453  19.614  0.00  0.00    +0.000 C 
ATOM     16  O   UNL     1       4.961   2.080  20.286  0.00  0.00    +0.000 OA
ENDBRANCH   7  15
ENDBRANCH   1  13
BRANCH   4  17
ATOM     17  C   UNL     1       7.434   4.925  15.873  0.00  0.00    +0.000 C 
BRANCH  17  18
ATOM     18  C   UNL     1       7.208   4.645  14.411  0.00  0.00    +0.000 A 
ATOM     19  C   UNL     1       7.890   5.340  13.409  0.00  0.00    +0.000 A 
ATOM     20  C   UNL     1       7.609   5.075  12.072  0.00  0.00    +0.000 A 
ATOM     21  C   UNL     1       6.652   4.119  11.777  0.00  0.00    +0.000 A 
ATOM     22  N   UNL     1       5.977   3.421  12.713  0.00  0.00    +0.000 NA
ATOM     23  C   UNL     1       6.267   3.701  14.004  0.00  0.00    +0.000 A 
ENDBRANCH  17  18
ENDBRANCH   4  17
TORSDOF 4
ENDMDL
MODEL 3
REMARK VINA RESULT:      -7.7      1.173      1.213
REMARK  Name = 
REMARK  5 active torsions:
REMARK  status: ('A' for Active; 'I' for Inactive)
REMARK    1  A    between atoms: C_1  and  C_2
REMARK    2  A    between atoms: C_2  and  C_4
REMARK    3  A    between atoms: C_10  and  N_11
REMARK    4  A    between atoms: C_14  and  C_15
REMARK    5  A    between atoms: C_15  and  C_16
REMARK                            x       y       z     vdW  Elec       q    Type
REMARK                         _______ _______ _______ _____ _____    ______ ____
ROOT
ATOM      1  N   UNL     1       4.389   4.989  18.233  0.00  0.00    +0.000 N 
ATOM      2  C   UNL     1       5.732   4.768  18.782  0.00  0.00    +0.000 C 
ATOM      3  C   UNL     1       6.663   5.872  18.290  0.00  0.00    +0.000 C 
ATOM      4  C   UNL     1       6.699   5.968  16.758  0.00  0.00    +0.000 C 
ATOM      5  C   UNL     1       5.256   6.110  16.229  0.00  0.00    +0.000 C 
ATOM      6  C   UNL     1       4.307   5.030  16.771  0.00  0.00    +0.000 C 
ENDROOT
BRANCH   1  13
ATOM      7  C   UNL     1       2.447   3.635  19.042  0.00  0.00    +0.000 A 
ATOM      8  C   UNL     1       1.269   3.614  19.809  0.00  0.00    +0.000 A 
ATOM      9  F   UNL     1       0.436   2.568  19.776  0.00  0.00    +0.000 F 
ATOM     10  C   UNL     1       0.880   4.687  20.600  0.00  0.00    +0.000 A 
ATOM     11  C   UNL     1       1.684   5.813  20.649  0.00  0.00    +0.000 A 
ATOM     12  C   UNL     1       2.854   5.854  19.887  0.00  0.00    +0.000 A 
ATOM     13  C   UNL     1       3.266   4.797  19.036  0.00  0.00    +0.000 A 
BRANCH   7  15
ATOM     14  C   UNL     1       3.653   1.386  18.655  0.00  0.00    +0.000 C 
ATOM     15  C   UNL     1       2.681   2.442  18.174  0.00  0.00    +0.000 C 
ATOM     16  O   UNL     1       2.094   2.308  17.103  0.00  0.00    +0.000 OA
ENDBRANCH   7  15
ENDBRANCH   1  13
BRANCH   4  17
ATOM     17  C   UNL     1       7.413   4.776  16.081  0.00  0.00    +0.000 C 
BRANCH  17  18
ATOM     18  C   UNL     1       7.211   4.666  14.593  0.00  0.00    +0.000 A 
ATOM     19  C   UNL     1       6.346   3.725  14.030  0.00  0.00    +0.000 A 
ATOM     20  C   UNL     1       6.232   3.633  12.645  0.00  0.00    +0.000 A 
ATOM     21  C   UNL     1       6.990   4.489  11.864  0.00  0.00    +0.000 A 
ATOM     22  N   UNL     1       7.830   5.416  12.368  0.00  0.00    +0.000 NA
ATOM     23  C   UNL     1       7.924   5.481  13.715  0.00  0.00    +0.000 A 
ENDBRANCH  17  18
ENDBRANCH   4  17
TORSDOF 4
ENDMDL
MODEL 4
REMARK VINA RESULT:      -7.5      1.283      1.553
REMARK  Name = 
REMARK  5 active torsions:
REMARK  status: ('A' for Active; 'I' for Inactive)
REMARK    1  A    between atoms: C_1  and  C_2
REMARK    2  A    between atoms: C_2  and  C_4
REMARK    3  A    between atoms: C_10  and  N_11
REMARK    4  A    between atoms: C_14  and  C_15
REMARK    5  A    between atoms: C_15  and  C_16
REMARK                            x       y       z     vdW  Elec       q    Type
REMARK                         _______ _______ _______ _____ _____    ______ ____
ROOT
ATOM      1  N   UNL     1       4.382   4.992  18.176  0.00  0.00    +0.000 N 
ATOM      2  C   UNL     1       5.738   4.849  18.719  0.00  0.00    +0.000 C 
ATOM      3  C   UNL     1       6.623   5.958  18.160  0.00  0.00    +0.000 C 
ATOM      4  C   UNL     1       6.641   5.975  16.624  0.00  0.00    +0.000 C 
ATOM      5  C   UNL     1       5.189   6.037  16.105  0.00  0.00    +0.000 C 
ATOM      6  C   UNL     1       4.285   4.953  16.714  0.00  0.00    +0.000 C 
ENDROOT
BRANCH   1  13
ATOM      7  C   UNL     1       2.468   3.633  19.039  0.00  0.00    +0.000 A 
ATOM      8  C   UNL     1       1.303   3.612  19.826  0.00  0.00    +0.000 A 
ATOM      9  F   UNL     1       0.480   2.558  19.823  0.00  0.00    +0.000 F 
ATOM     10  C   UNL     1       0.917   4.694  20.607  0.00  0.00    +0.000 A 
ATOM     11  C   UNL     1       1.710   5.828  20.624  0.00  0.00    +0.000 A 
ATOM     12  C   UNL     1       2.867   5.868  19.842  0.00  0.00    +0.000 A 
ATOM     13  C   UNL     1       3.275   4.801  19.001  0.00  0.00    +0.000 A 
BRANCH   7  15
ATOM     14  C   UNL     1       3.705   1.400  18.656  0.00  0.00    +0.000 C 
ATOM     15  C   UNL     1       2.699   2.428  18.185  0.00  0.00    +0.000 C 
ATOM     16  O   UNL     1       2.083   2.263  17.135  0.00  0.00    +0.000 OA
ENDBRANCH   7  15
ENDBRANCH   1  13
BRANCH   4  17
ATOM     17  C   UNL     1       7.391   4.776  16.003  0.00  0.00    +0.000 C 
BRANCH  17  18
ATOM     18  C   UNL     1       7.206   4.600  14.519  0.00  0.00    +0.000 A 
ATOM     19  C   UNL     1       7.888   5.387  13.588  0.00  0.00    +0.000 A 
ATOM     20  C   UNL     1       7.645   5.215  12.228  0.00  0.00    +0.000 A 
ATOM     21  C   UNL     1       6.723   4.257  11.840  0.00  0.00    +0.000 A 
ATOM     22  N   UNL     1       6.050   3.472  12.706  0.00  0.00    +0.000 NA
ATOM     23  C   UNL     1       6.303   3.663  14.020  0.00  0.00    +0.000 A 
ENDBRANCH  17  18
ENDBRANCH   4  17
TORSDOF 4
ENDMDL
MODEL 5
REMARK VINA RESULT:      -7.1      1.358      1.981
REMARK  Name = 
REMARK  5 active torsions:
REMARK  status: ('A' for Active; 'I' for Inactive)
REMARK    1  A    between atoms: C_1  and  C_2
REMARK    2  A    between atoms: C_2  and  C_4
REMARK    3  A    between atoms: C_10  and  N_11
REMARK    4  A    between atoms: C_14  and  C_15
REMARK    5  A    between atoms: C_15  and  C_16
REMARK                            x       y       z     vdW  Elec       q    Type
REMARK                         _______ _______ _______ _____ _____    ______ ____
ROOT
ATOM      1  N   UNL     1       4.704   5.192  17.372  0.00  0.00    +0.000 N 
ATOM      2  C   UNL     1       4.368   4.181  16.363  0.00  0.00    +0.000 C 
ATOM      3  C   UNL     1       5.627   3.405  15.990  0.00  0.00    +0.000 C 
ATOM      4  C   UNL     1       6.756   4.324  15.500  0.00  0.00    +0.000 C 
ATOM      5  C   UNL     1       7.009   5.419  16.557  0.00  0.00    +0.000 C 
ATOM      6  C   UNL     1       5.728   6.160  16.973  0.00  0.00    +0.000 C 
ENDROOT
BRANCH   1  13
ATOM      7  C   UNL     1       3.525   4.464  19.456  0.00  0.00    +0.000 A 
ATOM      8  C   UNL     1       2.551   4.772  20.421  0.00  0.00    +0.000 A 
ATOM      9  F   UNL     1       2.168   3.871  21.334  0.00  0.00    +0.000 F 
ATOM     10  C   UNL     1       1.900   5.998  20.454  0.00  0.00    +0.000 A 
ATOM     11  C   UNL     1       2.229   6.958  19.513  0.00  0.00    +0.000 A 
ATOM     12  C   UNL     1       3.190   6.668  18.542  0.00  0.00    +0.000 A 
ATOM     13  C   UNL     1       3.848   5.415  18.449  0.00  0.00    +0.000 A 
BRANCH   7  15
ATOM     14  C   UNL     1       3.214   1.954  18.941  0.00  0.00    +0.000 C 
ATOM     15  C   UNL     1       4.068   3.073  19.497  0.00  0.00    +0.000 C 
ATOM     16  O   UNL     1       5.183   2.836  19.957  0.00  0.00    +0.000 OA
ENDBRANCH   7  15
ENDBRANCH   1  13
BRANCH   4  17
ATOM     17  C   UNL     1       6.483   4.955  14.116  0.00  0.00    +0.000 C 
BRANCH  17  18
ATOM     18  C   UNL     1       6.134   3.981  13.022  0.00  0.00    +0.000 A 
ATOM     19  C   UNL     1       4.820   3.798  12.583  0.00  0.00    +0.000 A 
ATOM     20  C   UNL     1       4.546   2.850  11.601  0.00  0.00    +0.000 A 
ATOM     21  C   UNL     1       5.599   2.112  11.087  0.00  0.00    +0.000 A 
ATOM     22  N   UNL     1       6.881   2.263  11.477  0.00  0.00    +0.000 NA
ATOM     23  C   UNL     1       7.118   3.188  12.435  0.00  0.00    +0.000 A 
ENDBRANCH  17  18
ENDBRANCH   4  17
TORSDOF 4
ENDMDL
MODEL 6
REMARK VINA RESULT:      -7.0      0.893      1.439
REMARK  Name = 
REMARK  5 active torsions:
REMARK  status: ('A' for Active; 'I' for Inactive)
REMARK    1  A    between atoms: C_1  and  C_2
REMARK    2  A    between atoms: C_2  and  C_4
REMARK    3  A    between atoms: C_10  and  N_11
REMARK    4  A    between atoms: C_14  and  C_15
REMARK    5  A    between atoms: C_15  and  C_16
REMARK                            x       y       z     vdW  Elec       q    Type
REMARK                         _______ _______ _______ _____ _____    ______ ____
ROOT
ATOM      1  N   UNL     1       4.560   5.167  18.282  0.00  0.00    +0.000 N 
ATOM      2  C   UNL     1       4.261   4.601  16.961  0.00  0.00    +0.000 C 
ATOM      3  C   UNL     1       5.373   3.634  16.566  0.00  0.00    +0.000 C 
ATOM      4  C   UNL     1       6.759   4.297  16.584  0.00  0.00    +0.000 C 
ATOM      5  C   UNL     1       6.985   4.952  17.963  0.00  0.00    +0.000 C 
ATOM      6  C   UNL     1       5.836   5.881  18.384  0.00  0.00    +0.000 C 
ENDROOT
BRANCH   1  13
ATOM      7  C   UNL     1       2.934   4.270  19.958  0.00  0.00    +0.000 A 
ATOM      8  C   UNL     1       1.832   4.542  20.786  0.00  0.00    +0.000 A 
ATOM      9  F   UNL     1       1.187   3.563  21.431  0.00  0.00    +0.000 F 
ATOM     10  C   UNL     1       1.322   5.824  20.944  0.00  0.00    +0.000 A 
ATOM     11  C   UNL     1       1.925   6.875  20.275  0.00  0.00    +0.000 A 
ATOM     12  C   UNL     1       3.017   6.621  19.441  0.00  0.00    +0.000 A 
ATOM     13  C   UNL     1       3.543   5.322  19.222  0.00  0.00    +0.000 A 
BRANCH   7  15
ATOM     14  C   UNL     1       2.447   1.948  18.941  0.00  0.00    +0.000 C 
ATOM     15  C   UNL     1       3.307   2.829  19.822  0.00  0.00    +0.000 C 
ATOM     16  O   UNL     1       4.291   2.368  20.395  0.00  0.00    +0.000 OA
ENDBRANCH   7  15
ENDBRANCH   1  13
BRANCH   4  17
ATOM     17  C   UNL     1       6.965   5.327  15.451  0.00  0.00    +0.000 C 
BRANCH  17  18
ATOM     18  C   UNL     1       6.867   4.775  14.053  0.00  0.00    +0.000 A 
ATOM     19  C   UNL     1       5.919   3.811  13.702  0.00  0.00    +0.000 A 
ATOM     20  C   UNL     1       5.902   3.299  12.407  0.00  0.00    +0.000 A 
ATOM     21  C   UNL     1       6.837   3.770  11.501  0.00  0.00    +0.000 A 
ATOM     22  N   UNL     1       7.762   4.706  11.798  0.00  0.00    +0.000 NA
ATOM     23  C   UNL     1       7.758   5.182  13.063  0.00  0.00    +0.000 A 
ENDBRANCH  17  18
ENDBRANCH   4  17
TORSDOF 4
ENDMDL
MODEL 7
REMARK VINA RESULT:      -6.9      0.907      1.631
REMARK  Name = 
REMARK  5 active torsions:
REMARK  status: ('A' for Active; 'I' for Inactive)
REMARK    1  A    between atoms: C_1  and  C_2
REMARK    2  A    between atoms: C_2  and  C_4
REMARK    3  A    between atoms: C_10  and  N_11
REMARK    4  A    between atoms: C_14  and  C_15
REMARK    5  A    between atoms: C_15  and  C_16
REMARK                            x       y       z     vdW  Elec       q    Type
REMARK                         _______ _______ _______ _____ _____    ______ ____
ROOT
ATOM      1  N   UNL     1       4.764   4.920  18.241  0.00  0.00    +0.000 N 
ATOM      2  C   UNL     1       4.508   4.357  16.910  0.00  0.00    +0.000 C 
ATOM      3  C   UNL     1       5.706   3.515  16.482  0.00  0.00    +0.000 C 
ATOM      4  C   UNL     1       7.019   4.312  16.503  0.00  0.00    +0.000 C 
ATOM      5  C   UNL     1       7.195   4.954  17.895  0.00  0.00    +0.000 C 
ATOM      6  C   UNL     1       5.963   5.755  18.349  0.00  0.00    +0.000 C 
ENDROOT
BRANCH   1  13
ATOM      7  C   UNL     1       3.298   3.840  19.956  0.00  0.00    +0.000 A 
ATOM      8  C   UNL     1       2.179   3.974  20.796  0.00  0.00    +0.000 A 
ATOM      9  F   UNL     1       1.684   2.928  21.467  0.00  0.00    +0.000 F 
ATOM     10  C   UNL     1       1.500   5.176  20.940  0.00  0.00    +0.000 A 
ATOM     11  C   UNL     1       1.944   6.287  20.244  0.00  0.00    +0.000 A 
ATOM     12  C   UNL     1       3.050   6.170  19.398  0.00  0.00    +0.000 A 
ATOM     13  C   UNL     1       3.747   4.951  19.193  0.00  0.00    +0.000 A 
BRANCH   7  15
ATOM     14  C   UNL     1       3.294   1.541  18.781  0.00  0.00    +0.000 C 
ATOM     15  C   UNL     1       3.864   2.462  19.839  0.00  0.00    +0.000 C 
ATOM     16  O   UNL     1       4.776   2.082  20.570  0.00  0.00    +0.000 OA
ENDBRANCH   7  15
ENDBRANCH   1  13
BRANCH   4  17
ATOM     17  C   UNL     1       7.109   5.383  15.393  0.00  0.00    +0.000 C 
BRANCH  17  18
ATOM     18  C   UNL     1       7.057   4.855  13.984  0.00  0.00    +0.000 A 
ATOM     19  C   UNL     1       7.840   5.396  12.961  0.00  0.00    +0.000 A 
ATOM     20  C   UNL     1       7.719   4.903  11.665  0.00  0.00    +0.000 A 
ATOM     21  C   UNL     1       6.815   3.880  11.432  0.00  0.00    +0.000 A 
ATOM     22  N   UNL     1       6.048   3.325  12.392  0.00  0.00    +0.000 NA
ATOM     23  C   UNL     1       6.183   3.826  13.640  0.00  0.00    +0.000 A 
ENDBRANCH  17  18
ENDBRANCH   4  17
TORSDOF 4
ENDMDL
MODEL 8
REMARK VINA RESULT:      -6.9      1.373      1.974
REMARK  Name = 
REMARK  5 active torsions:
REMARK  status: ('A' for Active; 'I' for Inactive)
REMARK    1  A    between atoms: C_1  and  C_2
REMARK    2  A    between atoms: C_2  and  C_4
REMARK    3  A    between atoms: C_10  and  N_11
REMARK    4  A    between atoms: C_14  and  C_15
REMARK    5  A    between atoms: C_15  and  C_16
REMARK                            x       y       z     vdW  Elec       q    Type
REMARK                         _______ _______ _______ _____ _____    ______ ____
ROOT
ATOM      1  N   UNL     1       4.696   5.153  17.524  0.00  0.00    +0.000 N 
ATOM      2  C   UNL     1       4.437   4.120  16.514  0.00  0.00    +0.000 C 
ATOM      3  C   UNL     1       5.750   3.435  16.148  0.00  0.00    +0.000 C 
ATOM      4  C   UNL     1       6.814   4.430  15.663  0.00  0.00    +0.000 C 
ATOM      5  C   UNL     1       6.983   5.542  16.720  0.00  0.00    +0.000 C 
ATOM      6  C   UNL     1       5.651   6.191  17.128  0.00  0.00    +0.000 C 
ENDROOT
BRANCH   1  13
ATOM      7  C   UNL     1       3.473   4.308  19.536  0.00  0.00    +0.000 A 
ATOM      8  C   UNL     1       2.482   4.563  20.500  0.00  0.00    +0.000 A 
ATOM      9  F   UNL     1       2.076   3.611  21.348  0.00  0.00    +0.000 F 
ATOM     10  C   UNL     1       1.838   5.789  20.595  0.00  0.00    +0.000 A 
ATOM     11  C   UNL     1       2.191   6.803  19.722  0.00  0.00    +0.000 A 
ATOM     12  C   UNL     1       3.168   6.565  18.752  0.00  0.00    +0.000 A 
ATOM     13  C   UNL     1       3.821   5.316  18.596  0.00  0.00    +0.000 A 
BRANCH   7  15
ATOM     14  C   UNL     1       3.179   1.846  18.819  0.00  0.00    +0.000 C 
ATOM     15  C   UNL     1       4.007   2.913  19.502  0.00  0.00    +0.000 C 
ATOM     16  O   UNL     1       5.094   2.633  20.003  0.00  0.00    +0.000 OA
ENDBRANCH   7  15
ENDBRANCH   1  13
BRANCH   4  17
ATOM     17  C   UNL     1       6.504   5.039  14.277  0.00  0.00    +0.000 C 
BRANCH  17  18
ATOM     18  C   UNL     1       6.172   4.044  13.197  0.00  0.00    +0.000 A 
ATOM     19  C   UNL     1       7.161   3.317  12.530  0.00  0.00    +0.000 A 
ATOM     20  C   UNL     1       6.804   2.445  11.505  0.00  0.00    +0.000 A 
ATOM     21  C   UNL     1       5.463   2.326  11.179  0.00  0.00    +0.000 A 
ATOM     22  N   UNL     1       4.478   3.003  11.803  0.00  0.00    +0.000 NA
ATOM     23  C   UNL     1       4.853   3.846  12.791  0.00  0.00    +0.000 A 
ENDBRANCH  17  18
ENDBRANCH   4  17
TORSDOF 4
ENDMDL
MODEL 9
REMARK VINA RESULT:      -6.8      1.622      2.264
REMARK  Name = 
REMARK  5 active torsions:
REMARK  status: ('A' for Active; 'I' for Inactive)
REMARK    1  A    between atoms: C_1  and  C_2
REMARK    2  A    between atoms: C_2  and  C_4
REMARK    3  A    between atoms: C_10  and  N_11
REMARK    4  A    between atoms: C_14  and  C_15
REMARK    5  A    between atoms: C_15  and  C_16
REMARK                            x       y       z     vdW  Elec       q    Type
REMARK                         _______ _______ _______ _____ _____    ______ ____
ROOT
ATOM      1  N   UNL     1       4.630   4.178  18.213  0.00  0.00    +0.000 N 
ATOM      2  C   UNL     1       6.000   4.464  18.651  0.00  0.00    +0.000 C 
ATOM      3  C   UNL     1       6.462   5.780  18.033  0.00  0.00    +0.000 C 
ATOM      4  C   UNL     1       6.360   5.773  16.500  0.00  0.00    +0.000 C 
ATOM      5  C   UNL     1       4.924   5.380  16.093  0.00  0.00    +0.000 C 
ATOM      6  C   UNL     1       4.442   4.084  16.763  0.00  0.00    +0.000 C 
ENDROOT
BRANCH   1  13
ATOM      7  C   UNL     1       2.309   3.982  19.128  0.00  0.00    +0.000 A 
ATOM      8  C   UNL     1       1.495   3.507  20.170  0.00  0.00    +0.000 A 
ATOM      9  F   UNL     1       0.202   3.842  20.251  0.00  0.00    +0.000 F 
ATOM     10  C   UNL     1       1.990   2.710  21.194  0.00  0.00    +0.000 A 
ATOM     11  C   UNL     1       3.329   2.357  21.183  0.00  0.00    +0.000 A 
ATOM     12  C   UNL     1       4.155   2.827  20.159  0.00  0.00    +0.000 A 
ATOM     13  C   UNL     1       3.697   3.675  19.118  0.00  0.00    +0.000 A 
BRANCH   7  15
ATOM     14  C   UNL     1       1.911   6.387  18.279  0.00  0.00    +0.000 C 
ATOM     15  C   UNL     1       1.650   4.901  18.152  0.00  0.00    +0.000 C 
ATOM     16  O   UNL     1       0.923   4.470  17.260  0.00  0.00    +0.000 OA
ENDBRANCH   7  15
ENDBRANCH   1  13
BRANCH   4  17
ATOM     17  C   UNL     1       7.392   4.848  15.817  0.00  0.00    +0.000 C 
BRANCH  17  18
ATOM     18  C   UNL     1       7.181   4.624  14.344  0.00  0.00    +0.000 A 
ATOM     19  C   UNL     1       6.319   3.637  13.860  0.00  0.00    +0.000 A 
ATOM     20  C   UNL     1       6.196   3.439  12.487  0.00  0.00    +0.000 A 
ATOM     21  C   UNL     1       6.941   4.240  11.638  0.00  0.00    +0.000 A 
ATOM     22  N   UNL     1       7.778   5.208  12.064  0.00  0.00    +0.000 NA
ATOM     23  C   UNL     1       7.881   5.375  13.401  0.00  0.00    +0.000 A 
ENDBRANCH  17  18
ENDBRANCH   4  17
TORSDOF 4
ENDMDL
