MODEL 1
REMARK VINA RESULT:      -7.7      0.000      0.000
REMARK  Name = 
REMARK  8 active torsions:
REMARK  status: ('A' for Active; 'I' for Inactive)
REMARK    1  A    between atoms: C_2  and  C_3
REMARK    2  A    between atoms: C_3  and  N_4
REMARK    3  A    between atoms: N_4  and  C_5
REMARK    4  A    between atoms: C_9  and  N_10
REMARK    5  A    between atoms: N_14  and  C_15
REMARK    6  A    between atoms: C_15  and  C_16
REMARK    7  A    between atoms: C_16  and  C_17
REMARK    8  A    between atoms: C_17  and  C_18
REMARK                            x       y       z     vdW  Elec       q    Type
REMARK                         _______ _______ _______ _____ _____    ______ ____
ROOT
ATOM      1  O   UNL     1       7.498   5.596  16.891  0.00  0.00    +0.000 OA
ATOM      2  C   UNL     1       6.676   6.511  16.885  0.00  0.00    +0.000 C 
ATOM      3  N   UNL     1       6.945   7.775  17.372  0.00  0.00    +0.000 N 
ATOM      4  H   UNL     1       6.204   8.465  17.377  0.00  0.00    +0.000 HD
ENDROOT
BRANCH   2   5
ATOM      5  C   UNL     1       5.251   6.325  16.351  0.00  0.00    +0.000 C 
BRANCH   5   6
ATOM      6  N   UNL     1       4.270   6.771  17.346  0.00  0.00    +0.000 N 
ATOM      7  H   UNL     1       4.491   7.694  17.720  0.00  0.00    +0.000 HD
BRANCH   6   8
ATOM      8  C   UNL     1       3.826   5.891  18.336  0.00  0.00    +0.000 A 
ATOM      9  C   UNL     1       2.812   6.325  19.206  0.00  0.00    +0.000 A 
ATOM     10  C   UNL     1       2.233   5.468  20.151  0.00  0.00    +0.000 A 
ATOM     11  C   UNL     1       2.656   4.144  20.241  0.00  0.00    +0.000 A 
ATOM     12  C   UNL     1       3.658   3.694  19.376  0.00  0.00    +0.000 A 
ATOM     13  C   UNL     1       4.230   4.554  18.424  0.00  0.00    +0.000 A 
BRANCH  12  14
ATOM     14  N   UNL     1       4.112   2.302  19.451  0.00  0.00    +0.000 N 
ATOM     15  O   UNL     1       4.913   2.002  20.349  0.00  0.00    +0.000 OA
ATOM     16  O   UNL     1       3.672   1.502  18.613  0.00  0.00    +0.000 OA
ENDBRANCH  12  14
ENDBRANCH   6   8
ENDBRANCH   5   6
ENDBRANCH   2   5
BRANCH   3  17
ATOM     17  C   UNL     1       8.270   8.164  17.818  0.00  0.00    +0.000 C 
BRANCH  17  18
ATOM     18  C   UNL     1       8.344   9.668  18.062  0.00  0.00    +0.000 C 
BRANCH  18  19
ATOM     19  C   UNL     1       9.110  10.007  19.344  0.00  0.00    +0.000 C 
BRANCH  19  20
ATOM     20  C   UNL     1      10.132  11.082  19.062  0.00  0.00    +0.000 A 
ATOM     21  C   UNL     1      10.334  11.547  17.755  0.00  0.00    +0.000 A 
ATOM     22  C   UNL     1      11.362  12.450  17.480  0.00  0.00    +0.000 A 
ATOM     23  C   UNL     1      12.193  12.898  18.505  0.00  0.00    +0.000 A 
ATOM     24  C   UNL     1      11.986  12.459  19.811  0.00  0.00    +0.000 A 
ATOM     25  C   UNL     1      10.958  11.556  20.090  0.00  0.00    +0.000 A 
ENDBRANCH  19  20
ENDBRANCH  18  19
ENDBRANCH  17  18
ENDBRANCH   3  17
TORSDOF 8
ENDMDL
MODEL 2
REMARK VINA RESULT:      -7.6      2.194      2.807
REMARK  Name = 
REMARK  8 active torsions:
REMARK  status: ('A' for Active; 'I' for Inactive)
REMARK    1  A    between atoms: C_2  and  C_3
REMARK    2  A    between atoms: C_3  and  N_4
REMARK    3  A    between atoms: N_4  and  C_5
REMARK    4  A    between atoms: C_9  and  N_10
REMARK    5  A    between atoms: N_14  and  C_15
REMARK    6  A    between atoms: C_15  and  C_16
REMARK    7  A    between atoms: C_16  and  C_17
REMARK    8  A    between atoms: C_17  and  C_18
REMARK                            x       y       z     vdW  Elec       q    Type
REMARK                         _______ _______ _______ _____ _____    ______ ____
ROOT
ATOM      1  O   UNL     1       7.536   5.839  15.519  0.00  0.00    +0.000 OA
ATOM      2  C   UNL     1       7.197   5.666  16.688  0.00  0.00    +0.000 C 
ATOM      3  N   UNL     1       7.205   6.670  17.636  0.00  0.00    +0.000 N 
ATOM      4  H   UNL     1       6.957   6.443  18.591  0.00  0.00    +0.000 HD
ENDROOT
BRANCH   2   5
ATOM      5  C   UNL     1       6.752   4.297  17.214  0.00  0.00    +0.000 C 
BRANCH   5   6
ATOM      6  N   UNL     1       6.423   4.381  18.641  0.00  0.00    +0.000 N 
ATOM      7  H   UNL     1       7.017   3.777  19.211  0.00  0.00    +0.000 HD
BRANCH   6   8
ATOM      8  C   UNL     1       5.089   4.353  19.056  0.00  0.00    +0.000 A 
ATOM      9  C   UNL     1       4.543   3.124  19.462  0.00  0.00    +0.000 A 
ATOM     10  C   UNL     1       3.252   3.030  19.997  0.00  0.00    +0.000 A 
ATOM     11  C   UNL     1       2.475   4.176  20.146  0.00  0.00    +0.000 A 
ATOM     12  C   UNL     1       3.007   5.408  19.755  0.00  0.00    +0.000 A 
ATOM     13  C   UNL     1       4.305   5.499  19.227  0.00  0.00    +0.000 A 
BRANCH  12  14
ATOM     14  N   UNL     1       2.207   6.628  19.910  0.00  0.00    +0.000 N 
ATOM     15  O   UNL     1       2.311   7.502  19.036  0.00  0.00    +0.000 OA
ATOM     16  O   UNL     1       1.472   6.718  20.904  0.00  0.00    +0.000 OA
ENDBRANCH  12  14
ENDBRANCH   6   8
ENDBRANCH   5   6
ENDBRANCH   2   5
BRANCH   3  17
ATOM     17  C   UNL     1       7.496   8.050  17.296  0.00  0.00    +0.000 C 
BRANCH  17  18
ATOM     18  C   UNL     1       8.497   8.655  18.275  0.00  0.00    +0.000 C 
BRANCH  18  19
ATOM     19  C   UNL     1       8.306  10.166  18.435  0.00  0.00    +0.000 C 
BRANCH  19  20
ATOM     20  C   UNL     1       9.612  10.810  18.831  0.00  0.00    +0.000 A 
ATOM     21  C   UNL     1       9.820  11.246  20.147  0.00  0.00    +0.000 A 
ATOM     22  C   UNL     1      10.978  11.951  20.481  0.00  0.00    +0.000 A 
ATOM     23  C   UNL     1      11.937  12.222  19.506  0.00  0.00    +0.000 A 
ATOM     24  C   UNL     1      11.749  11.773  18.201  0.00  0.00    +0.000 A 
ATOM     25  C   UNL     1      10.592  11.068  17.864  0.00  0.00    +0.000 A 
ENDBRANCH  19  20
ENDBRANCH  18  19
ENDBRANCH  17  18
ENDBRANCH   3  17
TORSDOF 8
ENDMDL
MODEL 3
REMARK VINA RESULT:      -7.6      1.776      2.111
REMARK  Name = 
REMARK  8 active torsions:
REMARK  status: ('A' for Active; 'I' for Inactive)
REMARK    1  A    between atoms: C_2  and  C_3
REMARK    2  A    between atoms: C_3  and  N_4
REMARK    3  A    between atoms: N_4  and  C_5
REMARK    4  A    between atoms: C_9  and  N_10
REMARK    5  A    between atoms: N_14  and  C_15
REMARK    6  A    between atoms: C_15  and  C_16
REMARK    7  A    between atoms: C_16  and  C_17
REMARK    8  A    between atoms: C_17  and  C_18
REMARK                            x       y       z     vdW  Elec       q    Type
REMARK                         _______ _______ _______ _____ _____    ______ ____
ROOT
ATOM      1  O   UNL     1       6.132   6.606  16.217  0.00  0.00    +0.000 OA
ATOM      2  C   UNL     1       6.973   6.223  17.029  0.00  0.00    +0.000 C 
ATOM      3  N   UNL     1       7.814   7.079  17.711  0.00  0.00    +0.000 N 
ATOM      4  H   UNL     1       8.513   6.688  18.330  0.00  0.00    +0.000 HD
ENDROOT
BRANCH   2   5
ATOM      5  C   UNL     1       7.184   4.738  17.345  0.00  0.00    +0.000 C 
BRANCH   5   6
ATOM      6  N   UNL     1       6.469   4.370  18.573  0.00  0.00    +0.000 N 
ATOM      7  H   UNL     1       6.983   3.688  19.131  0.00  0.00    +0.000 HD
BRANCH   6   8
ATOM      8  C   UNL     1       5.100   4.094  18.530  0.00  0.00    +0.000 A 
ATOM      9  C   UNL     1       4.531   3.731  17.298  0.00  0.00    +0.000 A 
ATOM     10  C   UNL     1       3.194   3.329  17.191  0.00  0.00    +0.000 A 
ATOM     11  C   UNL     1       2.391   3.274  18.328  0.00  0.00    +0.000 A 
ATOM     12  C   UNL     1       2.944   3.624  19.563  0.00  0.00    +0.000 A 
ATOM     13  C   UNL     1       4.288   4.018  19.667  0.00  0.00    +0.000 A 
BRANCH  12  14
ATOM     14  N   UNL     1       2.117   3.566  20.773  0.00  0.00    +0.000 N 
ATOM     15  O   UNL     1       2.551   2.921  21.740  0.00  0.00    +0.000 OA
ATOM     16  O   UNL     1       1.031   4.163  20.763  0.00  0.00    +0.000 OA
ENDBRANCH  12  14
ENDBRANCH   6   8
ENDBRANCH   5   6
ENDBRANCH   2   5
BRANCH   3  17
ATOM     17  C   UNL     1       7.686   8.522  17.618  0.00  0.00    +0.000 C 
BRANCH  17  18
ATOM     18  C   UNL     1       8.679   9.219  18.543  0.00  0.00    +0.000 C 
BRANCH  18  19
ATOM     19  C   UNL     1       8.448  10.731  18.602  0.00  0.00    +0.000 C 
BRANCH  19  20
ATOM     20  C   UNL     1       9.773  11.452  18.658  0.00  0.00    +0.000 A 
ATOM     21  C   UNL     1      10.198  12.242  17.581  0.00  0.00    +0.000 A 
ATOM     22  C   UNL     1      11.475  12.807  17.583  0.00  0.00    +0.000 A 
ATOM     23  C   UNL     1      12.333  12.592  18.660  0.00  0.00    +0.000 A 
ATOM     24  C   UNL     1      11.911  11.827  19.745  0.00  0.00    +0.000 A 
ATOM     25  C   UNL     1      10.634  11.261  19.746  0.00  0.00    +0.000 A 
ENDBRANCH  19  20
ENDBRANCH  18  19
ENDBRANCH  17  18
ENDBRANCH   3  17
TORSDOF 8
ENDMDL
MODEL 4
REMARK VINA RESULT:      -7.5      1.708      2.098
REMARK  Name = 
REMARK  8 active torsions:
REMARK  status: ('A' for Active; 'I' for Inactive)
REMARK    1  A    between atoms: C_2  and  C_3
REMARK    2  A    between atoms: C_3  and  N_4
REMARK    3  A    between atoms: N_4  and  C_5
REMARK    4  A    between atoms: C_9  and  N_10
REMARK    5  A    between atoms: N_14  and  C_15
REMARK    6  A    between atoms: C_15  and  C_16
REMARK    7  A    between atoms: C_16  and  C_17
REMARK    8  A    between atoms: C_17  and  C_18
REMARK                            x       y       z     vdW  Elec       q    Type
REMARK                         _______ _______ _______ _____ _____    ______ ____
ROOT
ATOM      1  O   UNL     1       6.176   6.355  15.709  0.00  0.00    +0.000 OA
ATOM      2  C   UNL     1       6.836   5.967  16.672  0.00  0.00    +0.000 C 
ATOM      3  N   UNL     1       7.454   6.823  17.562  0.00  0.00    +0.000 N 
ATOM      4  H   UNL     1       8.020   6.431  18.305  0.00  0.00    +0.000 HD
ENDROOT
BRANCH   2   5
ATOM      5  C   UNL     1       7.056   4.478  16.964  0.00  0.00    +0.000 C 
BRANCH   5   6
ATOM      6  N   UNL     1       6.460   4.117  18.255  0.00  0.00    +0.000 N 
ATOM      7  H   UNL     1       6.949   3.341  18.703  0.00  0.00    +0.000 HD
BRANCH   6   8
ATOM      8  C   UNL     1       5.073   4.012  18.382  0.00  0.00    +0.000 A 
ATOM      9  C   UNL     1       4.276   4.332  17.270  0.00  0.00    +0.000 A 
ATOM     10  C   UNL     1       2.888   4.145  17.278  0.00  0.00    +0.000 A 
ATOM     11  C   UNL     1       2.262   3.623  18.407  0.00  0.00    +0.000 A 
ATOM     12  C   UNL     1       3.042   3.291  19.519  0.00  0.00    +0.000 A 
ATOM     13  C   UNL     1       4.435   3.471  19.504  0.00  0.00    +0.000 A 
BRANCH  12  14
ATOM     14  N   UNL     1       2.403   2.732  20.715  0.00  0.00    +0.000 N 
ATOM     15  O   UNL     1       1.277   2.229  20.587  0.00  0.00    +0.000 OA
ATOM     16  O   UNL     1       3.022   2.794  21.786  0.00  0.00    +0.000 OA
ENDBRANCH  12  14
ENDBRANCH   6   8
ENDBRANCH   5   6
ENDBRANCH   2   5
BRANCH   3  17
ATOM     17  C   UNL     1       7.269   8.261  17.505  0.00  0.00    +0.000 C 
BRANCH  17  18
ATOM     18  C   UNL     1       8.381   8.985  18.256  0.00  0.00    +0.000 C 
BRANCH  18  19
ATOM     19  C   UNL     1       8.386  10.489  17.969  0.00  0.00    +0.000 C 
BRANCH  19  20
ATOM     20  C   UNL     1       9.570  11.138  18.644  0.00  0.00    +0.000 A 
ATOM     21  C   UNL     1      10.689  11.530  17.896  0.00  0.00    +0.000 A 
ATOM     22  C   UNL     1      11.830  12.016  18.537  0.00  0.00    +0.000 A 
ATOM     23  C   UNL     1      11.861  12.118  19.927  0.00  0.00    +0.000 A 
ATOM     24  C   UNL     1      10.746  11.752  20.677  0.00  0.00    +0.000 A 
ATOM     25  C   UNL     1       9.603  11.266  20.039  0.00  0.00    +0.000 A 
ENDBRANCH  19  20
ENDBRANCH  18  19
ENDBRANCH  17  18
ENDBRANCH   3  17
TORSDOF 8
ENDMDL
MODEL 5
REMARK VINA RESULT:      -7.5      4.281      7.021
REMARK  Name = 
REMARK  8 active torsions:
REMARK  status: ('A' for Active; 'I' for Inactive)
REMARK    1  A    between atoms: C_2  and  C_3
REMARK    2  A    between atoms: C_3  and  N_4
REMARK    3  A    between atoms: N_4  and  C_5
REMARK    4  A    between atoms: C_9  and  N_10
REMARK    5  A    between atoms: N_14  and  C_15
REMARK    6  A    between atoms: C_15  and  C_16
REMARK    7  A    between atoms: C_16  and  C_17
REMARK    8  A    between atoms: C_17  and  C_18
REMARK                            x       y       z     vdW  Elec       q    Type
REMARK                         _______ _______ _______ _____ _____    ______ ____
ROOT
ATOM      1  O   UNL     1       4.219   2.694  19.857  0.00  0.00    +0.000 OA
ATOM      2  C   UNL     1       3.333   3.039  19.076  0.00  0.00    +0.000 C 
ATOM      3  N   UNL     1       2.199   3.721  19.469  0.00  0.00    +0.000 N 
ATOM      4  H   UNL     1       1.490   3.931  18.778  0.00  0.00    +0.000 HD
ENDROOT
BRANCH   2   5
ATOM      5  C   UNL     1       3.396   2.718  17.579  0.00  0.00    +0.000 C 
BRANCH   5   6
ATOM      6  N   UNL     1       4.751   2.942  17.064  0.00  0.00    +0.000 N 
ATOM      7  H   UNL     1       5.412   2.238  17.396  0.00  0.00    +0.000 HD
BRANCH   6   8
ATOM      8  C   UNL     1       5.300   4.227  17.070  0.00  0.00    +0.000 A 
ATOM      9  C   UNL     1       4.676   5.221  16.298  0.00  0.00    +0.000 A 
ATOM     10  C   UNL     1       5.094   6.557  16.337  0.00  0.00    +0.000 A 
ATOM     11  C   UNL     1       6.150   6.932  17.163  0.00  0.00    +0.000 A 
ATOM     12  C   UNL     1       6.777   5.956  17.944  0.00  0.00    +0.000 A 
ATOM     13  C   UNL     1       6.349   4.619  17.909  0.00  0.00    +0.000 A 
BRANCH  12  14
ATOM     14  N   UNL     1       7.887   6.333  18.826  0.00  0.00    +0.000 N 
ATOM     15  O   UNL     1       8.242   5.516  19.689  0.00  0.00    +0.000 OA
ATOM     16  O   UNL     1       8.408   7.444  18.660  0.00  0.00    +0.000 OA
ENDBRANCH  12  14
ENDBRANCH   6   8
ENDBRANCH   5   6
ENDBRANCH   2   5
BRANCH   3  17
ATOM     17  C   UNL     1       2.020   4.201  20.827  0.00  0.00    +0.000 C 
BRANCH  17  18
ATOM     18  C   UNL     1       1.971   5.726  20.864  0.00  0.00    +0.000 C 
BRANCH  18  19
ATOM     19  C   UNL     1       2.732   6.356  19.695  0.00  0.00    +0.000 C 
BRANCH  19  20
ATOM     20  C   UNL     1       2.108   7.681  19.330  0.00  0.00    +0.000 A 
ATOM     21  C   UNL     1       2.399   8.290  18.101  0.00  0.00    +0.000 A 
ATOM     22  C   UNL     1       1.920   9.570  17.817  0.00  0.00    +0.000 A 
ATOM     23  C   UNL     1       1.144  10.249  18.755  0.00  0.00    +0.000 A 
ATOM     24  C   UNL     1       0.830   9.643  19.970  0.00  0.00    +0.000 A 
ATOM     25  C   UNL     1       1.308   8.363  20.256  0.00  0.00    +0.000 A 
ENDBRANCH  19  20
ENDBRANCH  18  19
ENDBRANCH  17  18
ENDBRANCH   3  17
TORSDOF 8
ENDMDL
MODEL 6
REMARK VINA RESULT:      -7.5      1.484      2.140
REMARK  Name = 
REMARK  8 active torsions:
REMARK  status: ('A' for Active; 'I' for Inactive)
REMARK    1  A    between atoms: C_2  and  C_3
REMARK    2  A    between atoms: C_3  and  N_4
REMARK    3  A    between atoms: N_4  and  C_5
REMARK    4  A    between atoms: C_9  and  N_10
REMARK    5  A    between atoms: N_14  and  C_15
REMARK    6  A    between atoms: C_15  and  C_16
REMARK    7  A    between atoms: C_16  and  C_17
REMARK    8  A    between atoms: C_17  and  C_18
REMARK                            x       y       z     vdW  Elec       q    Type
REMARK                         _______ _______ _______ _____ _____    ______ ____
ROOT
ATOM      1  O   UNL     1       7.436   6.101  15.964  0.00  0.00    +0.000 OA
ATOM      2  C   UNL     1       6.583   6.500  16.755  0.00  0.00    +0.000 C 
ATOM      3  N   UNL     1       6.882   7.236  17.885  0.00  0.00    +0.000 N 
ATOM      4  H   UNL     1       6.132   7.490  18.515  0.00  0.00    +0.000 HD
ENDROOT
BRANCH   2   5
ATOM      5  C   UNL     1       5.093   6.192  16.572  0.00  0.00    +0.000 C 
BRANCH   5   6
ATOM      6  N   UNL     1       4.446   6.001  17.874  0.00  0.00    +0.000 N 
ATOM      7  H   UNL     1       4.996   6.391  18.640  0.00  0.00    +0.000 HD
BRANCH   6   8
ATOM      8  C   UNL     1       3.884   4.765  18.203  0.00  0.00    +0.000 A 
ATOM      9  C   UNL     1       4.048   3.698  17.304  0.00  0.00    +0.000 A 
ATOM     10  C   UNL     1       3.615   2.402  17.609  0.00  0.00    +0.000 A 
ATOM     11  C   UNL     1       3.010   2.141  18.836  0.00  0.00    +0.000 A 
ATOM     12  C   UNL     1       2.847   3.190  19.746  0.00  0.00    +0.000 A 
ATOM     13  C   UNL     1       3.291   4.487  19.439  0.00  0.00    +0.000 A 
BRANCH  12  14
ATOM     14  N   UNL     1       2.218   2.934  21.046  0.00  0.00    +0.000 N 
ATOM     15  O   UNL     1       1.012   3.196  21.166  0.00  0.00    +0.000 OA
ATOM     16  O   UNL     1       2.925   2.470  21.951  0.00  0.00    +0.000 OA
ENDBRANCH  12  14
ENDBRANCH   6   8
ENDBRANCH   5   6
ENDBRANCH   2   5
BRANCH   3  17
ATOM     17  C   UNL     1       8.225   7.710  18.164  0.00  0.00    +0.000 C 
BRANCH  17  18
ATOM     18  C   UNL     1       8.294   9.232  18.080  0.00  0.00    +0.000 C 
BRANCH  18  19
ATOM     19  C   UNL     1       9.020   9.843  19.282  0.00  0.00    +0.000 C 
BRANCH  19  20
ATOM     20  C   UNL     1       9.823  11.042  18.842  0.00  0.00    +0.000 A 
ATOM     21  C   UNL     1      11.015  11.379  19.498  0.00  0.00    +0.000 A 
ATOM     22  C   UNL     1      11.691  12.556  19.172  0.00  0.00    +0.000 A 
ATOM     23  C   UNL     1      11.185  13.403  18.187  0.00  0.00    +0.000 A 
ATOM     24  C   UNL     1      10.013  13.065  17.514  0.00  0.00    +0.000 A 
ATOM     25  C   UNL     1       9.335  11.889  17.838  0.00  0.00    +0.000 A 
ENDBRANCH  19  20
ENDBRANCH  18  19
ENDBRANCH  17  18
ENDBRANCH   3  17
TORSDOF 8
ENDMDL
MODEL 7
REMARK VINA RESULT:      -7.4      0.438      1.248
REMARK  Name = 
REMARK  8 active torsions:
REMARK  status: ('A' for Active; 'I' for Inactive)
REMARK    1  A    between atoms: C_2  and  C_3
REMARK    2  A    between atoms: C_3  and  N_4
REMARK    3  A    between atoms: N_4  and  C_5
REMARK    4  A    between atoms: C_9  and  N_10
REMARK    5  A    between atoms: N_14  and  C_15
REMARK    6  A    between atoms: C_15  and  C_16
REMARK    7  A    between atoms: C_16  and  C_17
REMARK    8  A    between atoms: C_17  and  C_18
REMARK                            x       y       z     vdW  Elec       q    Type
REMARK                         _______ _______ _______ _____ _____    ______ ____
ROOT
ATOM      1  O   UNL     1       7.345   5.981  16.103  0.00  0.00    +0.000 OA
ATOM      2  C   UNL     1       6.501   6.687  16.652  0.00  0.00    +0.000 C 
ATOM      3  N   UNL     1       6.813   7.658  17.583  0.00  0.00    +0.000 N 
ATOM      4  H   UNL     1       6.061   8.169  18.028  0.00  0.00    +0.000 HD
ENDROOT
BRANCH   2   5
ATOM      5  C   UNL     1       5.002   6.537  16.369  0.00  0.00    +0.000 C 
BRANCH   5   6
ATOM      6  N   UNL     1       4.214   7.075  17.484  0.00  0.00    +0.000 N 
ATOM      7  H   UNL     1       4.654   7.891  17.910  0.00  0.00    +0.000 HD
BRANCH   6   8
ATOM      8  C   UNL     1       3.668   6.212  18.437  0.00  0.00    +0.000 A 
ATOM      9  C   UNL     1       2.614   6.684  19.237  0.00  0.00    +0.000 A 
ATOM     10  C   UNL     1       1.937   5.850  20.136  0.00  0.00    +0.000 A 
ATOM     11  C   UNL     1       2.299   4.510  20.249  0.00  0.00    +0.000 A 
ATOM     12  C   UNL     1       3.340   4.022  19.453  0.00  0.00    +0.000 A 
ATOM     13  C   UNL     1       4.011   4.860  18.547  0.00  0.00    +0.000 A 
BRANCH  12  14
ATOM     14  N   UNL     1       3.732   2.612  19.553  0.00  0.00    +0.000 N 
ATOM     15  O   UNL     1       2.927   1.759  19.150  0.00  0.00    +0.000 OA
ATOM     16  O   UNL     1       4.843   2.350  20.032  0.00  0.00    +0.000 OA
ENDBRANCH  12  14
ENDBRANCH   6   8
ENDBRANCH   5   6
ENDBRANCH   2   5
BRANCH   3  17
ATOM     17  C   UNL     1       8.185   8.013  17.896  0.00  0.00    +0.000 C 
BRANCH  17  18
ATOM     18  C   UNL     1       8.337   9.523  18.054  0.00  0.00    +0.000 C 
BRANCH  18  19
ATOM     19  C   UNL     1       9.058   9.897  19.351  0.00  0.00    +0.000 C 
BRANCH  19  20
ATOM     20  C   UNL     1      10.089  10.965  19.076  0.00  0.00    +0.000 A 
ATOM     21  C   UNL     1      10.712  11.641  20.134  0.00  0.00    +0.000 A 
ATOM     22  C   UNL     1      11.572  12.711  19.878  0.00  0.00    +0.000 A 
ATOM     23  C   UNL     1      11.819  13.110  18.566  0.00  0.00    +0.000 A 
ATOM     24  C   UNL     1      11.222  12.430  17.507  0.00  0.00    +0.000 A 
ATOM     25  C   UNL     1      10.362  11.360  17.760  0.00  0.00    +0.000 A 
ENDBRANCH  19  20
ENDBRANCH  18  19
ENDBRANCH  17  18
ENDBRANCH   3  17
TORSDOF 8
ENDMDL
MODEL 8
REMARK VINA RESULT:      -7.4      4.503      7.314
REMARK  Name = 
REMARK  8 active torsions:
REMARK  status: ('A' for Active; 'I' for Inactive)
REMARK    1  A    between atoms: C_2  and  C_3
REMARK    2  A    between atoms: C_3  and  N_4
REMARK    3  A    between atoms: N_4  and  C_5
REMARK    4  A    between atoms: C_9  and  N_10
REMARK    5  A    between atoms: N_14  and  C_15
REMARK    6  A    between atoms: C_15  and  C_16
REMARK    7  A    between atoms: C_16  and  C_17
REMARK    8  A    between atoms: C_17  and  C_18
REMARK                            x       y       z     vdW  Elec       q    Type
REMARK                         _______ _______ _______ _____ _____    ______ ____
ROOT
ATOM      1  O   UNL     1       1.631   1.608  18.924  0.00  0.00    +0.000 OA
ATOM      2  C   UNL     1       2.428   2.511  18.676  0.00  0.00    +0.000 C 
ATOM      3  N   UNL     1       2.219   3.827  19.038  0.00  0.00    +0.000 N 
ATOM      4  H   UNL     1       2.897   4.525  18.759  0.00  0.00    +0.000 HD
ENDROOT
BRANCH   2   5
ATOM      5  C   UNL     1       3.732   2.261  17.910  0.00  0.00    +0.000 C 
BRANCH   5   6
ATOM      6  N   UNL     1       4.827   3.039  18.499  0.00  0.00    +0.000 N 
ATOM      7  H   UNL     1       4.639   3.302  19.467  0.00  0.00    +0.000 HD
BRANCH   6   8
ATOM      8  C   UNL     1       5.418   4.078  17.775  0.00  0.00    +0.000 A 
ATOM      9  C   UNL     1       5.746   5.262  18.457  0.00  0.00    +0.000 A 
ATOM     10  C   UNL     1       6.441   6.305  17.831  0.00  0.00    +0.000 A 
ATOM     11  C   UNL     1       6.833   6.181  16.501  0.00  0.00    +0.000 A 
ATOM     12  C   UNL     1       6.522   5.006  15.811  0.00  0.00    +0.000 A 
ATOM     13  C   UNL     1       5.832   3.958  16.444  0.00  0.00    +0.000 A 
BRANCH  12  14
ATOM     14  N   UNL     1       6.932   4.854  14.411  0.00  0.00    +0.000 N 
ATOM     15  O   UNL     1       6.290   4.062  13.704  0.00  0.00    +0.000 OA
ATOM     16  O   UNL     1       7.894   5.523  14.012  0.00  0.00    +0.000 OA
ENDBRANCH  12  14
ENDBRANCH   6   8
ENDBRANCH   5   6
ENDBRANCH   2   5
BRANCH   3  17
ATOM     17  C   UNL     1       1.093   4.232  19.859  0.00  0.00    +0.000 C 
BRANCH  17  18
ATOM     18  C   UNL     1       1.509   5.294  20.872  0.00  0.00    +0.000 C 
BRANCH  18  19
ATOM     19  C   UNL     1       2.689   6.133  20.375  0.00  0.00    +0.000 C 
BRANCH  19  20
ATOM     20  C   UNL     1       2.181   7.348  19.637  0.00  0.00    +0.000 A 
ATOM     21  C   UNL     1       2.571   7.590  18.312  0.00  0.00    +0.000 A 
ATOM     22  C   UNL     1       2.200   8.774  17.673  0.00  0.00    +0.000 A 
ATOM     23  C   UNL     1       1.435   9.723  18.349  0.00  0.00    +0.000 A 
ATOM     24  C   UNL     1       1.023   9.481  19.658  0.00  0.00    +0.000 A 
ATOM     25  C   UNL     1       1.393   8.297  20.299  0.00  0.00    +0.000 A 
ENDBRANCH  19  20
ENDBRANCH  18  19
ENDBRANCH  17  18
ENDBRANCH   3  17
TORSDOF 8
ENDMDL
MODEL 9
REMARK VINA RESULT:      -7.4      1.865      2.176
REMARK  Name = 
REMARK  8 active torsions:
REMARK  status: ('A' for Active; 'I' for Inactive)
REMARK    1  A    between atoms: C_2  and  C_3
REMARK    2  A    between atoms: C_3  and  N_4
REMARK    3  A    between atoms: N_4  and  C_5
REMARK    4  A    between atoms: C_9  and  N_10
REMARK    5  A    between atoms: N_14  and  C_15
REMARK    6  A    between atoms: C_15  and  C_16
REMARK    7  A    between atoms: C_16  and  C_17
REMARK    8  A    between atoms: C_17  and  C_18
REMARK                            x       y       z     vdW  Elec       q    Type
REMARK                         _______ _______ _______ _____ _____    ______ ____
ROOT
ATOM      1  O   UNL     1       8.045   5.441  19.424  0.00  0.00    +0.000 OA
ATOM      2  C   UNL     1       7.551   5.787  18.352  0.00  0.00    +0.000 C 
ATOM      3  N   UNL     1       7.661   7.066  17.844  0.00  0.00    +0.000 N 
ATOM      4  H   UNL     1       7.189   7.290  16.977  0.00  0.00    +0.000 HD
ENDROOT
BRANCH   2   5
ATOM      5  C   UNL     1       6.739   4.823  17.479  0.00  0.00    +0.000 C 
BRANCH   5   6
ATOM      6  N   UNL     1       6.092   3.802  18.311  0.00  0.00    +0.000 N 
ATOM      7  H   UNL     1       6.397   2.858  18.071  0.00  0.00    +0.000 HD
BRANCH   6   8
ATOM      8  C   UNL     1       4.719   3.867  18.559  0.00  0.00    +0.000 A 
ATOM      9  C   UNL     1       3.876   4.317  17.529  0.00  0.00    +0.000 A 
ATOM     10  C   UNL     1       2.481   4.305  17.658  0.00  0.00    +0.000 A 
ATOM     11  C   UNL     1       1.894   3.831  18.828  0.00  0.00    +0.000 A 
ATOM     12  C   UNL     1       2.718   3.371  19.859  0.00  0.00    +0.000 A 
ATOM     13  C   UNL     1       4.117   3.377  19.723  0.00  0.00    +0.000 A 
BRANCH  12  14
ATOM     14  N   UNL     1       2.119   2.862  21.097  0.00  0.00    +0.000 N 
ATOM     15  O   UNL     1       2.884   2.463  21.988  0.00  0.00    +0.000 OA
ATOM     16  O   UNL     1       0.884   2.858  21.185  0.00  0.00    +0.000 OA
ENDBRANCH  12  14
ENDBRANCH   6   8
ENDBRANCH   5   6
ENDBRANCH   2   5
BRANCH   3  17
ATOM     17  C   UNL     1       8.481   8.080  18.480  0.00  0.00    +0.000 C 
BRANCH  17  18
ATOM     18  C   UNL     1       7.936   9.478  18.200  0.00  0.00    +0.000 C 
BRANCH  18  19
ATOM     19  C   UNL     1       8.960  10.364  17.487  0.00  0.00    +0.000 C 
BRANCH  19  20
ATOM     20  C   UNL     1       9.843  11.049  18.501  0.00  0.00    +0.000 A 
ATOM     21  C   UNL     1      11.149  11.432  18.165  0.00  0.00    +0.000 A 
ATOM     22  C   UNL     1      12.003  11.953  19.138  0.00  0.00    +0.000 A 
ATOM     23  C   UNL     1      11.560  12.099  20.452  0.00  0.00    +0.000 A 
ATOM     24  C   UNL     1      10.256  11.743  20.790  0.00  0.00    +0.000 A 
ATOM     25  C   UNL     1       9.400  11.222  19.819  0.00  0.00    +0.000 A 
ENDBRANCH  19  20
ENDBRANCH  18  19
ENDBRANCH  17  18
ENDBRANCH   3  17
TORSDOF 8
ENDMDL
