MODEL 1
REMARK VINA RESULT:      -7.6      0.000      0.000
REMARK  Name = 
REMARK  7 active torsions:
REMARK  status: ('A' for Active; 'I' for Inactive)
REMARK    1  A    between atoms: C_1  and  C_2
REMARK    2  A    between atoms: C_5  and  C_6
REMARK    3  A    between atoms: C_7  and  C_8
REMARK    4  A    between atoms: C_11  and  C_12
REMARK    5  A    between atoms: C_14  and  S_15
REMARK    6  A    between atoms: S_15  and  N_18
REMARK    7  A    between atoms: N_18  and  C_19
REMARK                            x       y       z     vdW  Elec       q    Type
REMARK                         _______ _______ _______ _____ _____    ______ ____
ROOT
ATOM      1  C   UNL     1       1.697   1.823  18.843  0.00  0.00    +0.000 C 
ATOM      2  C   UNL     1       2.780   2.847  18.661  0.00  0.00    +0.000 A 
ATOM      3  C   UNL     1       3.675   2.665  17.593  0.00  0.00    +0.000 A 
ATOM      4  C   UNL     1       4.702   3.580  17.341  0.00  0.00    +0.000 A 
ATOM      5  C   UNL     1       4.838   4.737  18.110  0.00  0.00    +0.000 A 
ATOM      6  C   UNL     1       3.944   4.926  19.172  0.00  0.00    +0.000 A 
ATOM      7  C   UNL     1       2.949   3.976  19.478  0.00  0.00    +0.000 A 
ENDROOT
BRANCH   5   8
ATOM      8  C   UNL     1       5.871   5.722  17.791  0.00  0.00    +0.000 A 
ATOM      9  C   UNL     1       5.993   6.627  16.688  0.00  0.00    +0.000 A 
ATOM     10  C   UNL     1       5.084   6.870  15.535  0.00  0.00    +0.000 C 
ATOM     11  N   UNL     1       7.118   7.349  16.758  0.00  0.00    +0.000 NA
ATOM     12  N   UNL     1       7.701   6.935  17.885  0.00  0.00    +0.000 N 
ATOM     13  C   UNL     1       7.013   5.958  18.548  0.00  0.00    +0.000 A 
ATOM     14  C   UNL     1       7.558   5.377  19.800  0.00  0.00    +0.000 C 
ATOM     15  H   UNL     1       8.585   7.361  18.144  0.00  0.00    +0.000 HD
ENDBRANCH   5   8
BRANCH   7  16
ATOM     16  S   UNL     1       1.892   4.371  20.863  0.00  0.00    +0.000 S 
ATOM     17  O   UNL     1       0.531   4.303  20.377  0.00  0.00    +0.000 OA
ATOM     18  O   UNL     1       2.301   3.640  22.037  0.00  0.00    +0.000 OA
BRANCH  16  19
ATOM     19  N   UNL     1       2.175   6.011  21.147  0.00  0.00    +0.000 NA
ATOM     20  H   UNL     1       3.173   6.185  21.237  0.00  0.00    +0.000 HD
BRANCH  19  21
ATOM     21  C   UNL     1       1.362   7.057  20.510  0.00  0.00    +0.000 C 
ATOM     22  C   UNL     1       1.202   8.237  21.472  0.00  0.00    +0.000 C 
ATOM     23  C   UNL     1       0.833   9.416  20.580  0.00  0.00    +0.000 C 
ATOM     24  C   UNL     1       1.473   9.123  19.228  0.00  0.00    +0.000 C 
ATOM     25  C   UNL     1       2.055   7.715  19.320  0.00  0.00    +0.000 C 
ENDBRANCH  19  21
ENDBRANCH  16  19
ENDBRANCH   7  16
TORSDOF 4
ENDMDL
MODEL 2
REMARK VINA RESULT:      -7.5      1.112      1.938
REMARK  Name = 
REMARK  7 active torsions:
REMARK  status: ('A' for Active; 'I' for Inactive)
REMARK    1  A    between atoms: C_1  and  C_2
REMARK    2  A    between atoms: C_5  and  C_6
REMARK    3  A    between atoms: C_7  and  C_8
REMARK    4  A    between atoms: C_11  and  C_12
REMARK    5  A    between atoms: C_14  and  S_15
REMARK    6  A    between atoms: S_15  and  N_18
REMARK    7  A    between atoms: N_18  and  C_19
REMARK                            x       y       z     vdW  Elec       q    Type
REMARK                         _______ _______ _______ _____ _____    ______ ____
ROOT
ATOM      1  C   UNL     1       0.881   2.204  18.898  0.00  0.00    +0.000 C 
ATOM      2  C   UNL     1       2.162   2.888  18.517  0.00  0.00    +0.000 A 
ATOM      3  C   UNL     1       2.855   2.397  17.398  0.00  0.00    +0.000 A 
ATOM      4  C   UNL     1       4.046   2.985  16.965  0.00  0.00    +0.000 A 
ATOM      5  C   UNL     1       4.559   4.120  17.597  0.00  0.00    +0.000 A 
ATOM      6  C   UNL     1       3.868   4.617  18.709  0.00  0.00    +0.000 A 
ATOM      7  C   UNL     1       2.704   3.990  19.197  0.00  0.00    +0.000 A 
ENDROOT
BRANCH   5   8
ATOM      8  C   UNL     1       5.767   4.769  17.089  0.00  0.00    +0.000 A 
ATOM      9  C   UNL     1       6.843   5.415  17.779  0.00  0.00    +0.000 A 
ATOM     10  C   UNL     1       7.084   5.596  19.236  0.00  0.00    +0.000 C 
ATOM     11  N   UNL     1       7.752   5.910  16.930  0.00  0.00    +0.000 NA
ATOM     12  N   UNL     1       7.287   5.579  15.724  0.00  0.00    +0.000 N 
ATOM     13  C   UNL     1       6.099   4.902  15.746  0.00  0.00    +0.000 A 
ATOM     14  C   UNL     1       5.443   4.499  14.477  0.00  0.00    +0.000 C 
ATOM     15  H   UNL     1       7.831   5.856  14.914  0.00  0.00    +0.000 HD
ENDBRANCH   5   8
BRANCH   7  16
ATOM     16  S   UNL     1       1.945   4.753  20.624  0.00  0.00    +0.000 S 
ATOM     17  O   UNL     1       0.517   4.737  20.390  0.00  0.00    +0.000 OA
ATOM     18  O   UNL     1       2.507   4.222  21.841  0.00  0.00    +0.000 OA
BRANCH  16  19
ATOM     19  N   UNL     1       2.390   6.378  20.511  0.00  0.00    +0.000 NA
ATOM     20  H   UNL     1       3.402   6.462  20.452  0.00  0.00    +0.000 HD
BRANCH  19  21
ATOM     21  C   UNL     1       1.587   7.348  19.753  0.00  0.00    +0.000 C 
ATOM     22  C   UNL     1       1.322   8.582  20.620  0.00  0.00    +0.000 C 
ATOM     23  C   UNL     1       0.975   9.685  19.628  0.00  0.00    +0.000 C 
ATOM     24  C   UNL     1       1.715   9.329  18.343  0.00  0.00    +0.000 C 
ATOM     25  C   UNL     1       2.336   7.952  18.569  0.00  0.00    +0.000 C 
ENDBRANCH  19  21
ENDBRANCH  16  19
ENDBRANCH   7  16
TORSDOF 4
ENDMDL
MODEL 3
REMARK VINA RESULT:      -7.5      1.054      1.070
REMARK  Name = 
REMARK  7 active torsions:
REMARK  status: ('A' for Active; 'I' for Inactive)
REMARK    1  A    between atoms: C_1  and  C_2
REMARK    2  A    between atoms: C_5  and  C_6
REMARK    3  A    between atoms: C_7  and  C_8
REMARK    4  A    between atoms: C_11  and  C_12
REMARK    5  A    between atoms: C_14  and  S_15
REMARK    6  A    between atoms: S_15  and  N_18
REMARK    7  A    between atoms: N_18  and  C_19
REMARK                            x       y       z     vdW  Elec       q    Type
REMARK                         _______ _______ _______ _____ _____    ______ ____
ROOT
ATOM      1  C   UNL     1       1.072   1.977  19.062  0.00  0.00    +0.000 C 
ATOM      2  C   UNL     1       2.300   2.725  18.632  0.00  0.00    +0.000 A 
ATOM      3  C   UNL     1       3.013   2.228  17.529  0.00  0.00    +0.000 A 
ATOM      4  C   UNL     1       4.158   2.873  17.052  0.00  0.00    +0.000 A 
ATOM      5  C   UNL     1       4.600   4.068  17.623  0.00  0.00    +0.000 A 
ATOM      6  C   UNL     1       3.889   4.572  18.719  0.00  0.00    +0.000 A 
ATOM      7  C   UNL     1       2.775   3.893  19.252  0.00  0.00    +0.000 A 
ENDROOT
BRANCH   5   8
ATOM      8  C   UNL     1       5.757   4.771  17.069  0.00  0.00    +0.000 A 
ATOM      9  C   UNL     1       6.160   4.985  15.711  0.00  0.00    +0.000 A 
ATOM     10  C   UNL     1       5.505   4.584  14.436  0.00  0.00    +0.000 C 
ATOM     11  N   UNL     1       7.311   5.664  15.635  0.00  0.00    +0.000 NA
ATOM     12  N   UNL     1       7.636   5.898  16.908  0.00  0.00    +0.000 N 
ATOM     13  C   UNL     1       6.753   5.385  17.817  0.00  0.00    +0.000 A 
ATOM     14  C   UNL     1       7.004   5.539  19.272  0.00  0.00    +0.000 C 
ATOM     15  H   UNL     1       8.490   6.415  17.091  0.00  0.00    +0.000 HD
ENDBRANCH   5   8
BRANCH   7  16
ATOM     16  S   UNL     1       1.981   4.671  20.651  0.00  0.00    +0.000 S 
ATOM     17  O   UNL     1       0.560   4.662  20.378  0.00  0.00    +0.000 OA
ATOM     18  O   UNL     1       2.505   4.147  21.887  0.00  0.00    +0.000 OA
BRANCH  16  19
ATOM     19  N   UNL     1       2.438   6.293  20.537  0.00  0.00    +0.000 NA
ATOM     20  H   UNL     1       3.439   6.365  20.371  0.00  0.00    +0.000 HD
BRANCH  19  21
ATOM     21  C   UNL     1       1.573   7.297  19.901  0.00  0.00    +0.000 C 
ATOM     22  C   UNL     1       1.383   8.484  20.849  0.00  0.00    +0.000 C 
ATOM     23  C   UNL     1       0.953   9.634  19.947  0.00  0.00    +0.000 C 
ATOM     24  C   UNL     1       1.581   9.347  18.589  0.00  0.00    +0.000 C 
ATOM     25  C   UNL     1       2.220   7.964  18.690  0.00  0.00    +0.000 C 
ENDBRANCH  19  21
ENDBRANCH  16  19
ENDBRANCH   7  16
TORSDOF 4
ENDMDL
MODEL 4
REMARK VINA RESULT:      -6.9      1.755      4.267
REMARK  Name = 
REMARK  7 active torsions:
REMARK  status: ('A' for Active; 'I' for Inactive)
REMARK    1  A    between atoms: C_1  and  C_2
REMARK    2  A    between atoms: C_5  and  C_6
REMARK    3  A    between atoms: C_7  and  C_8
REMARK    4  A    between atoms: C_11  and  C_12
REMARK    5  A    between atoms: C_14  and  S_15
REMARK    6  A    between atoms: S_15  and  N_18
REMARK    7  A    between atoms: N_18  and  C_19
REMARK                            x       y       z     vdW  Elec       q    Type
REMARK                         _______ _______ _______ _____ _____    ______ ____
ROOT
ATOM      1  C   UNL     1       1.365   8.271  18.860  0.00  0.00    +0.000 C 
ATOM      2  C   UNL     1       2.548   7.411  18.520  0.00  0.00    +0.000 A 
ATOM      3  C   UNL     1       3.379   7.834  17.469  0.00  0.00    +0.000 A 
ATOM      4  C   UNL     1       4.512   7.103  17.098  0.00  0.00    +0.000 A 
ATOM      5  C   UNL     1       4.887   5.955  17.798  0.00  0.00    +0.000 A 
ATOM      6  C   UNL     1       4.066   5.533  18.851  0.00  0.00    +0.000 A 
ATOM      7  C   UNL     1       2.884   6.223  19.189  0.00  0.00    +0.000 A 
ENDROOT
BRANCH   5   8
ATOM      8  C   UNL     1       6.114   5.240  17.446  0.00  0.00    +0.000 A 
ATOM      9  C   UNL     1       7.356   5.112  18.147  0.00  0.00    +0.000 A 
ATOM     10  C   UNL     1       7.775   5.642  19.473  0.00  0.00    +0.000 C 
ATOM     11  N   UNL     1       8.244   4.384  17.458  0.00  0.00    +0.000 NA
ATOM     12  N   UNL     1       7.588   4.036  16.348  0.00  0.00    +0.000 N 
ATOM     13  C   UNL     1       6.312   4.521  16.274  0.00  0.00    +0.000 A 
ATOM     14  C   UNL     1       5.474   4.243  15.080  0.00  0.00    +0.000 C 
ATOM     15  H   UNL     1       8.079   3.465  15.668  0.00  0.00    +0.000 HD
ENDBRANCH   5   8
BRANCH   7  16
ATOM     16  S   UNL     1       1.951   5.553  20.557  0.00  0.00    +0.000 S 
ATOM     17  O   UNL     1       2.842   4.660  21.267  0.00  0.00    +0.000 OA
ATOM     18  O   UNL     1       1.241   6.600  21.247  0.00  0.00    +0.000 OA
BRANCH  16  19
ATOM     19  N   UNL     1       0.811   4.544  19.827  0.00  0.00    +0.000 NA
ATOM     20  H   UNL     1       0.089   5.100  19.375  0.00  0.00    +0.000 HD
BRANCH  19  21
ATOM     21  C   UNL     1       1.197   3.283  19.179  0.00  0.00    +0.000 C 
ATOM     22  C   UNL     1       1.732   3.573  17.774  0.00  0.00    +0.000 C 
ATOM     23  C   UNL     1       2.561   2.346  17.414  0.00  0.00    +0.000 C 
ATOM     24  C   UNL     1       3.073   1.795  18.740  0.00  0.00    +0.000 C 
ATOM     25  C   UNL     1       2.399   2.613  19.839  0.00  0.00    +0.000 C 
ENDBRANCH  19  21
ENDBRANCH  16  19
ENDBRANCH   7  16
TORSDOF 4
ENDMDL
MODEL 5
REMARK VINA RESULT:      -6.9      3.840      5.350
REMARK  Name = 
REMARK  7 active torsions:
REMARK  status: ('A' for Active; 'I' for Inactive)
REMARK    1  A    between atoms: C_1  and  C_2
REMARK    2  A    between atoms: C_5  and  C_6
REMARK    3  A    between atoms: C_7  and  C_8
REMARK    4  A    between atoms: C_11  and  C_12
REMARK    5  A    between atoms: C_14  and  S_15
REMARK    6  A    between atoms: S_15  and  N_18
REMARK    7  A    between atoms: N_18  and  C_19
REMARK                            x       y       z     vdW  Elec       q    Type
REMARK                         _______ _______ _______ _____ _____    ______ ____
ROOT
ATOM      1  C   UNL     1       0.411   9.256  21.444  0.00  0.00    +0.000 C 
ATOM      2  C   UNL     1       1.199   8.382  20.512  0.00  0.00    +0.000 A 
ATOM      3  C   UNL     1       1.499   7.078  20.940  0.00  0.00    +0.000 A 
ATOM      4  C   UNL     1       2.214   6.192  20.128  0.00  0.00    +0.000 A 
ATOM      5  C   UNL     1       2.605   6.556  18.838  0.00  0.00    +0.000 A 
ATOM      6  C   UNL     1       2.302   7.852  18.404  0.00  0.00    +0.000 A 
ATOM      7  C   UNL     1       1.644   8.777  19.240  0.00  0.00    +0.000 A 
ENDROOT
BRANCH   5   8
ATOM      8  C   UNL     1       3.288   5.595  17.972  0.00  0.00    +0.000 A 
ATOM      9  C   UNL     1       4.530   5.690  17.266  0.00  0.00    +0.000 A 
ATOM     10  C   UNL     1       5.533   6.789  17.222  0.00  0.00    +0.000 C 
ATOM     11  N   UNL     1       4.784   4.585  16.554  0.00  0.00    +0.000 NA
ATOM     12  N   UNL     1       3.743   3.789  16.806  0.00  0.00    +0.000 N 
ATOM     13  C   UNL     1       2.807   4.335  17.640  0.00  0.00    +0.000 A 
ATOM     14  C   UNL     1       1.577   3.577  17.983  0.00  0.00    +0.000 C 
ATOM     15  H   UNL     1       3.727   2.876  16.365  0.00  0.00    +0.000 HD
ENDBRANCH   5   8
BRANCH   7  16
ATOM     16  S   UNL     1       1.333  10.387  18.532  0.00  0.00    +0.000 S 
ATOM     17  O   UNL     1       0.982  11.261  19.630  0.00  0.00    +0.000 OA
ATOM     18  O   UNL     1       2.375  10.742  17.601  0.00  0.00    +0.000 OA
BRANCH  16  19
ATOM     19  N   UNL     1      -0.098  10.187  17.658  0.00  0.00    +0.000 NA
ATOM     20  H   UNL     1       0.007   9.438  16.978  0.00  0.00    +0.000 HD
BRANCH  19  21
ATOM     21  C   UNL     1      -1.417  10.347  18.287  0.00  0.00    +0.000 C 
ATOM     22  C   UNL     1      -1.843  11.816  18.215  0.00  0.00    +0.000 C 
ATOM     23  C   UNL     1      -3.357  11.789  18.389  0.00  0.00    +0.000 C 
ATOM     24  C   UNL     1      -3.808  10.440  17.841  0.00  0.00    +0.000 C 
ATOM     25  C   UNL     1      -2.538   9.658  17.515  0.00  0.00    +0.000 C 
ENDBRANCH  19  21
ENDBRANCH  16  19
ENDBRANCH   7  16
TORSDOF 4
ENDMDL
MODEL 6
REMARK VINA RESULT:      -6.9      3.171      5.232
REMARK  Name = 
REMARK  7 active torsions:
REMARK  status: ('A' for Active; 'I' for Inactive)
REMARK    1  A    between atoms: C_1  and  C_2
REMARK    2  A    between atoms: C_5  and  C_6
REMARK    3  A    between atoms: C_7  and  C_8
REMARK    4  A    between atoms: C_11  and  C_12
REMARK    5  A    between atoms: C_14  and  S_15
REMARK    6  A    between atoms: S_15  and  N_18
REMARK    7  A    between atoms: N_18  and  C_19
REMARK                            x       y       z     vdW  Elec       q    Type
REMARK                         _______ _______ _______ _____ _____    ______ ____
ROOT
ATOM      1  C   UNL     1       1.109  10.355  18.646  0.00  0.00    +0.000 C 
ATOM      2  C   UNL     1       1.603   8.964  18.919  0.00  0.00    +0.000 A 
ATOM      3  C   UNL     1       2.310   8.311  17.895  0.00  0.00    +0.000 A 
ATOM      4  C   UNL     1       2.819   7.021  18.071  0.00  0.00    +0.000 A 
ATOM      5  C   UNL     1       2.693   6.359  19.294  0.00  0.00    +0.000 A 
ATOM      6  C   UNL     1       1.995   7.009  20.320  0.00  0.00    +0.000 A 
ATOM      7  C   UNL     1       1.416   8.280  20.131  0.00  0.00    +0.000 A 
ENDROOT
BRANCH   5   8
ATOM      8  C   UNL     1       3.294   5.040  19.488  0.00  0.00    +0.000 A 
ATOM      9  C   UNL     1       4.654   4.606  19.377  0.00  0.00    +0.000 A 
ATOM     10  C   UNL     1       5.889   5.373  19.061  0.00  0.00    +0.000 C 
ATOM     11  N   UNL     1       4.778   3.294  19.612  0.00  0.00    +0.000 NA
ATOM     12  N   UNL     1       3.535   2.892  19.885  0.00  0.00    +0.000 N 
ATOM     13  C   UNL     1       2.597   3.885  19.821  0.00  0.00    +0.000 A 
ATOM     14  C   UNL     1       1.165   3.578  20.067  0.00  0.00    +0.000 C 
ATOM     15  H   UNL     1       3.391   1.912  20.103  0.00  0.00    +0.000 HD
ENDBRANCH   5   8
BRANCH   7  16
ATOM     16  S   UNL     1       0.561   8.967  21.541  0.00  0.00    +0.000 S 
ATOM     17  O   UNL     1      -0.515   8.053  21.858  0.00  0.00    +0.000 OA
ATOM     18  O   UNL     1       1.503   9.387  22.549  0.00  0.00    +0.000 OA
BRANCH  16  19
ATOM     19  N   UNL     1      -0.199  10.346  20.933  0.00  0.00    +0.000 NA
ATOM     20  H   UNL     1      -0.956  10.083  20.307  0.00  0.00    +0.000 HD
BRANCH  19  21
ATOM     21  C   UNL     1      -0.391  11.549  21.755  0.00  0.00    +0.000 C 
ATOM     22  C   UNL     1      -1.117  12.619  20.936  0.00  0.00    +0.000 C 
ATOM     23  C   UNL     1      -1.717  13.561  21.973  0.00  0.00    +0.000 C 
ATOM     24  C   UNL     1      -1.967  12.704  23.208  0.00  0.00    +0.000 C 
ATOM     25  C   UNL     1      -1.359  11.334  22.916  0.00  0.00    +0.000 C 
ENDBRANCH  19  21
ENDBRANCH  16  19
ENDBRANCH   7  16
TORSDOF 4
ENDMDL
MODEL 7
REMARK VINA RESULT:      -6.9      3.072      4.980
REMARK  Name = 
REMARK  7 active torsions:
REMARK  status: ('A' for Active; 'I' for Inactive)
REMARK    1  A    between atoms: C_1  and  C_2
REMARK    2  A    between atoms: C_5  and  C_6
REMARK    3  A    between atoms: C_7  and  C_8
REMARK    4  A    between atoms: C_11  and  C_12
REMARK    5  A    between atoms: C_14  and  S_15
REMARK    6  A    between atoms: S_15  and  N_18
REMARK    7  A    between atoms: N_18  and  C_19
REMARK                            x       y       z     vdW  Elec       q    Type
REMARK                         _______ _______ _______ _____ _____    ______ ____
ROOT
ATOM      1  C   UNL     1       1.425  10.218  18.472  0.00  0.00    +0.000 C 
ATOM      2  C   UNL     1       1.888   8.816  18.741  0.00  0.00    +0.000 A 
ATOM      3  C   UNL     1       2.594   8.156  17.722  0.00  0.00    +0.000 A 
ATOM      4  C   UNL     1       3.076   6.855  17.895  0.00  0.00    +0.000 A 
ATOM      5  C   UNL     1       2.921   6.187  19.111  0.00  0.00    +0.000 A 
ATOM      6  C   UNL     1       2.224   6.843  20.133  0.00  0.00    +0.000 A 
ATOM      7  C   UNL     1       1.673   8.127  19.946  0.00  0.00    +0.000 A 
ENDROOT
BRANCH   5   8
ATOM      8  C   UNL     1       3.493   4.855  19.303  0.00  0.00    +0.000 A 
ATOM      9  C   UNL     1       2.866   3.599  19.585  0.00  0.00    +0.000 A 
ATOM     10  C   UNL     1       1.427   3.251  19.737  0.00  0.00    +0.000 C 
ATOM     11  N   UNL     1       3.763   2.613  19.716  0.00  0.00    +0.000 NA
ATOM     12  N   UNL     1       4.938   3.212  19.508  0.00  0.00    +0.000 N 
ATOM     13  C   UNL     1       4.849   4.554  19.263  0.00  0.00    +0.000 A 
ATOM     14  C   UNL     1       6.078   5.358  19.047  0.00  0.00    +0.000 C 
ATOM     15  H   UNL     1       5.775   2.641  19.556  0.00  0.00    +0.000 HD
ENDBRANCH   5   8
BRANCH   7  16
ATOM     16  S   UNL     1       0.815   8.821  21.351  0.00  0.00    +0.000 S 
ATOM     17  O   UNL     1      -0.180   7.849  21.750  0.00  0.00    +0.000 OA
ATOM     18  O   UNL     1       1.753   9.360  22.303  0.00  0.00    +0.000 OA
BRANCH  16  19
ATOM     19  N   UNL     1      -0.066  10.109  20.703  0.00  0.00    +0.000 NA
ATOM     20  H   UNL     1      -0.784   9.761  20.072  0.00  0.00    +0.000 HD
BRANCH  19  21
ATOM     21  C   UNL     1      -0.386  11.303  21.498  0.00  0.00    +0.000 C 
ATOM     22  C   UNL     1      -1.420  12.152  20.752  0.00  0.00    +0.000 C 
ATOM     23  C   UNL     1      -2.053  13.025  21.829  0.00  0.00    +0.000 C 
ATOM     24  C   UNL     1      -1.953  12.220  23.120  0.00  0.00    +0.000 C 
ATOM     25  C   UNL     1      -1.124  10.980  22.795  0.00  0.00    +0.000 C 
ENDBRANCH  19  21
ENDBRANCH  16  19
ENDBRANCH   7  16
TORSDOF 4
ENDMDL
MODEL 8
REMARK VINA RESULT:      -6.9      3.873      5.406
REMARK  Name = 
REMARK  7 active torsions:
REMARK  status: ('A' for Active; 'I' for Inactive)
REMARK    1  A    between atoms: C_1  and  C_2
REMARK    2  A    between atoms: C_5  and  C_6
REMARK    3  A    between atoms: C_7  and  C_8
REMARK    4  A    between atoms: C_11  and  C_12
REMARK    5  A    between atoms: C_14  and  S_15
REMARK    6  A    between atoms: S_15  and  N_18
REMARK    7  A    between atoms: N_18  and  C_19
REMARK                            x       y       z     vdW  Elec       q    Type
REMARK                         _______ _______ _______ _____ _____    ______ ____
ROOT
ATOM      1  C   UNL     1       0.450   9.416  21.463  0.00  0.00    +0.000 C 
ATOM      2  C   UNL     1       1.193   8.498  20.536  0.00  0.00    +0.000 A 
ATOM      3  C   UNL     1       1.464   7.196  20.988  0.00  0.00    +0.000 A 
ATOM      4  C   UNL     1       2.136   6.271  20.183  0.00  0.00    +0.000 A 
ATOM      5  C   UNL     1       2.511   6.595  18.877  0.00  0.00    +0.000 A 
ATOM      6  C   UNL     1       2.237   7.890  18.420  0.00  0.00    +0.000 A 
ATOM      7  C   UNL     1       1.623   8.852  19.247  0.00  0.00    +0.000 A 
ENDROOT
BRANCH   5   8
ATOM      8  C   UNL     1       3.148   5.595  18.020  0.00  0.00    +0.000 A 
ATOM      9  C   UNL     1       2.734   4.273  17.657  0.00  0.00    +0.000 A 
ATOM     10  C   UNL     1       1.505   3.515  18.014  0.00  0.00    +0.000 C 
ATOM     11  N   UNL     1       3.629   3.672  16.864  0.00  0.00    +0.000 NA
ATOM     12  N   UNL     1       4.589   4.586  16.703  0.00  0.00    +0.000 N 
ATOM     13  C   UNL     1       4.368   5.757  17.375  0.00  0.00    +0.000 A 
ATOM     14  C   UNL     1       5.367   6.853  17.316  0.00  0.00    +0.000 C 
ATOM     15  H   UNL     1       5.383   4.341  16.122  0.00  0.00    +0.000 HD
ENDBRANCH   5   8
BRANCH   7  16
ATOM     16  S   UNL     1       1.346  10.455  18.509  0.00  0.00    +0.000 S 
ATOM     17  O   UNL     1       1.001  11.353  19.589  0.00  0.00    +0.000 OA
ATOM     18  O   UNL     1       2.402  10.775  17.582  0.00  0.00    +0.000 OA
BRANCH  16  19
ATOM     19  N   UNL     1      -0.081  10.263  17.626  0.00  0.00    +0.000 NA
ATOM     20  H   UNL     1       0.042   9.551  16.910  0.00  0.00    +0.000 HD
BRANCH  19  21
ATOM     21  C   UNL     1      -1.402  10.361  18.262  0.00  0.00    +0.000 C 
ATOM     22  C   UNL     1      -1.872  11.818  18.245  0.00  0.00    +0.000 C 
ATOM     23  C   UNL     1      -3.384  11.740  18.419  0.00  0.00    +0.000 C 
ATOM     24  C   UNL     1      -3.796  10.400  17.821  0.00  0.00    +0.000 C 
ATOM     25  C   UNL     1      -2.504   9.667  17.465  0.00  0.00    +0.000 C 
ENDBRANCH  19  21
ENDBRANCH  16  19
ENDBRANCH   7  16
TORSDOF 4
ENDMDL
MODEL 9
REMARK VINA RESULT:      -6.8      1.723      3.989
REMARK  Name = 
REMARK  7 active torsions:
REMARK  status: ('A' for Active; 'I' for Inactive)
REMARK    1  A    between atoms: C_1  and  C_2
REMARK    2  A    between atoms: C_5  and  C_6
REMARK    3  A    between atoms: C_7  and  C_8
REMARK    4  A    between atoms: C_11  and  C_12
REMARK    5  A    between atoms: C_14  and  S_15
REMARK    6  A    between atoms: S_15  and  N_18
REMARK    7  A    between atoms: N_18  and  C_19
REMARK                            x       y       z     vdW  Elec       q    Type
REMARK                         _______ _______ _______ _____ _____    ______ ____
ROOT
ATOM      1  C   UNL     1       1.370   8.278  19.007  0.00  0.00    +0.000 C 
ATOM      2  C   UNL     1       2.537   7.425  18.603  0.00  0.00    +0.000 A 
ATOM      3  C   UNL     1       3.352   7.889  17.557  0.00  0.00    +0.000 A 
ATOM      4  C   UNL     1       4.469   7.167  17.129  0.00  0.00    +0.000 A 
ATOM      5  C   UNL     1       4.846   5.983  17.766  0.00  0.00    +0.000 A 
ATOM      6  C   UNL     1       4.041   5.519  18.814  0.00  0.00    +0.000 A 
ATOM      7  C   UNL     1       2.874   6.203  19.208  0.00  0.00    +0.000 A 
ENDROOT
BRANCH   5   8
ATOM      8  C   UNL     1       6.058   5.275  17.357  0.00  0.00    +0.000 A 
ATOM      9  C   UNL     1       6.354   4.537  16.165  0.00  0.00    +0.000 A 
ATOM     10  C   UNL     1       5.526   4.290  14.953  0.00  0.00    +0.000 C 
ATOM     11  N   UNL     1       7.586   4.014  16.196  0.00  0.00    +0.000 NA
ATOM     12  N   UNL     1       8.081   4.416  17.368  0.00  0.00    +0.000 N 
ATOM     13  C   UNL     1       7.217   5.167  18.116  0.00  0.00    +0.000 A 
ATOM     14  C   UNL     1       7.620   5.655  19.459  0.00  0.00    +0.000 C 
ATOM     15  H   UNL     1       9.026   4.132  17.605  0.00  0.00    +0.000 HD
ENDBRANCH   5   8
BRANCH   7  16
ATOM     16  S   UNL     1       1.961   5.477  20.561  0.00  0.00    +0.000 S 
ATOM     17  O   UNL     1       2.871   4.580  21.239  0.00  0.00    +0.000 OA
ATOM     18  O   UNL     1       1.237   6.491  21.286  0.00  0.00    +0.000 OA
BRANCH  16  19
ATOM     19  N   UNL     1       0.833   4.471  19.808  0.00  0.00    +0.000 NA
ATOM     20  H   UNL     1       0.103   5.027  19.370  0.00  0.00    +0.000 HD
BRANCH  19  21
ATOM     21  C   UNL     1       1.236   3.231  19.129  0.00  0.00    +0.000 C 
ATOM     22  C   UNL     1       1.787   3.564  17.740  0.00  0.00    +0.000 C 
ATOM     23  C   UNL     1       2.629   2.353  17.357  0.00  0.00    +0.000 C 
ATOM     24  C   UNL     1       3.127   1.767  18.673  0.00  0.00    +0.000 C 
ATOM     25  C   UNL     1       2.433   2.549  19.786  0.00  0.00    +0.000 C 
ENDBRANCH  19  21
ENDBRANCH  16  19
ENDBRANCH   7  16
TORSDOF 4
ENDMDL
