MODEL 1
REMARK VINA RESULT:      -6.4      0.000      0.000
REMARK  Name = 
REMARK  20 active torsions:
REMARK  status: ('A' for Active; 'I' for Inactive)
REMARK    1  A    between atoms: C_2  and  C_3
REMARK    2  A    between atoms: C_3  and  C_4
REMARK    3  A    between atoms: C_4  and  C_5
REMARK    4  A    between atoms: C_5  and  C_6
REMARK    5  A    between atoms: C_5  and  O_11
REMARK    6  A    between atoms: C_6  and  C_7
REMARK    7  A    between atoms: C_7  and  C_8
REMARK    8  A    between atoms: C_8  and  C_9
REMARK    9  A    between atoms: C_9  and  C_10
REMARK   10  A    between atoms: O_11  and  C_12
REMARK   11  A    between atoms: C_12  and  C_14
REMARK   12  A    between atoms: C_15  and  C_16
REMARK   13  A    between atoms: C_16  and  O_17
REMARK   14  A    between atoms: C_16  and  C_18
REMARK   15  A    between atoms: C_18  and  O_19
REMARK   16  A    between atoms: C_18  and  C_20
REMARK   17  A    between atoms: C_20  and  C_21
REMARK   18  A    between atoms: C_21  and  O_22
REMARK   19  A    between atoms: C_21  and  C_23
REMARK   20  A    between atoms: C_23  and  C_24
REMARK                            x       y       z     vdW  Elec       q    Type
REMARK                         _______ _______ _______ _____ _____    ______ ____
ROOT
ATOM      1  C   UNL     1       3.789   4.051  17.562  0.00  0.00    +0.000 C 
ATOM      2  C   UNL     1       4.094   3.346  18.666  0.00  0.00    +0.000 C 
ENDROOT
BRANCH   1   3
ATOM      3  C   UNL     1       4.147   5.491  17.457  0.00  0.00    +0.000 C 
ATOM      4  O   UNL     1       3.895   6.323  18.316  0.00  0.00    +0.000 OA
BRANCH   3   5
ATOM      5  O   UNL     1       4.608   5.706  16.202  0.00  0.00    +0.000 OA
BRANCH   5   6
ATOM      6  C   UNL     1       5.550   4.734  15.721  0.00  0.00    +0.000 C 
BRANCH   6   7
ATOM      7  C   UNL     1       5.430   4.586  14.196  0.00  0.00    +0.000 C 
BRANCH   7   8
ATOM      8  C   UNL     1       6.575   3.754  13.605  0.00  0.00    +0.000 C 
BRANCH   8   9
ATOM      9  C   UNL     1       6.430   3.594  12.098  0.00  0.00    +0.000 C 
BRANCH   9  10
ATOM     10  C   UNL     1       5.386   2.531  11.760  0.00  0.00    +0.000 C 
ATOM     11  C   UNL     1       4.130   3.159  11.183  0.00  0.00    +0.000 C 
ENDBRANCH   9  10
ENDBRANCH   8   9
ENDBRANCH   7   8
ENDBRANCH   6   7
BRANCH   6  12
ATOM     12  C   UNL     1       6.979   5.187  16.109  0.00  0.00    +0.000 C 
BRANCH  12  13
ATOM     13  C   UNL     1       7.519   4.555  17.391  0.00  0.00    +0.000 C 
BRANCH  13  15
ATOM     14  C   UNL     1       8.166   6.297  19.063  0.00  0.00    +0.000 C 
ATOM     15  C   UNL     1       7.250   5.461  18.584  0.00  0.00    +0.000 C 
ENDBRANCH  13  15
ENDBRANCH  12  13
ENDBRANCH   6  12
ENDBRANCH   5   6
ENDBRANCH   3   5
ENDBRANCH   1   3
BRANCH   2  16
ATOM     16  C   UNL     1       3.657   1.934  18.967  0.00  0.00    +0.000 C 
BRANCH  16  17
ATOM     17  O   UNL     1       4.248   1.046  18.016  0.00  0.00    +0.000 OA
ATOM     18  H   UNL     1       3.483   0.574  17.622  0.00  0.00    +0.000 HD
ENDBRANCH  16  17
BRANCH  16  19
ATOM     19  C   UNL     1       2.111   1.734  18.955  0.00  0.00    +0.000 C 
BRANCH  19  20
ATOM     20  O   UNL     1       1.683   1.901  17.595  0.00  0.00    +0.000 OA
ATOM     21  H   UNL     1       2.471   1.911  17.028  0.00  0.00    +0.000 HD
ENDBRANCH  19  20
BRANCH  19  22
ATOM     22  C   UNL     1       1.394   2.670  19.958  0.00  0.00    +0.000 C 
BRANCH  22  23
ATOM     23  C   UNL     1       2.112   2.898  21.298  0.00  0.00    +0.000 C 
BRANCH  23  24
ATOM     24  O   UNL     1       1.295   2.339  22.334  0.00  0.00    +0.000 OA
ATOM     25  H   UNL     1       0.413   2.168  21.962  0.00  0.00    +0.000 HD
ENDBRANCH  23  24
BRANCH  23  26
ATOM     26  C   UNL     1       2.319   4.413  21.552  0.00  0.00    +0.000 C 
BRANCH  26  27
ATOM     27  C   UNL     1       1.428   5.304  20.721  0.00  0.00    +0.000 C 
ATOM     28  C   UNL     1       1.655   6.600  20.505  0.00  0.00    +0.000 C 
ENDBRANCH  26  27
ENDBRANCH  23  26
ENDBRANCH  22  23
ENDBRANCH  19  22
ENDBRANCH  16  19
ENDBRANCH   2  16
TORSDOF 19
ENDMDL
MODEL 2
REMARK VINA RESULT:      -6.4      1.089      1.273
REMARK  Name = 
REMARK  20 active torsions:
REMARK  status: ('A' for Active; 'I' for Inactive)
REMARK    1  A    between atoms: C_2  and  C_3
REMARK    2  A    between atoms: C_3  and  C_4
REMARK    3  A    between atoms: C_4  and  C_5
REMARK    4  A    between atoms: C_5  and  C_6
REMARK    5  A    between atoms: C_5  and  O_11
REMARK    6  A    between atoms: C_6  and  C_7
REMARK    7  A    between atoms: C_7  and  C_8
REMARK    8  A    between atoms: C_8  and  C_9
REMARK    9  A    between atoms: C_9  and  C_10
REMARK   10  A    between atoms: O_11  and  C_12
REMARK   11  A    between atoms: C_12  and  C_14
REMARK   12  A    between atoms: C_15  and  C_16
REMARK   13  A    between atoms: C_16  and  O_17
REMARK   14  A    between atoms: C_16  and  C_18
REMARK   15  A    between atoms: C_18  and  O_19
REMARK   16  A    between atoms: C_18  and  C_20
REMARK   17  A    between atoms: C_20  and  C_21
REMARK   18  A    between atoms: C_21  and  O_22
REMARK   19  A    between atoms: C_21  and  C_23
REMARK   20  A    between atoms: C_23  and  C_24
REMARK                            x       y       z     vdW  Elec       q    Type
REMARK                         _______ _______ _______ _____ _____    ______ ____
ROOT
ATOM      1  C   UNL     1       4.266   4.864  18.040  0.00  0.00    +0.000 C 
ATOM      2  C   UNL     1       3.450   3.834  17.755  0.00  0.00    +0.000 C 
ENDROOT
BRANCH   1   3
ATOM      3  C   UNL     1       4.323   6.056  17.152  0.00  0.00    +0.000 C 
ATOM      4  O   UNL     1       3.537   6.990  17.208  0.00  0.00    +0.000 OA
BRANCH   3   5
ATOM      5  O   UNL     1       5.254   5.810  16.199  0.00  0.00    +0.000 OA
BRANCH   5   6
ATOM      6  C   UNL     1       6.231   4.813  16.541  0.00  0.00    +0.000 C 
BRANCH   6   7
ATOM      7  C   UNL     1       6.334   3.763  15.424  0.00  0.00    +0.000 C 
BRANCH   7   8
ATOM      8  C   UNL     1       5.641   4.222  14.135  0.00  0.00    +0.000 C 
BRANCH   8   9
ATOM      9  C   UNL     1       6.466   3.877  12.903  0.00  0.00    +0.000 C 
BRANCH   9  10
ATOM     10  C   UNL     1       5.719   2.894  12.003  0.00  0.00    +0.000 C 
ATOM     11  C   UNL     1       4.361   3.441  11.599  0.00  0.00    +0.000 C 
ENDBRANCH   9  10
ENDBRANCH   8   9
ENDBRANCH   7   8
ENDBRANCH   6   7
BRANCH   6  12
ATOM     12  C   UNL     1       7.598   5.505  16.759  0.00  0.00    +0.000 C 
BRANCH  12  13
ATOM     13  C   UNL     1       7.636   6.480  17.935  0.00  0.00    +0.000 C 
BRANCH  13  15
ATOM     14  C   UNL     1       8.250   8.897  18.101  0.00  0.00    +0.000 C 
ATOM     15  C   UNL     1       7.649   7.917  17.434  0.00  0.00    +0.000 C 
ENDBRANCH  13  15
ENDBRANCH  12  13
ENDBRANCH   6  12
ENDBRANCH   5   6
ENDBRANCH   3   5
ENDBRANCH   1   3
BRANCH   2  16
ATOM     16  C   UNL     1       3.406   2.510  18.476  0.00  0.00    +0.000 C 
BRANCH  16  17
ATOM     17  O   UNL     1       4.055   1.517  17.678  0.00  0.00    +0.000 OA
ATOM     18  H   UNL     1       4.251   1.979  16.835  0.00  0.00    +0.000 HD
ENDBRANCH  16  17
BRANCH  16  19
ATOM     19  C   UNL     1       1.966   2.022  18.819  0.00  0.00    +0.000 C 
BRANCH  19  20
ATOM     20  O   UNL     1       1.073   2.722  17.939  0.00  0.00    +0.000 OA
ATOM     21  H   UNL     1       1.484   3.568  17.700  0.00  0.00    +0.000 HD
ENDBRANCH  19  20
BRANCH  19  22
ATOM     22  C   UNL     1       1.633   2.198  20.320  0.00  0.00    +0.000 C 
BRANCH  22  23
ATOM     23  C   UNL     1       2.126   3.501  20.972  0.00  0.00    +0.000 C 
BRANCH  23  24
ATOM     24  O   UNL     1       2.265   3.262  22.378  0.00  0.00    +0.000 OA
ATOM     25  H   UNL     1       2.882   2.521  22.498  0.00  0.00    +0.000 HD
ENDBRANCH  23  24
BRANCH  23  26
ATOM     26  C   UNL     1       1.111   4.646  20.731  0.00  0.00    +0.000 C 
BRANCH  26  27
ATOM     27  C   UNL     1       1.713   5.881  20.105  0.00  0.00    +0.000 C 
ATOM     28  C   UNL     1       1.887   7.038  20.745  0.00  0.00    +0.000 C 
ENDBRANCH  26  27
ENDBRANCH  23  26
ENDBRANCH  22  23
ENDBRANCH  19  22
ENDBRANCH  16  19
ENDBRANCH   2  16
TORSDOF 19
ENDMDL
MODEL 3
REMARK VINA RESULT:      -6.4      1.309      1.787
REMARK  Name = 
REMARK  20 active torsions:
REMARK  status: ('A' for Active; 'I' for Inactive)
REMARK    1  A    between atoms: C_2  and  C_3
REMARK    2  A    between atoms: C_3  and  C_4
REMARK    3  A    between atoms: C_4  and  C_5
REMARK    4  A    between atoms: C_5  and  C_6
REMARK    5  A    between atoms: C_5  and  O_11
REMARK    6  A    between atoms: C_6  and  C_7
REMARK    7  A    between atoms: C_7  and  C_8
REMARK    8  A    between atoms: C_8  and  C_9
REMARK    9  A    between atoms: C_9  and  C_10
REMARK   10  A    between atoms: O_11  and  C_12
REMARK   11  A    between atoms: C_12  and  C_14
REMARK   12  A    between atoms: C_15  and  C_16
REMARK   13  A    between atoms: C_16  and  O_17
REMARK   14  A    between atoms: C_16  and  C_18
REMARK   15  A    between atoms: C_18  and  O_19
REMARK   16  A    between atoms: C_18  and  C_20
REMARK   17  A    between atoms: C_20  and  C_21
REMARK   18  A    between atoms: C_21  and  O_22
REMARK   19  A    between atoms: C_21  and  C_23
REMARK   20  A    between atoms: C_23  and  C_24
REMARK                            x       y       z     vdW  Elec       q    Type
REMARK                         _______ _______ _______ _____ _____    ______ ____
ROOT
ATOM      1  C   UNL     1       3.731   5.261  17.860  0.00  0.00    +0.000 C 
ATOM      2  C   UNL     1       2.509   4.722  17.702  0.00  0.00    +0.000 C 
ENDROOT
BRANCH   1   3
ATOM      3  C   UNL     1       3.947   6.720  17.672  0.00  0.00    +0.000 C 
ATOM      4  O   UNL     1       3.061   7.559  17.747  0.00  0.00    +0.000 OA
BRANCH   3   5
ATOM      5  O   UNL     1       5.218   6.892  17.235  0.00  0.00    +0.000 OA
BRANCH   5   6
ATOM      6  C   UNL     1       5.898   5.688  16.844  0.00  0.00    +0.000 C 
BRANCH   6   7
ATOM      7  C   UNL     1       5.828   5.507  15.321  0.00  0.00    +0.000 C 
BRANCH   7   8
ATOM      8  C   UNL     1       6.554   4.240  14.855  0.00  0.00    +0.000 C 
BRANCH   8   9
ATOM      9  C   UNL     1       6.483   4.078  13.343  0.00  0.00    +0.000 C 
BRANCH   9  10
ATOM     10  C   UNL     1       5.146   3.470  12.921  0.00  0.00    +0.000 C 
ATOM     11  C   UNL     1       5.240   2.837  11.545  0.00  0.00    +0.000 C 
ENDBRANCH   9  10
ENDBRANCH   8   9
ENDBRANCH   7   8
ENDBRANCH   6   7
BRANCH   6  12
ATOM     12  C   UNL     1       7.372   5.771  17.311  0.00  0.00    +0.000 C 
BRANCH  12  13
ATOM     13  C   UNL     1       7.657   6.886  18.316  0.00  0.00    +0.000 C 
BRANCH  13  15
ATOM     14  C   UNL     1       8.465   9.249  18.227  0.00  0.00    +0.000 C 
ATOM     15  C   UNL     1       7.991   8.183  17.593  0.00  0.00    +0.000 C 
ENDBRANCH  13  15
ENDBRANCH  12  13
ENDBRANCH   6  12
ENDBRANCH   5   6
ENDBRANCH   3   5
ENDBRANCH   1   3
BRANCH   2  16
ATOM     16  C   UNL     1       2.180   3.250  17.709  0.00  0.00    +0.000 C 
BRANCH  16  17
ATOM     17  O   UNL     1       0.761   3.085  17.755  0.00  0.00    +0.000 OA
ATOM     18  H   UNL     1       0.490   3.573  18.562  0.00  0.00    +0.000 HD
ENDBRANCH  16  17
BRANCH  16  19
ATOM     19  C   UNL     1       2.820   2.463  18.892  0.00  0.00    +0.000 C 
BRANCH  19  20
ATOM     20  O   UNL     1       3.334   1.239  18.345  0.00  0.00    +0.000 OA
ATOM     21  H   UNL     1       4.097   1.454  17.785  0.00  0.00    +0.000 HD
ENDBRANCH  19  20
BRANCH  19  22
ATOM     22  C   UNL     1       1.827   2.259  20.061  0.00  0.00    +0.000 C 
BRANCH  22  23
ATOM     23  C   UNL     1       2.305   2.738  21.443  0.00  0.00    +0.000 C 
BRANCH  23  24
ATOM     24  O   UNL     1       1.262   2.462  22.386  0.00  0.00    +0.000 OA
ATOM     25  H   UNL     1       1.169   3.236  22.966  0.00  0.00    +0.000 HD
ENDBRANCH  23  24
BRANCH  23  26
ATOM     26  C   UNL     1       2.602   4.258  21.418  0.00  0.00    +0.000 C 
BRANCH  26  27
ATOM     27  C   UNL     1       1.475   5.097  20.865  0.00  0.00    +0.000 C 
ATOM     28  C   UNL     1       1.537   6.417  20.694  0.00  0.00    +0.000 C 
ENDBRANCH  26  27
ENDBRANCH  23  26
ENDBRANCH  22  23
ENDBRANCH  19  22
ENDBRANCH  16  19
ENDBRANCH   2  16
TORSDOF 19
ENDMDL
MODEL 4
REMARK VINA RESULT:      -6.3      2.252      7.523
REMARK  Name = 
REMARK  20 active torsions:
REMARK  status: ('A' for Active; 'I' for Inactive)
REMARK    1  A    between atoms: C_2  and  C_3
REMARK    2  A    between atoms: C_3  and  C_4
REMARK    3  A    between atoms: C_4  and  C_5
REMARK    4  A    between atoms: C_5  and  C_6
REMARK    5  A    between atoms: C_5  and  O_11
REMARK    6  A    between atoms: C_6  and  C_7
REMARK    7  A    between atoms: C_7  and  C_8
REMARK    8  A    between atoms: C_8  and  C_9
REMARK    9  A    between atoms: C_9  and  C_10
REMARK   10  A    between atoms: O_11  and  C_12
REMARK   11  A    between atoms: C_12  and  C_14
REMARK   12  A    between atoms: C_15  and  C_16
REMARK   13  A    between atoms: C_16  and  O_17
REMARK   14  A    between atoms: C_16  and  C_18
REMARK   15  A    between atoms: C_18  and  O_19
REMARK   16  A    between atoms: C_18  and  C_20
REMARK   17  A    between atoms: C_20  and  C_21
REMARK   18  A    between atoms: C_21  and  O_22
REMARK   19  A    between atoms: C_21  and  C_23
REMARK   20  A    between atoms: C_23  and  C_24
REMARK                            x       y       z     vdW  Elec       q    Type
REMARK                         _______ _______ _______ _____ _____    ______ ____
ROOT
ATOM      1  C   UNL     1       6.273   4.859  17.953  0.00  0.00    +0.000 C 
ATOM      2  C   UNL     1       6.210   4.206  16.779  0.00  0.00    +0.000 C 
ENDROOT
BRANCH   1   3
ATOM      3  C   UNL     1       5.361   4.500  19.072  0.00  0.00    +0.000 C 
ATOM      4  O   UNL     1       5.299   3.389  19.575  0.00  0.00    +0.000 OA
BRANCH   3   5
ATOM      5  O   UNL     1       4.528   5.550  19.271  0.00  0.00    +0.000 OA
BRANCH   5   6
ATOM      6  C   UNL     1       3.666   5.866  18.164  0.00  0.00    +0.000 C 
BRANCH   6   7
ATOM      7  C   UNL     1       2.250   5.331  18.423  0.00  0.00    +0.000 C 
BRANCH   7   8
ATOM      8  C   UNL     1       1.847   5.452  19.898  0.00  0.00    +0.000 C 
BRANCH   8   9
ATOM      9  C   UNL     1       1.348   4.125  20.452  0.00  0.00    +0.000 C 
BRANCH   9  10
ATOM     10  C   UNL     1       2.157   3.707  21.679  0.00  0.00    +0.000 C 
ATOM     11  C   UNL     1       2.650   2.277  21.550  0.00  0.00    +0.000 C 
ENDBRANCH   9  10
ENDBRANCH   8   9
ENDBRANCH   7   8
ENDBRANCH   6   7
BRANCH   6  12
ATOM     12  C   UNL     1       3.638   7.402  17.975  0.00  0.00    +0.000 C 
BRANCH  12  13
ATOM     13  C   UNL     1       2.324   7.949  17.420  0.00  0.00    +0.000 C 
BRANCH  13  15
ATOM     14  C   UNL     1       0.949   9.692  18.568  0.00  0.00    +0.000 C 
ATOM     15  C   UNL     1       2.072   9.357  17.941  0.00  0.00    +0.000 C 
ENDBRANCH  13  15
ENDBRANCH  12  13
ENDBRANCH   6  12
ENDBRANCH   5   6
ENDBRANCH   3   5
ENDBRANCH   1   3
BRANCH   2  16
ATOM     16  C   UNL     1       6.960   4.566  15.521  0.00  0.00    +0.000 C 
BRANCH  16  17
ATOM     17  O   UNL     1       7.647   5.803  15.721  0.00  0.00    +0.000 OA
ATOM     18  H   UNL     1       7.190   6.430  15.121  0.00  0.00    +0.000 HD
ENDBRANCH  16  17
BRANCH  16  19
ATOM     19  C   UNL     1       6.056   4.687  14.257  0.00  0.00    +0.000 C 
BRANCH  19  20
ATOM     20  O   UNL     1       4.709   4.437  14.687  0.00  0.00    +0.000 OA
ATOM     21  H   UNL     1       4.609   3.482  14.834  0.00  0.00    +0.000 HD
ENDBRANCH  19  20
BRANCH  19  22
ATOM     22  C   UNL     1       6.530   3.762  13.111  0.00  0.00    +0.000 C 
BRANCH  22  23
ATOM     23  C   UNL     1       5.427   2.990  12.368  0.00  0.00    +0.000 C 
BRANCH  23  24
ATOM     24  O   UNL     1       6.051   1.918  11.649  0.00  0.00    +0.000 OA
ATOM     25  H   UNL     1       6.844   2.271  11.212  0.00  0.00    +0.000 HD
ENDBRANCH  23  24
BRANCH  23  26
ATOM     26  C   UNL     1       4.683   3.921  11.379  0.00  0.00    +0.000 C 
BRANCH  26  27
ATOM     27  C   UNL     1       3.494   3.280  10.705  0.00  0.00    +0.000 C 
ATOM     28  C   UNL     1       2.877   3.783   9.635  0.00  0.00    +0.000 C 
ENDBRANCH  26  27
ENDBRANCH  23  26
ENDBRANCH  22  23
ENDBRANCH  19  22
ENDBRANCH  16  19
ENDBRANCH   2  16
TORSDOF 19
ENDMDL
MODEL 5
REMARK VINA RESULT:      -6.2      1.716      4.366
REMARK  Name = 
REMARK  20 active torsions:
REMARK  status: ('A' for Active; 'I' for Inactive)
REMARK    1  A    between atoms: C_2  and  C_3
REMARK    2  A    between atoms: C_3  and  C_4
REMARK    3  A    between atoms: C_4  and  C_5
REMARK    4  A    between atoms: C_5  and  C_6
REMARK    5  A    between atoms: C_5  and  O_11
REMARK    6  A    between atoms: C_6  and  C_7
REMARK    7  A    between atoms: C_7  and  C_8
REMARK    8  A    between atoms: C_8  and  C_9
REMARK    9  A    between atoms: C_9  and  C_10
REMARK   10  A    between atoms: O_11  and  C_12
REMARK   11  A    between atoms: C_12  and  C_14
REMARK   12  A    between atoms: C_15  and  C_16
REMARK   13  A    between atoms: C_16  and  O_17
REMARK   14  A    between atoms: C_16  and  C_18
REMARK   15  A    between atoms: C_18  and  O_19
REMARK   16  A    between atoms: C_18  and  C_20
REMARK   17  A    between atoms: C_20  and  C_21
REMARK   18  A    between atoms: C_21  and  O_22
REMARK   19  A    between atoms: C_21  and  C_23
REMARK   20  A    between atoms: C_23  and  C_24
REMARK                            x       y       z     vdW  Elec       q    Type
REMARK                         _______ _______ _______ _____ _____    ______ ____
ROOT
ATOM      1  C   UNL     1       3.858   4.951  18.305  0.00  0.00    +0.000 C 
ATOM      2  C   UNL     1       3.324   3.791  17.884  0.00  0.00    +0.000 C 
ENDROOT
BRANCH   1   3
ATOM      3  C   UNL     1       3.818   6.163  17.443  0.00  0.00    +0.000 C 
ATOM      4  O   UNL     1       3.137   7.150  17.681  0.00  0.00    +0.000 OA
BRANCH   3   5
ATOM      5  O   UNL     1       4.501   5.879  16.309  0.00  0.00    +0.000 OA
BRANCH   5   6
ATOM      6  C   UNL     1       5.808   6.470  16.217  0.00  0.00    +0.000 C 
BRANCH   6   7
ATOM      7  C   UNL     1       6.184   7.138  17.549  0.00  0.00    +0.000 C 
BRANCH   7   8
ATOM      8  C   UNL     1       7.689   7.410  17.654  0.00  0.00    +0.000 C 
BRANCH   8   9
ATOM      9  C   UNL     1       7.993   8.901  17.622  0.00  0.00    +0.000 C 
BRANCH   9  10
ATOM     10  C   UNL     1       8.809   9.318  18.844  0.00  0.00    +0.000 C 
ATOM     11  C   UNL     1       9.388  10.711  18.669  0.00  0.00    +0.000 C 
ENDBRANCH   9  10
ENDBRANCH   8   9
ENDBRANCH   7   8
ENDBRANCH   6   7
BRANCH   6  12
ATOM     12  C   UNL     1       6.833   5.367  15.857  0.00  0.00    +0.000 C 
BRANCH  12  13
ATOM     13  C   UNL     1       6.212   4.038  15.431  0.00  0.00    +0.000 C 
BRANCH  13  15
ATOM     14  C   UNL     1       7.031   4.432  13.103  0.00  0.00    +0.000 C 
ATOM     15  C   UNL     1       6.086   3.970  13.916  0.00  0.00    +0.000 C 
ENDBRANCH  13  15
ENDBRANCH  12  13
ENDBRANCH   6  12
ENDBRANCH   5   6
ENDBRANCH   3   5
ENDBRANCH   1   3
BRANCH   2  16
ATOM     16  C   UNL     1       3.431   2.459  18.583  0.00  0.00    +0.000 C 
BRANCH  16  17
ATOM     17  O   UNL     1       2.187   1.765  18.466  0.00  0.00    +0.000 OA
ATOM     18  H   UNL     1       2.431   0.901  18.071  0.00  0.00    +0.000 HD
ENDBRANCH  16  17
BRANCH  16  19
ATOM     19  C   UNL     1       3.813   2.563  20.091  0.00  0.00    +0.000 C 
BRANCH  19  20
ATOM     20  O   UNL     1       4.993   1.766  20.274  0.00  0.00    +0.000 OA
ATOM     21  H   UNL     1       4.874   1.224  21.070  0.00  0.00    +0.000 HD
ENDBRANCH  19  20
BRANCH  19  22
ATOM     22  C   UNL     1       2.640   2.168  21.018  0.00  0.00    +0.000 C 
BRANCH  22  23
ATOM     23  C   UNL     1       1.659   3.295  21.382  0.00  0.00    +0.000 C 
BRANCH  23  24
ATOM     24  O   UNL     1       0.565   3.239  20.458  0.00  0.00    +0.000 OA
ATOM     25  H   UNL     1       0.206   4.138  20.363  0.00  0.00    +0.000 HD
ENDBRANCH  23  24
BRANCH  23  26
ATOM     26  C   UNL     1       2.357   4.675  21.286  0.00  0.00    +0.000 C 
BRANCH  26  27
ATOM     27  C   UNL     1       1.587   5.701  20.491  0.00  0.00    +0.000 C 
ATOM     28  C   UNL     1       1.247   6.905  20.951  0.00  0.00    +0.000 C 
ENDBRANCH  26  27
ENDBRANCH  23  26
ENDBRANCH  22  23
ENDBRANCH  19  22
ENDBRANCH  16  19
ENDBRANCH   2  16
TORSDOF 19
ENDMDL
MODEL 6
REMARK VINA RESULT:      -6.2      4.126      6.984
REMARK  Name = 
REMARK  20 active torsions:
REMARK  status: ('A' for Active; 'I' for Inactive)
REMARK    1  A    between atoms: C_2  and  C_3
REMARK    2  A    between atoms: C_3  and  C_4
REMARK    3  A    between atoms: C_4  and  C_5
REMARK    4  A    between atoms: C_5  and  C_6
REMARK    5  A    between atoms: C_5  and  O_11
REMARK    6  A    between atoms: C_6  and  C_7
REMARK    7  A    between atoms: C_7  and  C_8
REMARK    8  A    between atoms: C_8  and  C_9
REMARK    9  A    between atoms: C_9  and  C_10
REMARK   10  A    between atoms: O_11  and  C_12
REMARK   11  A    between atoms: C_12  and  C_14
REMARK   12  A    between atoms: C_15  and  C_16
REMARK   13  A    between atoms: C_16  and  O_17
REMARK   14  A    between atoms: C_16  and  C_18
REMARK   15  A    between atoms: C_18  and  O_19
REMARK   16  A    between atoms: C_18  and  C_20
REMARK   17  A    between atoms: C_20  and  C_21
REMARK   18  A    between atoms: C_21  and  O_22
REMARK   19  A    between atoms: C_21  and  C_23
REMARK   20  A    between atoms: C_23  and  C_24
REMARK                            x       y       z     vdW  Elec       q    Type
REMARK                         _______ _______ _______ _____ _____    ______ ____
ROOT
ATOM      1  C   UNL     1       2.036   7.120  18.331  0.00  0.00    +0.000 C 
ATOM      2  C   UNL     1       1.869   8.374  18.789  0.00  0.00    +0.000 C 
ENDROOT
BRANCH   1   3
ATOM      3  C   UNL     1       2.874   6.144  19.077  0.00  0.00    +0.000 C 
ATOM      4  O   UNL     1       2.633   5.762  20.213  0.00  0.00    +0.000 OA
BRANCH   3   5
ATOM      5  O   UNL     1       3.998   5.932  18.351  0.00  0.00    +0.000 OA
BRANCH   5   6
ATOM      6  C   UNL     1       3.934   4.829  17.433  0.00  0.00    +0.000 C 
BRANCH   6   7
ATOM      7  C   UNL     1       4.961   5.015  16.305  0.00  0.00    +0.000 C 
BRANCH   7   8
ATOM      8  C   UNL     1       5.731   6.334  16.437  0.00  0.00    +0.000 C 
BRANCH   8   9
ATOM      9  C   UNL     1       7.204   6.095  16.737  0.00  0.00    +0.000 C 
BRANCH   9  10
ATOM     10  C   UNL     1       7.607   6.752  18.056  0.00  0.00    +0.000 C 
ATOM     11  C   UNL     1       7.603   5.748  19.194  0.00  0.00    +0.000 C 
ENDBRANCH   9  10
ENDBRANCH   8   9
ENDBRANCH   7   8
ENDBRANCH   6   7
BRANCH   6  12
ATOM     12  C   UNL     1       4.212   3.517  18.206  0.00  0.00    +0.000 C 
BRANCH  12  13
ATOM     13  C   UNL     1       3.293   2.354  17.836  0.00  0.00    +0.000 C 
BRANCH  13  15
ATOM     14  C   UNL     1       1.027   2.825  18.780  0.00  0.00    +0.000 C 
ATOM     15  C   UNL     1       2.193   2.194  18.875  0.00  0.00    +0.000 C 
ENDBRANCH  13  15
ENDBRANCH  12  13
ENDBRANCH   6  12
ENDBRANCH   5   6
ENDBRANCH   3   5
ENDBRANCH   1   3
BRANCH   2  16
ATOM     16  C   UNL     1       1.180   9.501  18.061  0.00  0.00    +0.000 C 
BRANCH  16  17
ATOM     17  O   UNL     1       2.161  10.298  17.393  0.00  0.00    +0.000 OA
ATOM     18  H   UNL     1       2.767   9.642  16.988  0.00  0.00    +0.000 HD
ENDBRANCH  16  17
BRANCH  16  19
ATOM     19  C   UNL     1       0.322  10.420  18.982  0.00  0.00    +0.000 C 
BRANCH  19  20
ATOM     20  O   UNL     1       0.730  10.147  20.332  0.00  0.00    +0.000 OA
ATOM     21  H   UNL     1       0.610  10.956  20.855  0.00  0.00    +0.000 HD
ENDBRANCH  19  20
BRANCH  19  22
ATOM     22  C   UNL     1      -1.194  10.239  18.736  0.00  0.00    +0.000 C 
BRANCH  22  23
ATOM     23  C   UNL     1      -1.666  10.403  17.282  0.00  0.00    +0.000 C 
BRANCH  23  24
ATOM     24  O   UNL     1      -1.613  11.799  16.959  0.00  0.00    +0.000 OA
ATOM     25  H   UNL     1      -2.486  12.063  16.622  0.00  0.00    +0.000 HD
ENDBRANCH  23  24
BRANCH  23  26
ATOM     26  C   UNL     1      -3.115   9.881  17.118  0.00  0.00    +0.000 C 
BRANCH  26  27
ATOM     27  C   UNL     1      -4.103  10.934  16.678  0.00  0.00    +0.000 C 
ATOM     28  C   UNL     1      -5.084  11.410  17.444  0.00  0.00    +0.000 C 
ENDBRANCH  26  27
ENDBRANCH  23  26
ENDBRANCH  22  23
ENDBRANCH  19  22
ENDBRANCH  16  19
ENDBRANCH   2  16
TORSDOF 19
ENDMDL
MODEL 7
REMARK VINA RESULT:      -6.1      1.114      1.505
REMARK  Name = 
REMARK  20 active torsions:
REMARK  status: ('A' for Active; 'I' for Inactive)
REMARK    1  A    between atoms: C_2  and  C_3
REMARK    2  A    between atoms: C_3  and  C_4
REMARK    3  A    between atoms: C_4  and  C_5
REMARK    4  A    between atoms: C_5  and  C_6
REMARK    5  A    between atoms: C_5  and  O_11
REMARK    6  A    between atoms: C_6  and  C_7
REMARK    7  A    between atoms: C_7  and  C_8
REMARK    8  A    between atoms: C_8  and  C_9
REMARK    9  A    between atoms: C_9  and  C_10
REMARK   10  A    between atoms: O_11  and  C_12
REMARK   11  A    between atoms: C_12  and  C_14
REMARK   12  A    between atoms: C_15  and  C_16
REMARK   13  A    between atoms: C_16  and  O_17
REMARK   14  A    between atoms: C_16  and  C_18
REMARK   15  A    between atoms: C_18  and  O_19
REMARK   16  A    between atoms: C_18  and  C_20
REMARK   17  A    between atoms: C_20  and  C_21
REMARK   18  A    between atoms: C_21  and  O_22
REMARK   19  A    between atoms: C_21  and  C_23
REMARK   20  A    between atoms: C_23  and  C_24
REMARK                            x       y       z     vdW  Elec       q    Type
REMARK                         _______ _______ _______ _____ _____    ______ ____
ROOT
ATOM      1  C   UNL     1       3.969   5.066  16.559  0.00  0.00    +0.000 C 
ATOM      2  C   UNL     1       4.067   4.202  17.585  0.00  0.00    +0.000 C 
ENDROOT
BRANCH   1   3
ATOM      3  C   UNL     1       4.638   6.393  16.617  0.00  0.00    +0.000 C 
ATOM      4  O   UNL     1       4.188   7.361  17.212  0.00  0.00    +0.000 OA
BRANCH   3   5
ATOM      5  O   UNL     1       5.688   6.359  15.761  0.00  0.00    +0.000 OA
BRANCH   5   6
ATOM      6  C   UNL     1       6.307   5.072  15.603  0.00  0.00    +0.000 C 
BRANCH   6   7
ATOM      7  C   UNL     1       6.877   4.927  14.184  0.00  0.00    +0.000 C 
BRANCH   7   8
ATOM      8  C   UNL     1       6.397   3.643  13.497  0.00  0.00    +0.000 C 
BRANCH   8   9
ATOM      9  C   UNL     1       5.033   3.831  12.849  0.00  0.00    +0.000 C 
BRANCH   9  10
ATOM     10  C   UNL     1       4.875   2.922  11.631  0.00  0.00    +0.000 C 
ATOM     11  C   UNL     1       3.689   3.342  10.782  0.00  0.00    +0.000 C 
ENDBRANCH   9  10
ENDBRANCH   8   9
ENDBRANCH   7   8
ENDBRANCH   6   7
BRANCH   6  12
ATOM     12  C   UNL     1       7.433   4.925  16.655  0.00  0.00    +0.000 C 
BRANCH  12  13
ATOM     13  C   UNL     1       7.573   6.113  17.605  0.00  0.00    +0.000 C 
BRANCH  13  15
ATOM     14  C   UNL     1       8.221   5.567  19.956  0.00  0.00    +0.000 C 
ATOM     15  C   UNL     1       7.271   5.690  19.035  0.00  0.00    +0.000 C 
ENDBRANCH  13  15
ENDBRANCH  12  13
ENDBRANCH   6  12
ENDBRANCH   5   6
ENDBRANCH   3   5
ENDBRANCH   1   3
BRANCH   2  16
ATOM     16  C   UNL     1       3.320   2.900  17.723  0.00  0.00    +0.000 C 
BRANCH  16  17
ATOM     17  O   UNL     1       1.945   3.108  17.391  0.00  0.00    +0.000 OA
ATOM     18  H   UNL     1       1.956   3.273  16.424  0.00  0.00    +0.000 HD
ENDBRANCH  16  17
BRANCH  16  19
ATOM     19  C   UNL     1       3.406   2.268  19.146  0.00  0.00    +0.000 C 
BRANCH  19  20
ATOM     20  O   UNL     1       4.399   1.233  19.078  0.00  0.00    +0.000 OA
ATOM     21  H   UNL     1       4.461   0.814  19.952  0.00  0.00    +0.000 HD
ENDBRANCH  19  20
BRANCH  19  22
ATOM     22  C   UNL     1       2.027   1.782  19.653  0.00  0.00    +0.000 C 
BRANCH  22  23
ATOM     23  C   UNL     1       1.322   2.697  20.668  0.00  0.00    +0.000 C 
BRANCH  23  24
ATOM     24  O   UNL     1       0.123   3.188  20.055  0.00  0.00    +0.000 OA
ATOM     25  H   UNL     1       0.173   3.000  19.103  0.00  0.00    +0.000 HD
ENDBRANCH  23  24
BRANCH  23  26
ATOM     26  C   UNL     1       2.237   3.884  21.057  0.00  0.00    +0.000 C 
BRANCH  26  27
ATOM     27  C   UNL     1       1.685   5.238  20.679  0.00  0.00    +0.000 C 
ATOM     28  C   UNL     1       2.357   6.155  19.984  0.00  0.00    +0.000 C 
ENDBRANCH  26  27
ENDBRANCH  23  26
ENDBRANCH  22  23
ENDBRANCH  19  22
ENDBRANCH  16  19
ENDBRANCH   2  16
TORSDOF 19
ENDMDL
MODEL 8
REMARK VINA RESULT:      -6.1      3.568      5.429
REMARK  Name = 
REMARK  20 active torsions:
REMARK  status: ('A' for Active; 'I' for Inactive)
REMARK    1  A    between atoms: C_2  and  C_3
REMARK    2  A    between atoms: C_3  and  C_4
REMARK    3  A    between atoms: C_4  and  C_5
REMARK    4  A    between atoms: C_5  and  C_6
REMARK    5  A    between atoms: C_5  and  O_11
REMARK    6  A    between atoms: C_6  and  C_7
REMARK    7  A    between atoms: C_7  and  C_8
REMARK    8  A    between atoms: C_8  and  C_9
REMARK    9  A    between atoms: C_9  and  C_10
REMARK   10  A    between atoms: O_11  and  C_12
REMARK   11  A    between atoms: C_12  and  C_14
REMARK   12  A    between atoms: C_15  and  C_16
REMARK   13  A    between atoms: C_16  and  O_17
REMARK   14  A    between atoms: C_16  and  C_18
REMARK   15  A    between atoms: C_18  and  O_19
REMARK   16  A    between atoms: C_18  and  C_20
REMARK   17  A    between atoms: C_20  and  C_21
REMARK   18  A    between atoms: C_21  and  O_22
REMARK   19  A    between atoms: C_21  and  C_23
REMARK   20  A    between atoms: C_23  and  C_24
REMARK                            x       y       z     vdW  Elec       q    Type
REMARK                         _______ _______ _______ _____ _____    ______ ____
ROOT
ATOM      1  C   UNL     1       2.428   6.348  18.254  0.00  0.00    +0.000 C 
ATOM      2  C   UNL     1       2.556   7.652  18.558  0.00  0.00    +0.000 C 
ENDROOT
BRANCH   1   3
ATOM      3  C   UNL     1       3.551   5.402  18.484  0.00  0.00    +0.000 C 
ATOM      4  O   UNL     1       4.224   5.373  19.504  0.00  0.00    +0.000 OA
BRANCH   3   5
ATOM      5  O   UNL     1       3.781   4.750  17.319  0.00  0.00    +0.000 OA
BRANCH   5   6
ATOM      6  C   UNL     1       5.144   4.771  16.864  0.00  0.00    +0.000 C 
BRANCH   6   7
ATOM      7  C   UNL     1       5.338   3.767  15.718  0.00  0.00    +0.000 C 
BRANCH   7   8
ATOM      8  C   UNL     1       5.477   4.461  14.358  0.00  0.00    +0.000 C 
BRANCH   8   9
ATOM      9  C   UNL     1       6.764   4.058  13.652  0.00  0.00    +0.000 C 
BRANCH   9  10
ATOM     10  C   UNL     1       6.486   3.626  12.213  0.00  0.00    +0.000 C 
ATOM     11  C   UNL     1       5.021   3.278  12.018  0.00  0.00    +0.000 C 
ENDBRANCH   9  10
ENDBRANCH   8   9
ENDBRANCH   7   8
ENDBRANCH   6   7
BRANCH   6  12
ATOM     12  C   UNL     1       5.492   6.204  16.392  0.00  0.00    +0.000 C 
BRANCH  12  13
ATOM     13  C   UNL     1       6.626   6.870  17.168  0.00  0.00    +0.000 C 
BRANCH  13  15
ATOM     14  C   UNL     1       7.809   5.912  19.151  0.00  0.00    +0.000 C 
ATOM     15  C   UNL     1       7.481   5.822  17.866  0.00  0.00    +0.000 C 
ENDBRANCH  13  15
ENDBRANCH  12  13
ENDBRANCH   6  12
ENDBRANCH   5   6
ENDBRANCH   3   5
ENDBRANCH   1   3
BRANCH   2  16
ATOM     16  C   UNL     1       1.562   8.741  18.235  0.00  0.00    +0.000 C 
BRANCH  16  17
ATOM     17  O   UNL     1       2.158   9.665  17.321  0.00  0.00    +0.000 OA
ATOM     18  H   UNL     1       1.412  10.237  17.040  0.00  0.00    +0.000 HD
ENDBRANCH  16  17
BRANCH  16  19
ATOM     19  C   UNL     1       1.050   9.521  19.483  0.00  0.00    +0.000 C 
BRANCH  19  20
ATOM     20  O   UNL     1       1.406   8.740  20.634  0.00  0.00    +0.000 OA
ATOM     21  H   UNL     1       0.627   8.231  20.909  0.00  0.00    +0.000 HD
ENDBRANCH  19  20
BRANCH  19  22
ATOM     22  C   UNL     1      -0.460   9.845  19.388  0.00  0.00    +0.000 C 
BRANCH  22  23
ATOM     23  C   UNL     1      -0.835  11.067  18.534  0.00  0.00    +0.000 C 
BRANCH  23  24
ATOM     24  O   UNL     1      -0.742  12.230  19.367  0.00  0.00    +0.000 OA
ATOM     25  H   UNL     1      -1.213  12.043  20.197  0.00  0.00    +0.000 HD
ENDBRANCH  23  24
BRANCH  23  26
ATOM     26  C   UNL     1      -2.278  10.927  17.989  0.00  0.00    +0.000 C 
BRANCH  26  27
ATOM     27  C   UNL     1      -2.445   9.834  16.961  0.00  0.00    +0.000 C 
ATOM     28  C   UNL     1      -2.676  10.051  15.666  0.00  0.00    +0.000 C 
ENDBRANCH  26  27
ENDBRANCH  23  26
ENDBRANCH  22  23
ENDBRANCH  19  22
ENDBRANCH  16  19
ENDBRANCH   2  16
TORSDOF 19
ENDMDL
MODEL 9
REMARK VINA RESULT:      -6.1      1.948      4.505
REMARK  Name = 
REMARK  20 active torsions:
REMARK  status: ('A' for Active; 'I' for Inactive)
REMARK    1  A    between atoms: C_2  and  C_3
REMARK    2  A    between atoms: C_3  and  C_4
REMARK    3  A    between atoms: C_4  and  C_5
REMARK    4  A    between atoms: C_5  and  C_6
REMARK    5  A    between atoms: C_5  and  O_11
REMARK    6  A    between atoms: C_6  and  C_7
REMARK    7  A    between atoms: C_7  and  C_8
REMARK    8  A    between atoms: C_8  and  C_9
REMARK    9  A    between atoms: C_9  and  C_10
REMARK   10  A    between atoms: O_11  and  C_12
REMARK   11  A    between atoms: C_12  and  C_14
REMARK   12  A    between atoms: C_15  and  C_16
REMARK   13  A    between atoms: C_16  and  O_17
REMARK   14  A    between atoms: C_16  and  C_18
REMARK   15  A    between atoms: C_18  and  O_19
REMARK   16  A    between atoms: C_18  and  C_20
REMARK   17  A    between atoms: C_20  and  C_21
REMARK   18  A    between atoms: C_21  and  O_22
REMARK   19  A    between atoms: C_21  and  C_23
REMARK   20  A    between atoms: C_23  and  C_24
REMARK                            x       y       z     vdW  Elec       q    Type
REMARK                         _______ _______ _______ _____ _____    ______ ____
ROOT
ATOM      1  C   UNL     1       4.566   3.581  18.166  0.00  0.00    +0.000 C 
ATOM      2  C   UNL     1       4.161   2.593  18.984  0.00  0.00    +0.000 C 
ENDROOT
BRANCH   1   3
ATOM      3  C   UNL     1       5.880   4.247  18.372  0.00  0.00    +0.000 C 
ATOM      4  O   UNL     1       6.335   4.539  19.467  0.00  0.00    +0.000 OA
BRANCH   3   5
ATOM      5  O   UNL     1       6.346   4.614  17.154  0.00  0.00    +0.000 OA
BRANCH   5   6
ATOM      6  C   UNL     1       5.510   5.531  16.429  0.00  0.00    +0.000 C 
BRANCH   6   7
ATOM      7  C   UNL     1       5.847   6.978  16.815  0.00  0.00    +0.000 C 
BRANCH   7   8
ATOM      8  C   UNL     1       7.277   7.116  17.350  0.00  0.00    +0.000 C 
BRANCH   8   9
ATOM      9  C   UNL     1       7.669   8.575  17.533  0.00  0.00    +0.000 C 
BRANCH   9  10
ATOM     10  C   UNL     1       8.679   8.732  18.669  0.00  0.00    +0.000 C 
ATOM     11  C   UNL     1       9.136  10.173  18.802  0.00  0.00    +0.000 C 
ENDBRANCH   9  10
ENDBRANCH   8   9
ENDBRANCH   7   8
ENDBRANCH   6   7
BRANCH   6  12
ATOM     12  C   UNL     1       5.725   5.312  14.911  0.00  0.00    +0.000 C 
BRANCH  12  13
ATOM     13  C   UNL     1       6.254   3.929  14.537  0.00  0.00    +0.000 C 
BRANCH  13  15
ATOM     14  C   UNL     1       5.364   3.356  12.273  0.00  0.00    +0.000 C 
ATOM     15  C   UNL     1       6.368   3.793  13.026  0.00  0.00    +0.000 C 
ENDBRANCH  13  15
ENDBRANCH  12  13
ENDBRANCH   6  12
ENDBRANCH   5   6
ENDBRANCH   3   5
ENDBRANCH   1   3
BRANCH   2  16
ATOM     16  C   UNL     1       2.800   1.944  18.985  0.00  0.00    +0.000 C 
BRANCH  16  17
ATOM     17  O   UNL     1       2.412   1.661  17.639  0.00  0.00    +0.000 OA
ATOM     18  H   UNL     1       1.935   2.469  17.353  0.00  0.00    +0.000 HD
ENDBRANCH  16  17
BRANCH  16  19
ATOM     19  C   UNL     1       1.689   2.802  19.663  0.00  0.00    +0.000 C 
BRANCH  19  20
ATOM     20  O   UNL     1       1.113   3.620  18.633  0.00  0.00    +0.000 OA
ATOM     21  H   UNL     1       0.383   4.129  19.022  0.00  0.00    +0.000 HD
ENDBRANCH  19  20
BRANCH  19  22
ATOM     22  C   UNL     1       2.228   3.604  20.872  0.00  0.00    +0.000 C 
BRANCH  22  23
ATOM     23  C   UNL     1       1.933   5.112  20.866  0.00  0.00    +0.000 C 
BRANCH  23  24
ATOM     24  O   UNL     1       0.544   5.286  20.555  0.00  0.00    +0.000 OA
ATOM     25  H   UNL     1       0.313   6.216  20.718  0.00  0.00    +0.000 HD
ENDBRANCH  23  24
BRANCH  23  26
ATOM     26  C   UNL     1       2.802   5.833  19.806  0.00  0.00    +0.000 C 
BRANCH  26  27
ATOM     27  C   UNL     1       2.274   7.184  19.390  0.00  0.00    +0.000 C 
ATOM     28  C   UNL     1       2.595   7.797  18.251  0.00  0.00    +0.000 C 
ENDBRANCH  26  27
ENDBRANCH  23  26
ENDBRANCH  22  23
ENDBRANCH  19  22
ENDBRANCH  16  19
ENDBRANCH   2  16
TORSDOF 19
ENDMDL
