MODEL 1
REMARK VINA RESULT:      -7.7      0.000      0.000
REMARK  Name = 
REMARK  4 active torsions:
REMARK  status: ('A' for Active; 'I' for Inactive)
REMARK    1  A    between atoms: C_1  and  C_2
REMARK    2  A    between atoms: C_6  and  N_7
REMARK    3  A    between atoms: C_12  and  C_13
REMARK    4  A    between atoms: C_16  and  C_17
REMARK                            x       y       z     vdW  Elec       q    Type
REMARK                         _______ _______ _______ _____ _____    ______ ____
ROOT
ATOM      1  N   UNL     1       4.311   3.604  18.382  0.00  0.00    +0.000 N 
ATOM      2  C   UNL     1       3.396   4.380  19.102  0.00  0.00    +0.000 A 
ATOM      3  N   UNL     1       2.949   3.853  20.253  0.00  0.00    +0.000 NA
ATOM      4  C   UNL     1       2.167   4.638  21.020  0.00  0.00    +0.000 A 
ATOM      5  C   UNL     1       1.811   5.920  20.688  0.00  0.00    +0.000 A 
ATOM      6  C   UNL     1       2.291   6.367  19.482  0.00  0.00    +0.000 A 
ATOM      7  N   UNL     1       3.061   5.605  18.685  0.00  0.00    +0.000 NA
ATOM      8  H   UNL     1       4.559   2.808  18.955  0.00  0.00    +0.000 HD
ENDROOT
BRANCH   1  14
ATOM      9  C   UNL     1       5.921   3.945  13.699  0.00  0.00    +0.000 C 
ATOM     10  C   UNL     1       6.126   4.228  15.157  0.00  0.00    +0.000 A 
ATOM     11  C   UNL     1       7.205   4.979  15.620  0.00  0.00    +0.000 A 
ATOM     12  C   UNL     1       7.347   5.221  16.987  0.00  0.00    +0.000 A 
ATOM     13  C   UNL     1       6.397   4.741  17.894  0.00  0.00    +0.000 A 
ATOM     14  C   UNL     1       5.280   4.020  17.452  0.00  0.00    +0.000 A 
ATOM     15  C   UNL     1       5.193   3.739  16.083  0.00  0.00    +0.000 A 
ENDBRANCH   1  14
BRANCH   6  16
ATOM     16  C   UNL     1       2.064   7.711  18.970  0.00  0.00    +0.000 A 
ATOM     17  C   UNL     1       2.432   8.363  17.807  0.00  0.00    +0.000 A 
ATOM     18  C   UNL     1       1.957   9.691  17.913  0.00  0.00    +0.000 A 
ATOM     19  C   UNL     1       1.323   9.774  19.135  0.00  0.00    +0.000 A 
ATOM     20  C   UNL     1       0.640  10.863  19.855  0.00  0.00    +0.000 C 
ATOM     21  O   UNL     1       1.376   8.572  19.777  0.00  0.00    +0.000 OA
ENDBRANCH   6  16
TORSDOF 2
ENDMDL
MODEL 2
REMARK VINA RESULT:      -7.6      1.044      2.154
REMARK  Name = 
REMARK  4 active torsions:
REMARK  status: ('A' for Active; 'I' for Inactive)
REMARK    1  A    between atoms: C_1  and  C_2
REMARK    2  A    between atoms: C_6  and  N_7
REMARK    3  A    between atoms: C_12  and  C_13
REMARK    4  A    between atoms: C_16  and  C_17
REMARK                            x       y       z     vdW  Elec       q    Type
REMARK                         _______ _______ _______ _____ _____    ______ ____
ROOT
ATOM      1  N   UNL     1       4.528   3.274  18.069  0.00  0.00    +0.000 N 
ATOM      2  C   UNL     1       3.622   3.678  19.055  0.00  0.00    +0.000 A 
ATOM      3  N   UNL     1       3.339   2.772  20.005  0.00  0.00    +0.000 NA
ATOM      4  C   UNL     1       2.569   3.184  21.031  0.00  0.00    +0.000 A 
ATOM      5  C   UNL     1       2.069   4.456  21.149  0.00  0.00    +0.000 A 
ATOM      6  C   UNL     1       2.387   5.307  20.120  0.00  0.00    +0.000 A 
ATOM      7  N   UNL     1       3.140   4.924  19.074  0.00  0.00    +0.000 NA
ATOM      8  H   UNL     1       4.901   2.375  18.341  0.00  0.00    +0.000 HD
ENDROOT
BRANCH   1  14
ATOM      9  C   UNL     1       7.616   7.123  17.534  0.00  0.00    +0.000 C 
ATOM     10  C   UNL     1       6.900   5.951  16.932  0.00  0.00    +0.000 A 
ATOM     11  C   UNL     1       7.104   5.558  15.610  0.00  0.00    +0.000 A 
ATOM     12  C   UNL     1       6.419   4.455  15.100  0.00  0.00    +0.000 A 
ATOM     13  C   UNL     1       5.551   3.721  15.915  0.00  0.00    +0.000 A 
ATOM     14  C   UNL     1       5.360   4.067  17.259  0.00  0.00    +0.000 A 
ATOM     15  C   UNL     1       6.012   5.214  17.729  0.00  0.00    +0.000 A 
ENDBRANCH   1  14
BRANCH   6  16
ATOM     16  C   UNL     1       1.991   6.708  20.078  0.00  0.00    +0.000 A 
ATOM     17  C   UNL     1       1.357   7.546  20.976  0.00  0.00    +0.000 A 
ATOM     18  C   UNL     1       1.198   8.795  20.330  0.00  0.00    +0.000 A 
ATOM     19  C   UNL     1       1.748   8.648  19.074  0.00  0.00    +0.000 A 
ATOM     20  C   UNL     1       1.891   9.546  17.914  0.00  0.00    +0.000 C 
ATOM     21  O   UNL     1       2.240   7.386  18.918  0.00  0.00    +0.000 OA
ENDBRANCH   6  16
TORSDOF 2
ENDMDL
MODEL 3
REMARK VINA RESULT:      -7.6      2.742      6.021
REMARK  Name = 
REMARK  4 active torsions:
REMARK  status: ('A' for Active; 'I' for Inactive)
REMARK    1  A    between atoms: C_1  and  C_2
REMARK    2  A    between atoms: C_6  and  N_7
REMARK    3  A    between atoms: C_12  and  C_13
REMARK    4  A    between atoms: C_16  and  C_17
REMARK                            x       y       z     vdW  Elec       q    Type
REMARK                         _______ _______ _______ _____ _____    ______ ____
ROOT
ATOM      1  N   UNL     1       3.584   3.433  17.186  0.00  0.00    +0.000 N 
ATOM      2  C   UNL     1       4.740   3.968  16.606  0.00  0.00    +0.000 A 
ATOM      3  N   UNL     1       4.940   3.679  15.311  0.00  0.00    +0.000 NA
ATOM      4  C   UNL     1       5.978   4.286  14.703  0.00  0.00    +0.000 A 
ATOM      5  C   UNL     1       6.822   5.167  15.330  0.00  0.00    +0.000 A 
ATOM      6  C   UNL     1       6.558   5.383  16.660  0.00  0.00    +0.000 A 
ATOM      7  N   UNL     1       5.541   4.781  17.301  0.00  0.00    +0.000 NA
ATOM      8  H   UNL     1       3.037   3.007  16.450  0.00  0.00    +0.000 HD
ENDROOT
BRANCH   1  14
ATOM      9  C   UNL     1       1.526   2.612  21.628  0.00  0.00    +0.000 C 
ATOM     10  C   UNL     1       1.833   3.555  20.503  0.00  0.00    +0.000 A 
ATOM     11  C   UNL     1       1.509   4.910  20.564  0.00  0.00    +0.000 A 
ATOM     12  C   UNL     1       1.822   5.747  19.494  0.00  0.00    +0.000 A 
ATOM     13  C   UNL     1       2.487   5.243  18.370  0.00  0.00    +0.000 A 
ATOM     14  C   UNL     1       2.863   3.895  18.301  0.00  0.00    +0.000 A 
ATOM     15  C   UNL     1       2.484   3.064  19.362  0.00  0.00    +0.000 A 
ENDBRANCH   1  14
BRANCH   6  16
ATOM     16  C   UNL     1       7.309   6.313  17.492  0.00  0.00    +0.000 A 
ATOM     17  C   UNL     1       7.939   6.200  18.717  0.00  0.00    +0.000 A 
ATOM     18  C   UNL     1       8.452   7.480  19.035  0.00  0.00    +0.000 A 
ATOM     19  C   UNL     1       8.109   8.301  17.981  0.00  0.00    +0.000 A 
ATOM     20  C   UNL     1       8.319   9.731  17.696  0.00  0.00    +0.000 C 
ATOM     21  O   UNL     1       7.424   7.596  17.037  0.00  0.00    +0.000 OA
ENDBRANCH   6  16
TORSDOF 2
ENDMDL
MODEL 4
REMARK VINA RESULT:      -7.6      0.974      1.518
REMARK  Name = 
REMARK  4 active torsions:
REMARK  status: ('A' for Active; 'I' for Inactive)
REMARK    1  A    between atoms: C_1  and  C_2
REMARK    2  A    between atoms: C_6  and  N_7
REMARK    3  A    between atoms: C_12  and  C_13
REMARK    4  A    between atoms: C_16  and  C_17
REMARK                            x       y       z     vdW  Elec       q    Type
REMARK                         _______ _______ _______ _____ _____    ______ ____
ROOT
ATOM      1  N   UNL     1       4.528   3.039  18.139  0.00  0.00    +0.000 N 
ATOM      2  C   UNL     1       3.618   3.493  19.100  0.00  0.00    +0.000 A 
ATOM      3  N   UNL     1       3.288   2.618  20.063  0.00  0.00    +0.000 NA
ATOM      4  C   UNL     1       2.513   3.077  21.065  0.00  0.00    +0.000 A 
ATOM      5  C   UNL     1       2.054   4.367  21.147  0.00  0.00    +0.000 A 
ATOM      6  C   UNL     1       2.418   5.185  20.107  0.00  0.00    +0.000 A 
ATOM      7  N   UNL     1       3.177   4.755  19.083  0.00  0.00    +0.000 NA
ATOM      8  H   UNL     1       4.866   2.134  18.437  0.00  0.00    +0.000 HD
ENDROOT
BRANCH   1  14
ATOM      9  C   UNL     1       6.315   4.198  13.655  0.00  0.00    +0.000 C 
ATOM     10  C   UNL     1       6.319   4.410  15.140  0.00  0.00    +0.000 A 
ATOM     11  C   UNL     1       7.095   5.399  15.744  0.00  0.00    +0.000 A 
ATOM     12  C   UNL     1       7.058   5.562  17.128  0.00  0.00    +0.000 A 
ATOM     13  C   UNL     1       6.224   4.759  17.914  0.00  0.00    +0.000 A 
ATOM     14  C   UNL     1       5.401   3.788  17.330  0.00  0.00    +0.000 A 
ATOM     15  C   UNL     1       5.502   3.604  15.945  0.00  0.00    +0.000 A 
ENDBRANCH   1  14
BRANCH   6  16
ATOM     16  C   UNL     1       2.069   6.596  20.028  0.00  0.00    +0.000 A 
ATOM     17  C   UNL     1       1.493   7.486  20.915  0.00  0.00    +0.000 A 
ATOM     18  C   UNL     1       1.357   8.717  20.232  0.00  0.00    +0.000 A 
ATOM     19  C   UNL     1       1.861   8.509  18.965  0.00  0.00    +0.000 A 
ATOM     20  C   UNL     1       1.998   9.362  17.771  0.00  0.00    +0.000 C 
ATOM     21  O   UNL     1       2.305   7.226  18.839  0.00  0.00    +0.000 OA
ENDBRANCH   6  16
TORSDOF 2
ENDMDL
MODEL 5
REMARK VINA RESULT:      -7.5      1.878      6.255
REMARK  Name = 
REMARK  4 active torsions:
REMARK  status: ('A' for Active; 'I' for Inactive)
REMARK    1  A    between atoms: C_1  and  C_2
REMARK    2  A    between atoms: C_6  and  N_7
REMARK    3  A    between atoms: C_12  and  C_13
REMARK    4  A    between atoms: C_16  and  C_17
REMARK                            x       y       z     vdW  Elec       q    Type
REMARK                         _______ _______ _______ _____ _____    ______ ____
ROOT
ATOM      1  N   UNL     1       2.143   6.173  20.569  0.00  0.00    +0.000 N 
ATOM      2  C   UNL     1       2.930   5.058  20.260  0.00  0.00    +0.000 A 
ATOM      3  N   UNL     1       2.575   3.904  20.845  0.00  0.00    +0.000 NA
ATOM      4  C   UNL     1       3.242   2.796  20.463  0.00  0.00    +0.000 A 
ATOM      5  C   UNL     1       4.244   2.792  19.527  0.00  0.00    +0.000 A 
ATOM      6  C   UNL     1       4.558   4.020  19.000  0.00  0.00    +0.000 A 
ATOM      7  N   UNL     1       3.924   5.147  19.371  0.00  0.00    +0.000 NA
ATOM      8  H   UNL     1       1.350   5.853  21.108  0.00  0.00    +0.000 HD
ENDROOT
BRANCH   1  14
ATOM      9  C   UNL     1       0.527  10.856  20.241  0.00  0.00    +0.000 C 
ATOM     10  C   UNL     1       1.172   9.665  19.596  0.00  0.00    +0.000 A 
ATOM     11  C   UNL     1       1.672   9.710  18.295  0.00  0.00    +0.000 A 
ATOM     12  C   UNL     1       2.270   8.577  17.742  0.00  0.00    +0.000 A 
ATOM     13  C   UNL     1       2.399   7.405  18.495  0.00  0.00    +0.000 A 
ATOM     14  C   UNL     1       1.944   7.346  19.818  0.00  0.00    +0.000 A 
ATOM     15  C   UNL     1       1.294   8.476  20.329  0.00  0.00    +0.000 A 
ENDBRANCH   1  14
BRANCH   6  16
ATOM     16  C   UNL     1       5.560   4.223  17.964  0.00  0.00    +0.000 A 
ATOM     17  C   UNL     1       6.844   4.736  17.967  0.00  0.00    +0.000 A 
ATOM     18  C   UNL     1       7.294   4.726  16.626  0.00  0.00    +0.000 A 
ATOM     19  C   UNL     1       6.258   4.204  15.880  0.00  0.00    +0.000 A 
ATOM     20  C   UNL     1       6.071   3.944  14.442  0.00  0.00    +0.000 C 
ATOM     21  O   UNL     1       5.207   3.888  16.688  0.00  0.00    +0.000 OA
ENDBRANCH   6  16
TORSDOF 2
ENDMDL
MODEL 6
REMARK VINA RESULT:      -7.4      3.280      5.148
REMARK  Name = 
REMARK  4 active torsions:
REMARK  status: ('A' for Active; 'I' for Inactive)
REMARK    1  A    between atoms: C_1  and  C_2
REMARK    2  A    between atoms: C_6  and  N_7
REMARK    3  A    between atoms: C_12  and  C_13
REMARK    4  A    between atoms: C_16  and  C_17
REMARK                            x       y       z     vdW  Elec       q    Type
REMARK                         _______ _______ _______ _____ _____    ______ ____
ROOT
ATOM      1  N   UNL     1       2.734   6.512  18.093  0.00  0.00    +0.000 N 
ATOM      2  C   UNL     1       2.331   7.812  18.416  0.00  0.00    +0.000 A 
ATOM      3  N   UNL     1       2.522   8.743  17.468  0.00  0.00    +0.000 NA
ATOM      4  C   UNL     1       2.026   9.973  17.711  0.00  0.00    +0.000 A 
ATOM      5  C   UNL     1       1.351  10.312  18.856  0.00  0.00    +0.000 A 
ATOM      6  C   UNL     1       1.225   9.305  19.780  0.00  0.00    +0.000 A 
ATOM      7  N   UNL     1       1.722   8.072  19.577  0.00  0.00    +0.000 NA
ATOM      8  H   UNL     1       2.997   6.503  17.117  0.00  0.00    +0.000 HD
ENDROOT
BRANCH   1  14
ATOM      9  C   UNL     1       2.204   3.399  21.922  0.00  0.00    +0.000 C 
ATOM     10  C   UNL     1       1.974   3.713  20.474  0.00  0.00    +0.000 A 
ATOM     11  C   UNL     1       1.231   2.875  19.644  0.00  0.00    +0.000 A 
ATOM     12  C   UNL     1       1.039   3.215  18.305  0.00  0.00    +0.000 A 
ATOM     13  C   UNL     1       1.561   4.409  17.796  0.00  0.00    +0.000 A 
ATOM     14  C   UNL     1       2.274   5.292  18.618  0.00  0.00    +0.000 A 
ATOM     15  C   UNL     1       2.504   4.897  19.942  0.00  0.00    +0.000 A 
ENDBRANCH   1  14
BRANCH   6  16
ATOM     16  C   UNL     1       0.507   9.449  21.039  0.00  0.00    +0.000 A 
ATOM     17  C   UNL     1       0.181   8.571  22.056  0.00  0.00    +0.000 A 
ATOM     18  C   UNL     1      -0.584   9.299  22.997  0.00  0.00    +0.000 A 
ATOM     19  C   UNL     1      -0.680  10.582  22.501  0.00  0.00    +0.000 A 
ATOM     20  C   UNL     1      -1.344  11.809  22.975  0.00  0.00    +0.000 C 
ATOM     21  O   UNL     1      -0.011  10.682  21.318  0.00  0.00    +0.000 OA
ENDBRANCH   6  16
TORSDOF 2
ENDMDL
MODEL 7
REMARK VINA RESULT:      -7.4      3.488      5.109
REMARK  Name = 
REMARK  4 active torsions:
REMARK  status: ('A' for Active; 'I' for Inactive)
REMARK    1  A    between atoms: C_1  and  C_2
REMARK    2  A    between atoms: C_6  and  N_7
REMARK    3  A    between atoms: C_12  and  C_13
REMARK    4  A    between atoms: C_16  and  C_17
REMARK                            x       y       z     vdW  Elec       q    Type
REMARK                         _______ _______ _______ _____ _____    ______ ____
ROOT
ATOM      1  N   UNL     1       2.672   6.489  18.659  0.00  0.00    +0.000 N 
ATOM      2  C   UNL     1       2.237   7.810  18.807  0.00  0.00    +0.000 A 
ATOM      3  N   UNL     1       2.387   8.606  17.736  0.00  0.00    +0.000 NA
ATOM      4  C   UNL     1       1.861   9.844  17.817  0.00  0.00    +0.000 A 
ATOM      5  C   UNL     1       1.195  10.321  18.918  0.00  0.00    +0.000 A 
ATOM      6  C   UNL     1       1.113   9.449  19.975  0.00  0.00    +0.000 A 
ATOM      7  N   UNL     1       1.640   8.213  19.933  0.00  0.00    +0.000 NA
ATOM      8  H   UNL     1       2.919   6.351  17.689  0.00  0.00    +0.000 HD
ENDROOT
BRANCH   1  14
ATOM      9  C   UNL     1       0.563   1.995  18.692  0.00  0.00    +0.000 C 
ATOM     10  C   UNL     1       1.229   3.112  19.438  0.00  0.00    +0.000 A 
ATOM     11  C   UNL     1       1.541   3.015  20.793  0.00  0.00    +0.000 A 
ATOM     12  C   UNL     1       2.168   4.080  21.440  0.00  0.00    +0.000 A 
ATOM     13  C   UNL     1       2.516   5.234  20.729  0.00  0.00    +0.000 A 
ATOM     14  C   UNL     1       2.255   5.341  19.357  0.00  0.00    +0.000 A 
ATOM     15  C   UNL     1       1.570   4.284  18.746  0.00  0.00    +0.000 A 
ENDBRANCH   1  14
BRANCH   6  16
ATOM     16  C   UNL     1       0.411   9.747  21.216  0.00  0.00    +0.000 A 
ATOM     17  C   UNL     1       0.039   8.985  22.307  0.00  0.00    +0.000 A 
ATOM     18  C   UNL     1      -0.677   9.838  23.179  0.00  0.00    +0.000 A 
ATOM     19  C   UNL     1      -0.698  11.076  22.570  0.00  0.00    +0.000 A 
ATOM     20  C   UNL     1      -1.285  12.378  22.933  0.00  0.00    +0.000 C 
ATOM     21  O   UNL     1      -0.031  11.029  21.383  0.00  0.00    +0.000 OA
ENDBRANCH   6  16
TORSDOF 2
ENDMDL
MODEL 8
REMARK VINA RESULT:      -7.4      2.523      6.864
REMARK  Name = 
REMARK  4 active torsions:
REMARK  status: ('A' for Active; 'I' for Inactive)
REMARK    1  A    between atoms: C_1  and  C_2
REMARK    2  A    between atoms: C_6  and  N_7
REMARK    3  A    between atoms: C_12  and  C_13
REMARK    4  A    between atoms: C_16  and  C_17
REMARK                            x       y       z     vdW  Elec       q    Type
REMARK                         _______ _______ _______ _____ _____    ______ ____
ROOT
ATOM      1  N   UNL     1       2.518   8.735  17.830  0.00  0.00    +0.000 N 
ATOM      2  C   UNL     1       3.082   7.458  17.729  0.00  0.00    +0.000 A 
ATOM      3  N   UNL     1       4.342   7.403  17.269  0.00  0.00    +0.000 NA
ATOM      4  C   UNL     1       4.944   6.197  17.284  0.00  0.00    +0.000 A 
ATOM      5  C   UNL     1       4.345   5.049  17.737  0.00  0.00    +0.000 A 
ATOM      6  C   UNL     1       3.049   5.195  18.164  0.00  0.00    +0.000 A 
ATOM      7  N   UNL     1       2.413   6.379  18.147  0.00  0.00    +0.000 NA
ATOM      8  H   UNL     1       3.245   9.410  17.637  0.00  0.00    +0.000 HD
ENDROOT
BRANCH   1  14
ATOM      9  C   UNL     1       0.537   9.221  22.355  0.00  0.00    +0.000 C 
ATOM     10  C   UNL     1       0.447   9.451  20.876  0.00  0.00    +0.000 A 
ATOM     11  C   UNL     1      -0.597  10.176  20.303  0.00  0.00    +0.000 A 
ATOM     12  C   UNL     1      -0.632  10.369  18.922  0.00  0.00    +0.000 A 
ATOM     13  C   UNL     1       0.391   9.867  18.110  0.00  0.00    +0.000 A 
ATOM     14  C   UNL     1       1.475   9.173  18.664  0.00  0.00    +0.000 A 
ATOM     15  C   UNL     1       1.455   8.941  20.045  0.00  0.00    +0.000 A 
ENDBRANCH   1  14
BRANCH   6  16
ATOM     16  C   UNL     1       2.254   4.108  18.720  0.00  0.00    +0.000 A 
ATOM     17  C   UNL     1       1.340   3.223  18.180  0.00  0.00    +0.000 A 
ATOM     18  C   UNL     1       0.857   2.430  19.246  0.00  0.00    +0.000 A 
ATOM     19  C   UNL     1       1.506   2.876  20.378  0.00  0.00    +0.000 A 
ATOM     20  C   UNL     1       1.449   2.495  21.801  0.00  0.00    +0.000 C 
ATOM     21  O   UNL     1       2.364   3.887  20.064  0.00  0.00    +0.000 OA
ENDBRANCH   6  16
TORSDOF 2
ENDMDL
MODEL 9
REMARK VINA RESULT:      -7.4      1.274      2.094
REMARK  Name = 
REMARK  4 active torsions:
REMARK  status: ('A' for Active; 'I' for Inactive)
REMARK    1  A    between atoms: C_1  and  C_2
REMARK    2  A    between atoms: C_6  and  N_7
REMARK    3  A    between atoms: C_12  and  C_13
REMARK    4  A    between atoms: C_16  and  C_17
REMARK                            x       y       z     vdW  Elec       q    Type
REMARK                         _______ _______ _______ _____ _____    ______ ____
ROOT
ATOM      1  N   UNL     1       4.543   3.213  18.007  0.00  0.00    +0.000 N 
ATOM      2  C   UNL     1       3.644   3.598  19.008  0.00  0.00    +0.000 A 
ATOM      3  N   UNL     1       3.384   2.682  19.953  0.00  0.00    +0.000 NA
ATOM      4  C   UNL     1       2.620   3.076  20.991  0.00  0.00    +0.000 A 
ATOM      5  C   UNL     1       2.106   4.341  21.125  0.00  0.00    +0.000 A 
ATOM      6  C   UNL     1       2.402   5.204  20.100  0.00  0.00    +0.000 A 
ATOM      7  N   UNL     1       3.147   4.839  19.042  0.00  0.00    +0.000 NA
ATOM      8  H   UNL     1       4.931   2.317  18.268  0.00  0.00    +0.000 HD
ENDROOT
BRANCH   1  14
ATOM      9  C   UNL     1       7.593   7.094  17.473  0.00  0.00    +0.000 C 
ATOM     10  C   UNL     1       6.876   5.923  16.868  0.00  0.00    +0.000 A 
ATOM     11  C   UNL     1       7.063   5.548  15.538  0.00  0.00    +0.000 A 
ATOM     12  C   UNL     1       6.379   4.447  15.025  0.00  0.00    +0.000 A 
ATOM     13  C   UNL     1       5.529   3.696  15.844  0.00  0.00    +0.000 A 
ATOM     14  C   UNL     1       5.356   4.023  17.195  0.00  0.00    +0.000 A 
ATOM     15  C   UNL     1       6.007   5.169  17.669  0.00  0.00    +0.000 A 
ENDBRANCH   1  14
BRANCH   6  16
ATOM     16  C   UNL     1       1.989   6.600  20.074  0.00  0.00    +0.000 A 
ATOM     17  C   UNL     1       2.171   7.631  19.171  0.00  0.00    +0.000 A 
ATOM     18  C   UNL     1       1.576   8.783  19.738  0.00  0.00    +0.000 A 
ATOM     19  C   UNL     1       1.062   8.387  20.955  0.00  0.00    +0.000 A 
ATOM     20  C   UNL     1       0.346   9.091  22.034  0.00  0.00    +0.000 C 
ATOM     21  O   UNL     1       1.300   7.061  21.160  0.00  0.00    +0.000 OA
ENDBRANCH   6  16
TORSDOF 2
ENDMDL
