MODEL 1
REMARK VINA RESULT:      -6.2      0.000      0.000
REMARK  Name = 
REMARK  12 active torsions:
REMARK  status: ('A' for Active; 'I' for Inactive)
REMARK    1  A    between atoms: C_1  and  C_2
REMARK    2  A    between atoms: C_2  and  C_3
REMARK    3  A    between atoms: C_3  and  N_4
REMARK    4  A    between atoms: N_4  and  C_5
REMARK    5  A    between atoms: N_4  and  C_8
REMARK    6  A    between atoms: C_5  and  C_6
REMARK    7  A    between atoms: C_6  and  C_7
REMARK    8  A    between atoms: C_9  and  N_10
REMARK    9  A    between atoms: C_14  and  S_15
REMARK   10  A    between atoms: S_15  and  N_18
REMARK   11  A    between atoms: N_18  and  C_19
REMARK   12  A    between atoms: C_21  and  N_22
REMARK                            x       y       z     vdW  Elec       q    Type
REMARK                         _______ _______ _______ _____ _____    ______ ____
ROOT
ATOM      1  C   UNL     1       3.356   4.929  18.889  0.00  0.00    +0.000 A 
ATOM      2  C   UNL     1       4.350   3.910  18.717  0.00  0.00    +0.000 A 
ATOM      3  C   UNL     1       5.513   4.042  17.920  0.00  0.00    +0.000 A 
ATOM      4  C   UNL     1       5.715   5.187  17.168  0.00  0.00    +0.000 A 
ATOM      5  C   UNL     1       4.751   6.183  17.191  0.00  0.00    +0.000 A 
ATOM      6  C   UNL     1       3.610   6.048  18.026  0.00  0.00    +0.000 A 
ENDROOT
BRANCH   2   7
ATOM      7  N   UNL     1       4.252   2.593  19.311  0.00  0.00    +0.000 N 
ATOM      8  O   UNL     1       4.703   2.468  20.459  0.00  0.00    +0.000 OA
ATOM      9  O   UNL     1       3.619   1.733  18.686  0.00  0.00    +0.000 OA
ENDBRANCH   2   7
BRANCH   4  10
ATOM     10  S   UNL     1       7.212   5.400  16.247  0.00  0.00    +0.000 S 
ATOM     11  O   UNL     1       7.627   6.770  16.443  0.00  0.00    +0.000 OA
ATOM     12  O   UNL     1       8.087   4.286  16.531  0.00  0.00    +0.000 OA
BRANCH  10  13
ATOM     13  N   UNL     1       6.703   5.278  14.652  0.00  0.00    +0.000 NA
ATOM     14  C   UNL     1       6.227   3.979  14.180  0.00  0.00    +0.000 C 
ATOM     15  H   UNL     1       7.339   5.782  14.031  0.00  0.00    +0.000 HD
ENDBRANCH  10  13
ENDBRANCH   4  10
BRANCH   6  16
ATOM     16  N   UNL     1       2.662   7.145  17.845  0.00  0.00    +0.000 N 
ATOM     17  O   UNL     1       3.064   8.290  18.098  0.00  0.00    +0.000 OA
ATOM     18  O   UNL     1       1.514   6.838  17.505  0.00  0.00    +0.000 OA
ENDBRANCH   6  16
BRANCH   1  19
ATOM     19  N   UNL     1       2.323   4.859  19.878  0.00  0.00    +0.000 N 
BRANCH  19  20
ATOM     20  C   UNL     1       2.258   5.909  20.926  0.00  0.00    +0.000 C 
BRANCH  20  22
ATOM     21  C   UNL     1       1.346   8.282  21.267  0.00  0.00    +0.000 C 
ATOM     22  C   UNL     1       1.036   6.827  20.976  0.00  0.00    +0.000 C 
ENDBRANCH  20  22
ENDBRANCH  19  20
BRANCH  19  23
ATOM     23  C   UNL     1       1.113   4.047  19.540  0.00  0.00    +0.000 C 
BRANCH  23  24
ATOM     24  C   UNL     1       0.901   2.693  20.214  0.00  0.00    +0.000 C 
ATOM     25  C   UNL     1       1.458   2.666  21.638  0.00  0.00    +0.000 C 
ENDBRANCH  23  24
ENDBRANCH  19  23
ENDBRANCH   1  19
TORSDOF 9
ENDMDL
MODEL 2
REMARK VINA RESULT:      -6.1      2.961      5.578
REMARK  Name = 
REMARK  12 active torsions:
REMARK  status: ('A' for Active; 'I' for Inactive)
REMARK    1  A    between atoms: C_1  and  C_2
REMARK    2  A    between atoms: C_2  and  C_3
REMARK    3  A    between atoms: C_3  and  N_4
REMARK    4  A    between atoms: N_4  and  C_5
REMARK    5  A    between atoms: N_4  and  C_8
REMARK    6  A    between atoms: C_5  and  C_6
REMARK    7  A    between atoms: C_6  and  C_7
REMARK    8  A    between atoms: C_9  and  N_10
REMARK    9  A    between atoms: C_14  and  S_15
REMARK   10  A    between atoms: S_15  and  N_18
REMARK   11  A    between atoms: N_18  and  C_19
REMARK   12  A    between atoms: C_21  and  N_22
REMARK                            x       y       z     vdW  Elec       q    Type
REMARK                         _______ _______ _______ _____ _____    ______ ____
ROOT
ATOM      1  C   UNL     1       3.765   5.793  18.151  0.00  0.00    +0.000 A 
ATOM      2  C   UNL     1       2.710   6.016  19.097  0.00  0.00    +0.000 A 
ATOM      3  C   UNL     1       1.946   7.205  19.192  0.00  0.00    +0.000 A 
ATOM      4  C   UNL     1       2.249   8.292  18.388  0.00  0.00    +0.000 A 
ATOM      5  C   UNL     1       3.322   8.203  17.517  0.00  0.00    +0.000 A 
ATOM      6  C   UNL     1       4.053   6.989  17.410  0.00  0.00    +0.000 A 
ENDROOT
BRANCH   2   7
ATOM      7  N   UNL     1       2.333   5.052  20.110  0.00  0.00    +0.000 N 
ATOM      8  O   UNL     1       3.234   4.661  20.865  0.00  0.00    +0.000 OA
ATOM      9  O   UNL     1       1.129   4.790  20.225  0.00  0.00    +0.000 OA
ENDBRANCH   2   7
BRANCH   4  10
ATOM     10  S   UNL     1       1.238   9.745  18.432  0.00  0.00    +0.000 S 
ATOM     11  O   UNL     1       0.066   9.457  17.635  0.00  0.00    +0.000 OA
ATOM     12  O   UNL     1       1.141  10.195  19.802  0.00  0.00    +0.000 OA
BRANCH  10  13
ATOM     13  N   UNL     1       2.139  10.867  17.570  0.00  0.00    +0.000 NA
ATOM     14  C   UNL     1       2.380  12.172  18.183  0.00  0.00    +0.000 C 
ATOM     15  H   UNL     1       1.864  10.871  16.586  0.00  0.00    +0.000 HD
ENDBRANCH  10  13
ENDBRANCH   4  10
BRANCH   6  16
ATOM     16  N   UNL     1       5.203   7.115  16.517  0.00  0.00    +0.000 N 
ATOM     17  O   UNL     1       6.221   7.650  16.976  0.00  0.00    +0.000 OA
ATOM     18  O   UNL     1       5.049   6.726  15.353  0.00  0.00    +0.000 OA
ENDBRANCH   6  16
BRANCH   1  19
ATOM     19  N   UNL     1       4.355   4.510  17.921  0.00  0.00    +0.000 N 
BRANCH  19  20
ATOM     20  C   UNL     1       3.715   3.586  16.949  0.00  0.00    +0.000 C 
BRANCH  20  22
ATOM     21  C   UNL     1       3.044   1.772  18.635  0.00  0.00    +0.000 C 
ATOM     22  C   UNL     1       2.636   2.624  17.448  0.00  0.00    +0.000 C 
ENDBRANCH  20  22
ENDBRANCH  19  20
BRANCH  19  23
ATOM     23  C   UNL     1       5.798   4.352  18.281  0.00  0.00    +0.000 C 
BRANCH  23  24
ATOM     24  C   UNL     1       6.393   5.205  19.400  0.00  0.00    +0.000 C 
ATOM     25  C   UNL     1       7.830   5.632  19.095  0.00  0.00    +0.000 C 
ENDBRANCH  23  24
ENDBRANCH  19  23
ENDBRANCH   1  19
TORSDOF 9
ENDMDL
MODEL 3
REMARK VINA RESULT:      -6.0      3.150      6.659
REMARK  Name = 
REMARK  12 active torsions:
REMARK  status: ('A' for Active; 'I' for Inactive)
REMARK    1  A    between atoms: C_1  and  C_2
REMARK    2  A    between atoms: C_2  and  C_3
REMARK    3  A    between atoms: C_3  and  N_4
REMARK    4  A    between atoms: N_4  and  C_5
REMARK    5  A    between atoms: N_4  and  C_8
REMARK    6  A    between atoms: C_5  and  C_6
REMARK    7  A    between atoms: C_6  and  C_7
REMARK    8  A    between atoms: C_9  and  N_10
REMARK    9  A    between atoms: C_14  and  S_15
REMARK   10  A    between atoms: S_15  and  N_18
REMARK   11  A    between atoms: N_18  and  C_19
REMARK   12  A    between atoms: C_21  and  N_22
REMARK                            x       y       z     vdW  Elec       q    Type
REMARK                         _______ _______ _______ _____ _____    ______ ____
ROOT
ATOM      1  C   UNL     1       2.847   5.637  19.325  0.00  0.00    +0.000 A 
ATOM      2  C   UNL     1       2.764   7.015  18.939  0.00  0.00    +0.000 A 
ATOM      3  C   UNL     1       2.063   8.016  19.655  0.00  0.00    +0.000 A 
ATOM      4  C   UNL     1       1.321   7.678  20.774  0.00  0.00    +0.000 A 
ATOM      5  C   UNL     1       1.257   6.349  21.160  0.00  0.00    +0.000 A 
ATOM      6  C   UNL     1       1.998   5.366  20.451  0.00  0.00    +0.000 A 
ENDROOT
BRANCH   2   7
ATOM      7  N   UNL     1       3.360   7.540  17.727  0.00  0.00    +0.000 N 
ATOM      8  O   UNL     1       2.625   8.222  16.999  0.00  0.00    +0.000 OA
ATOM      9  O   UNL     1       4.577   7.375  17.574  0.00  0.00    +0.000 OA
ENDBRANCH   2   7
BRANCH   4  10
ATOM     10  S   UNL     1       0.522   8.937  21.730  0.00  0.00    +0.000 S 
ATOM     11  O   UNL     1      -0.750   8.391  22.150  0.00  0.00    +0.000 OA
ATOM     12  O   UNL     1       1.476   9.471  22.674  0.00  0.00    +0.000 OA
BRANCH  10  13
ATOM     13  N   UNL     1       0.181  10.124  20.594  0.00  0.00    +0.000 NA
ATOM     14  C   UNL     1       0.760  11.452  20.793  0.00  0.00    +0.000 C 
ATOM     15  H   UNL     1      -0.805  10.094  20.325  0.00  0.00    +0.000 HD
ENDBRANCH  10  13
ENDBRANCH   4  10
BRANCH   6  16
ATOM     16  N   UNL     1       1.731   4.015  20.940  0.00  0.00    +0.000 N 
ATOM     17  O   UNL     1       0.881   3.349  20.332  0.00  0.00    +0.000 OA
ATOM     18  O   UNL     1       2.336   3.662  21.959  0.00  0.00    +0.000 OA
ENDBRANCH   6  16
BRANCH   1  19
ATOM     19  N   UNL     1       3.749   4.704  18.720  0.00  0.00    +0.000 N 
BRANCH  19  20
ATOM     20  C   UNL     1       3.392   4.102  17.411  0.00  0.00    +0.000 C 
BRANCH  20  22
ATOM     21  C   UNL     1       3.278   1.697  18.297  0.00  0.00    +0.000 C 
ATOM     22  C   UNL     1       2.672   2.752  17.393  0.00  0.00    +0.000 C 
ENDBRANCH  20  22
ENDBRANCH  19  20
BRANCH  19  23
ATOM     23  C   UNL     1       5.174   4.748  19.173  0.00  0.00    +0.000 C 
BRANCH  23  24
ATOM     24  C   UNL     1       6.295   4.569  18.151  0.00  0.00    +0.000 C 
ATOM     25  C   UNL     1       7.506   5.451  18.464  0.00  0.00    +0.000 C 
ENDBRANCH  23  24
ENDBRANCH  19  23
ENDBRANCH   1  19
TORSDOF 9
ENDMDL
MODEL 4
REMARK VINA RESULT:      -6.0      2.859      5.908
REMARK  Name = 
REMARK  12 active torsions:
REMARK  status: ('A' for Active; 'I' for Inactive)
REMARK    1  A    between atoms: C_1  and  C_2
REMARK    2  A    between atoms: C_2  and  C_3
REMARK    3  A    between atoms: C_3  and  N_4
REMARK    4  A    between atoms: N_4  and  C_5
REMARK    5  A    between atoms: N_4  and  C_8
REMARK    6  A    between atoms: C_5  and  C_6
REMARK    7  A    between atoms: C_6  and  C_7
REMARK    8  A    between atoms: C_9  and  N_10
REMARK    9  A    between atoms: C_14  and  S_15
REMARK   10  A    between atoms: S_15  and  N_18
REMARK   11  A    between atoms: N_18  and  C_19
REMARK   12  A    between atoms: C_21  and  N_22
REMARK                            x       y       z     vdW  Elec       q    Type
REMARK                         _______ _______ _______ _____ _____    ______ ____
ROOT
ATOM      1  C   UNL     1       3.733   5.573  17.763  0.00  0.00    +0.000 A 
ATOM      2  C   UNL     1       4.185   6.872  17.357  0.00  0.00    +0.000 A 
ATOM      3  C   UNL     1       3.457   8.074  17.534  0.00  0.00    +0.000 A 
ATOM      4  C   UNL     1       2.176   8.039  18.061  0.00  0.00    +0.000 A 
ATOM      5  C   UNL     1       1.617   6.813  18.384  0.00  0.00    +0.000 A 
ATOM      6  C   UNL     1       2.377   5.623  18.234  0.00  0.00    +0.000 A 
ENDROOT
BRANCH   2   7
ATOM      7  N   UNL     1       5.438   7.099  16.667  0.00  0.00    +0.000 N 
ATOM      8  O   UNL     1       5.389   7.130  15.429  0.00  0.00    +0.000 OA
ATOM      9  O   UNL     1       6.428   7.368  17.359  0.00  0.00    +0.000 OA
ENDBRANCH   2   7
BRANCH   4  10
ATOM     10  S   UNL     1       1.298   9.545  18.376  0.00  0.00    +0.000 S 
ATOM     11  O   UNL     1       0.065   9.468  17.625  0.00  0.00    +0.000 OA
ATOM     12  O   UNL     1       1.315   9.797  19.798  0.00  0.00    +0.000 OA
BRANCH  10  13
ATOM     13  N   UNL     1       2.246  10.707  17.623  0.00  0.00    +0.000 NA
ATOM     14  C   UNL     1       2.297  12.042  18.215  0.00  0.00    +0.000 C 
ATOM     15  H   UNL     1       2.130  10.664  16.608  0.00  0.00    +0.000 HD
ENDBRANCH  10  13
ENDBRANCH   4  10
BRANCH   6  16
ATOM     16  N   UNL     1       1.592   4.426  18.530  0.00  0.00    +0.000 N 
ATOM     17  O   UNL     1       1.306   3.687  17.579  0.00  0.00    +0.000 OA
ATOM     18  O   UNL     1       1.228   4.275  19.702  0.00  0.00    +0.000 OA
ENDBRANCH   6  16
BRANCH   1  19
ATOM     19  N   UNL     1       4.580   4.419  17.789  0.00  0.00    +0.000 N 
BRANCH  19  20
ATOM     20  C   UNL     1       4.893   3.785  19.095  0.00  0.00    +0.000 C 
BRANCH  20  22
ATOM     21  C   UNL     1       3.693   2.304  20.812  0.00  0.00    +0.000 C 
ATOM     22  C   UNL     1       4.278   2.422  19.418  0.00  0.00    +0.000 C 
ENDBRANCH  20  22
ENDBRANCH  19  20
BRANCH  19  23
ATOM     23  C   UNL     1       4.708   3.642  16.517  0.00  0.00    +0.000 C 
BRANCH  23  24
ATOM     24  C   UNL     1       6.015   3.699  15.727  0.00  0.00    +0.000 C 
ATOM     25  C   UNL     1       5.776   3.958  14.239  0.00  0.00    +0.000 C 
ENDBRANCH  23  24
ENDBRANCH  19  23
ENDBRANCH   1  19
TORSDOF 9
ENDMDL
MODEL 5
REMARK VINA RESULT:      -6.0      2.974      6.191
REMARK  Name = 
REMARK  12 active torsions:
REMARK  status: ('A' for Active; 'I' for Inactive)
REMARK    1  A    between atoms: C_1  and  C_2
REMARK    2  A    between atoms: C_2  and  C_3
REMARK    3  A    between atoms: C_3  and  N_4
REMARK    4  A    between atoms: N_4  and  C_5
REMARK    5  A    between atoms: N_4  and  C_8
REMARK    6  A    between atoms: C_5  and  C_6
REMARK    7  A    between atoms: C_6  and  C_7
REMARK    8  A    between atoms: C_9  and  N_10
REMARK    9  A    between atoms: C_14  and  S_15
REMARK   10  A    between atoms: S_15  and  N_18
REMARK   11  A    between atoms: N_18  and  C_19
REMARK   12  A    between atoms: C_21  and  N_22
REMARK                            x       y       z     vdW  Elec       q    Type
REMARK                         _______ _______ _______ _____ _____    ______ ____
ROOT
ATOM      1  C   UNL     1       3.747   5.561  17.605  0.00  0.00    +0.000 A 
ATOM      2  C   UNL     1       4.120   6.865  17.141  0.00  0.00    +0.000 A 
ATOM      3  C   UNL     1       3.398   8.055  17.405  0.00  0.00    +0.000 A 
ATOM      4  C   UNL     1       2.195   8.001  18.091  0.00  0.00    +0.000 A 
ATOM      5  C   UNL     1       1.704   6.767  18.486  0.00  0.00    +0.000 A 
ATOM      6  C   UNL     1       2.462   5.589  18.245  0.00  0.00    +0.000 A 
ENDROOT
BRANCH   2   7
ATOM      7  N   UNL     1       5.270   7.111  16.296  0.00  0.00    +0.000 N 
ATOM      8  O   UNL     1       5.082   7.047  15.073  0.00  0.00    +0.000 OA
ATOM      9  O   UNL     1       6.312   7.487  16.849  0.00  0.00    +0.000 OA
ENDBRANCH   2   7
BRANCH   4  10
ATOM     10  S   UNL     1       1.337   9.492  18.509  0.00  0.00    +0.000 S 
ATOM     11  O   UNL     1       0.117   9.497  17.734  0.00  0.00    +0.000 OA
ATOM     12  O   UNL     1       1.332   9.630  19.947  0.00  0.00    +0.000 OA
BRANCH  10  13
ATOM     13  N   UNL     1       2.317  10.693  17.867  0.00  0.00    +0.000 NA
ATOM     14  C   UNL     1       2.135  12.061  18.350  0.00  0.00    +0.000 C 
ATOM     15  H   UNL     1       2.414  10.577  16.856  0.00  0.00    +0.000 HD
ENDBRANCH  10  13
ENDBRANCH   4  10
BRANCH   6  16
ATOM     16  N   UNL     1       1.743   4.381  18.643  0.00  0.00    +0.000 N 
ATOM     17  O   UNL     1       1.186   3.732  17.746  0.00  0.00    +0.000 OA
ATOM     18  O   UNL     1       1.701   4.131  19.853  0.00  0.00    +0.000 OA
ENDBRANCH   6  16
BRANCH   1  19
ATOM     19  N   UNL     1       4.612   4.423  17.527  0.00  0.00    +0.000 N 
BRANCH  19  20
ATOM     20  C   UNL     1       4.869   3.804  16.202  0.00  0.00    +0.000 C 
BRANCH  20  22
ATOM     21  C   UNL     1       6.362   3.915  14.119  0.00  0.00    +0.000 C 
ATOM     22  C   UNL     1       6.288   3.845  15.632  0.00  0.00    +0.000 C 
ENDBRANCH  20  22
ENDBRANCH  19  20
BRANCH  19  23
ATOM     23  C   UNL     1       5.566   4.216  18.660  0.00  0.00    +0.000 C 
BRANCH  23  24
ATOM     24  C   UNL     1       6.166   5.428  19.371  0.00  0.00    +0.000 C 
ATOM     25  C   UNL     1       7.670   5.555  19.121  0.00  0.00    +0.000 C 
ENDBRANCH  23  24
ENDBRANCH  19  23
ENDBRANCH   1  19
TORSDOF 9
ENDMDL
MODEL 6
REMARK VINA RESULT:      -6.0      2.936      6.160
REMARK  Name = 
REMARK  12 active torsions:
REMARK  status: ('A' for Active; 'I' for Inactive)
REMARK    1  A    between atoms: C_1  and  C_2
REMARK    2  A    between atoms: C_2  and  C_3
REMARK    3  A    between atoms: C_3  and  N_4
REMARK    4  A    between atoms: N_4  and  C_5
REMARK    5  A    between atoms: N_4  and  C_8
REMARK    6  A    between atoms: C_5  and  C_6
REMARK    7  A    between atoms: C_6  and  C_7
REMARK    8  A    between atoms: C_9  and  N_10
REMARK    9  A    between atoms: C_14  and  S_15
REMARK   10  A    between atoms: S_15  and  N_18
REMARK   11  A    between atoms: N_18  and  C_19
REMARK   12  A    between atoms: C_21  and  N_22
REMARK                            x       y       z     vdW  Elec       q    Type
REMARK                         _______ _______ _______ _____ _____    ______ ____
ROOT
ATOM      1  C   UNL     1       3.751   5.602  17.587  0.00  0.00    +0.000 A 
ATOM      2  C   UNL     1       4.145   6.894  17.108  0.00  0.00    +0.000 A 
ATOM      3  C   UNL     1       3.462   8.103  17.388  0.00  0.00    +0.000 A 
ATOM      4  C   UNL     1       2.279   8.083  18.107  0.00  0.00    +0.000 A 
ATOM      5  C   UNL     1       1.766   6.864  18.521  0.00  0.00    +0.000 A 
ATOM      6  C   UNL     1       2.486   5.666  18.263  0.00  0.00    +0.000 A 
ENDROOT
BRANCH   2   7
ATOM      7  N   UNL     1       5.277   7.107  16.230  0.00  0.00    +0.000 N 
ATOM      8  O   UNL     1       6.382   7.246  16.775  0.00  0.00    +0.000 OA
ATOM      9  O   UNL     1       5.079   7.010  15.013  0.00  0.00    +0.000 OA
ENDBRANCH   2   7
BRANCH   4  10
ATOM     10  S   UNL     1       1.472   9.598  18.544  0.00  0.00    +0.000 S 
ATOM     11  O   UNL     1       1.101   9.481  19.936  0.00  0.00    +0.000 OA
ATOM     12  O   UNL     1       2.267  10.699  18.053  0.00  0.00    +0.000 OA
BRANCH  10  13
ATOM     13  N   UNL     1       0.045   9.542  17.662  0.00  0.00    +0.000 NA
ATOM     14  C   UNL     1      -1.053  10.413  18.076  0.00  0.00    +0.000 C 
ATOM     15  H   UNL     1      -0.201   8.576  17.436  0.00  0.00    +0.000 HD
ENDBRANCH  10  13
ENDBRANCH   4  10
BRANCH   6  16
ATOM     16  N   UNL     1       1.747   4.478  18.685  0.00  0.00    +0.000 N 
ATOM     17  O   UNL     1       1.800   4.174  19.885  0.00  0.00    +0.000 OA
ATOM     18  O   UNL     1       1.171   3.837  17.798  0.00  0.00    +0.000 OA
ENDBRANCH   6  16
BRANCH   1  19
ATOM     19  N   UNL     1       4.583   4.441  17.489  0.00  0.00    +0.000 N 
BRANCH  19  20
ATOM     20  C   UNL     1       4.814   3.831  16.155  0.00  0.00    +0.000 C 
BRANCH  20  22
ATOM     21  C   UNL     1       6.302   3.889  14.066  0.00  0.00    +0.000 C 
ATOM     22  C   UNL     1       6.231   3.832  15.579  0.00  0.00    +0.000 C 
ENDBRANCH  20  22
ENDBRANCH  19  20
BRANCH  19  23
ATOM     23  C   UNL     1       5.539   4.193  18.613  0.00  0.00    +0.000 C 
BRANCH  23  24
ATOM     24  C   UNL     1       6.101   5.377  19.399  0.00  0.00    +0.000 C 
ATOM     25  C   UNL     1       7.614   5.517  19.223  0.00  0.00    +0.000 C 
ENDBRANCH  23  24
ENDBRANCH  19  23
ENDBRANCH   1  19
TORSDOF 9
ENDMDL
MODEL 7
REMARK VINA RESULT:      -5.9      2.893      5.587
REMARK  Name = 
REMARK  12 active torsions:
REMARK  status: ('A' for Active; 'I' for Inactive)
REMARK    1  A    between atoms: C_1  and  C_2
REMARK    2  A    between atoms: C_2  and  C_3
REMARK    3  A    between atoms: C_3  and  N_4
REMARK    4  A    between atoms: N_4  and  C_5
REMARK    5  A    between atoms: N_4  and  C_8
REMARK    6  A    between atoms: C_5  and  C_6
REMARK    7  A    between atoms: C_6  and  C_7
REMARK    8  A    between atoms: C_9  and  N_10
REMARK    9  A    between atoms: C_14  and  S_15
REMARK   10  A    between atoms: S_15  and  N_18
REMARK   11  A    between atoms: N_18  and  C_19
REMARK   12  A    between atoms: C_21  and  N_22
REMARK                            x       y       z     vdW  Elec       q    Type
REMARK                         _______ _______ _______ _____ _____    ______ ____
ROOT
ATOM      1  C   UNL     1       3.592   5.693  18.135  0.00  0.00    +0.000 A 
ATOM      2  C   UNL     1       2.448   5.907  18.972  0.00  0.00    +0.000 A 
ATOM      3  C   UNL     1       1.740   7.129  19.077  0.00  0.00    +0.000 A 
ATOM      4  C   UNL     1       2.189   8.253  18.403  0.00  0.00    +0.000 A 
ATOM      5  C   UNL     1       3.350   8.165  17.652  0.00  0.00    +0.000 A 
ATOM      6  C   UNL     1       4.025   6.921  17.529  0.00  0.00    +0.000 A 
ENDROOT
BRANCH   2   7
ATOM      7  N   UNL     1       1.907   4.895  19.856  0.00  0.00    +0.000 N 
ATOM      8  O   UNL     1       1.196   4.026  19.332  0.00  0.00    +0.000 OA
ATOM      9  O   UNL     1       2.293   4.901  21.031  0.00  0.00    +0.000 OA
ENDBRANCH   2   7
BRANCH   4  10
ATOM     10  S   UNL     1       1.255   9.757  18.451  0.00  0.00    +0.000 S 
ATOM     11  O   UNL     1       0.072   9.534  17.650  0.00  0.00    +0.000 OA
ATOM     12  O   UNL     1       1.178  10.205  19.822  0.00  0.00    +0.000 OA
BRANCH  10  13
ATOM     13  N   UNL     1       2.216  10.834  17.597  0.00  0.00    +0.000 NA
ATOM     14  C   UNL     1       2.386  12.182  18.137  0.00  0.00    +0.000 C 
ATOM     15  H   UNL     1       2.030  10.767  16.594  0.00  0.00    +0.000 HD
ENDBRANCH  10  13
ENDBRANCH   4  10
BRANCH   6  16
ATOM     16  N   UNL     1       5.275   7.044  16.783  0.00  0.00    +0.000 N 
ATOM     17  O   UNL     1       5.192   7.142  15.550  0.00  0.00    +0.000 OA
ATOM     18  O   UNL     1       6.322   6.983  17.437  0.00  0.00    +0.000 OA
ENDBRANCH   6  16
BRANCH   1  19
ATOM     19  N   UNL     1       4.139   4.397  17.868  0.00  0.00    +0.000 N 
BRANCH  19  20
ATOM     20  C   UNL     1       4.302   3.960  16.458  0.00  0.00    +0.000 C 
BRANCH  20  22
ATOM     21  C   UNL     1       5.939   4.006  14.484  0.00  0.00    +0.000 C 
ATOM     22  C   UNL     1       5.707   3.652  15.940  0.00  0.00    +0.000 C 
ENDBRANCH  20  22
ENDBRANCH  19  20
BRANCH  19  23
ATOM     23  C   UNL     1       4.944   3.763  18.958  0.00  0.00    +0.000 C 
BRANCH  23  24
ATOM     24  C   UNL     1       4.382   2.554  19.704  0.00  0.00    +0.000 C 
ATOM     25  C   UNL     1       3.704   1.560  18.759  0.00  0.00    +0.000 C 
ENDBRANCH  23  24
ENDBRANCH  19  23
ENDBRANCH   1  19
TORSDOF 9
ENDMDL
MODEL 8
REMARK VINA RESULT:      -5.9      2.885      5.689
REMARK  Name = 
REMARK  12 active torsions:
REMARK  status: ('A' for Active; 'I' for Inactive)
REMARK    1  A    between atoms: C_1  and  C_2
REMARK    2  A    between atoms: C_2  and  C_3
REMARK    3  A    between atoms: C_3  and  N_4
REMARK    4  A    between atoms: N_4  and  C_5
REMARK    5  A    between atoms: N_4  and  C_8
REMARK    6  A    between atoms: C_5  and  C_6
REMARK    7  A    between atoms: C_6  and  C_7
REMARK    8  A    between atoms: C_9  and  N_10
REMARK    9  A    between atoms: C_14  and  S_15
REMARK   10  A    between atoms: S_15  and  N_18
REMARK   11  A    between atoms: N_18  and  C_19
REMARK   12  A    between atoms: C_21  and  N_22
REMARK                            x       y       z     vdW  Elec       q    Type
REMARK                         _______ _______ _______ _____ _____    ______ ____
ROOT
ATOM      1  C   UNL     1       3.756   5.779  18.123  0.00  0.00    +0.000 A 
ATOM      2  C   UNL     1       2.699   6.030  19.058  0.00  0.00    +0.000 A 
ATOM      3  C   UNL     1       1.965   7.239  19.144  0.00  0.00    +0.000 A 
ATOM      4  C   UNL     1       2.304   8.316  18.342  0.00  0.00    +0.000 A 
ATOM      5  C   UNL     1       3.383   8.198  17.481  0.00  0.00    +0.000 A 
ATOM      6  C   UNL     1       4.083   6.966  17.382  0.00  0.00    +0.000 A 
ENDROOT
BRANCH   2   7
ATOM      7  N   UNL     1       2.287   5.078  20.069  0.00  0.00    +0.000 N 
ATOM      8  O   UNL     1       1.158   4.586  19.937  0.00  0.00    +0.000 OA
ATOM      9  O   UNL     1       3.132   4.737  20.906  0.00  0.00    +0.000 OA
ENDBRANCH   2   7
BRANCH   4  10
ATOM     10  S   UNL     1       1.330   9.795  18.375  0.00  0.00    +0.000 S 
ATOM     11  O   UNL     1       2.211  10.877  17.996  0.00  0.00    +0.000 OA
ATOM     12  O   UNL     1       0.087   9.541  17.684  0.00  0.00    +0.000 OA
BRANCH  10  13
ATOM     13  N   UNL     1       0.995   9.999  20.006  0.00  0.00    +0.000 NA
ATOM     14  C   UNL     1      -0.397   9.901  20.440  0.00  0.00    +0.000 C 
ATOM     15  H   UNL     1       1.538  10.775  20.391  0.00  0.00    +0.000 HD
ENDBRANCH  10  13
ENDBRANCH   4  10
BRANCH   6  16
ATOM     16  N   UNL     1       5.244   7.060  16.500  0.00  0.00    +0.000 N 
ATOM     17  O   UNL     1       6.266   7.585  16.963  0.00  0.00    +0.000 OA
ATOM     18  O   UNL     1       5.096   6.658  15.341  0.00  0.00    +0.000 OA
ENDBRANCH   6  16
BRANCH   1  19
ATOM     19  N   UNL     1       4.316   4.480  17.899  0.00  0.00    +0.000 N 
BRANCH  19  20
ATOM     20  C   UNL     1       3.658   3.571  16.927  0.00  0.00    +0.000 C 
BRANCH  20  22
ATOM     21  C   UNL     1       3.084   1.781  18.673  0.00  0.00    +0.000 C 
ATOM     22  C   UNL     1       2.642   2.550  17.443  0.00  0.00    +0.000 C 
ENDBRANCH  20  22
ENDBRANCH  19  20
BRANCH  19  23
ATOM     23  C   UNL     1       5.752   4.287  18.268  0.00  0.00    +0.000 C 
BRANCH  23  24
ATOM     24  C   UNL     1       6.359   5.119  19.397  0.00  0.00    +0.000 C 
ATOM     25  C   UNL     1       7.782   5.578  19.072  0.00  0.00    +0.000 C 
ENDBRANCH  23  24
ENDBRANCH  19  23
ENDBRANCH   1  19
TORSDOF 9
ENDMDL
MODEL 9
REMARK VINA RESULT:      -5.9      2.950      5.980
REMARK  Name = 
REMARK  12 active torsions:
REMARK  status: ('A' for Active; 'I' for Inactive)
REMARK    1  A    between atoms: C_1  and  C_2
REMARK    2  A    between atoms: C_2  and  C_3
REMARK    3  A    between atoms: C_3  and  N_4
REMARK    4  A    between atoms: N_4  and  C_5
REMARK    5  A    between atoms: N_4  and  C_8
REMARK    6  A    between atoms: C_5  and  C_6
REMARK    7  A    between atoms: C_6  and  C_7
REMARK    8  A    between atoms: C_9  and  N_10
REMARK    9  A    between atoms: C_14  and  S_15
REMARK   10  A    between atoms: S_15  and  N_18
REMARK   11  A    between atoms: N_18  and  C_19
REMARK   12  A    between atoms: C_21  and  N_22
REMARK                            x       y       z     vdW  Elec       q    Type
REMARK                         _______ _______ _______ _____ _____    ______ ____
ROOT
ATOM      1  C   UNL     1       3.817   5.759  18.341  0.00  0.00    +0.000 A 
ATOM      2  C   UNL     1       4.063   6.900  17.508  0.00  0.00    +0.000 A 
ATOM      3  C   UNL     1       3.307   8.097  17.533  0.00  0.00    +0.000 A 
ATOM      4  C   UNL     1       2.191   8.198  18.346  0.00  0.00    +0.000 A 
ATOM      5  C   UNL     1       1.816   7.104  19.108  0.00  0.00    +0.000 A 
ATOM      6  C   UNL     1       2.609   5.925  19.099  0.00  0.00    +0.000 A 
ENDROOT
BRANCH   2   7
ATOM      7  N   UNL     1       5.101   6.939  16.498  0.00  0.00    +0.000 N 
ATOM      8  O   UNL     1       4.860   6.351  15.434  0.00  0.00    +0.000 OA
ATOM      9  O   UNL     1       6.085   7.655  16.721  0.00  0.00    +0.000 OA
ENDBRANCH   2   7
BRANCH   4  10
ATOM     10  S   UNL     1       1.299   9.724  18.454  0.00  0.00    +0.000 S 
ATOM     11  O   UNL     1       0.095   9.555  17.672  0.00  0.00    +0.000 OA
ATOM     12  O   UNL     1       1.262  10.136  19.838  0.00  0.00    +0.000 OA
BRANCH  10  13
ATOM     13  N   UNL     1       2.272  10.799  17.610  0.00  0.00    +0.000 NA
ATOM     14  C   UNL     1       2.410  12.158  18.131  0.00  0.00    +0.000 C 
ATOM     15  H   UNL     1       2.116  10.713  16.603  0.00  0.00    +0.000 HD
ENDBRANCH  10  13
ENDBRANCH   4  10
BRANCH   6  16
ATOM     16  N   UNL     1       2.007   4.849  19.883  0.00  0.00    +0.000 N 
ATOM     17  O   UNL     1       2.432   4.681  21.035  0.00  0.00    +0.000 OA
ATOM     18  O   UNL     1       1.156   4.155  19.315  0.00  0.00    +0.000 OA
ENDBRANCH   6  16
BRANCH   1  19
ATOM     19  N   UNL     1       4.732   4.664  18.464  0.00  0.00    +0.000 N 
BRANCH  19  20
ATOM     20  C   UNL     1       4.678   3.565  17.467  0.00  0.00    +0.000 C 
BRANCH  20  22
ATOM     21  C   UNL     1       3.688   1.761  18.999  0.00  0.00    +0.000 C 
ATOM     22  C   UNL     1       3.643   2.454  17.651  0.00  0.00    +0.000 C 
ENDBRANCH  20  22
ENDBRANCH  19  20
BRANCH  19  23
ATOM     23  C   UNL     1       5.972   4.903  19.265  0.00  0.00    +0.000 C 
BRANCH  23  24
ATOM     24  C   UNL     1       7.318   5.027  18.552  0.00  0.00    +0.000 C 
ATOM     25  C   UNL     1       8.051   6.316  18.926  0.00  0.00    +0.000 C 
ENDBRANCH  23  24
ENDBRANCH  19  23
ENDBRANCH   1  19
TORSDOF 9
ENDMDL
