MODEL 1
REMARK VINA RESULT:      -8.3      0.000      0.000
REMARK  Name = 
REMARK  14 active torsions:
REMARK  status: ('A' for Active; 'I' for Inactive)
REMARK    1  A    between atoms: C_1  and  C_2
REMARK    2  A    between atoms: C_2  and  C_3
REMARK    3  A    between atoms: C_3  and  C_4
REMARK    4  A    between atoms: C_3  and  C_5
REMARK    5  A    between atoms: C_5  and  N_6
REMARK    6  A    between atoms: C_5  and  C_17
REMARK    7  A    between atoms: C_7  and  O_9
REMARK    8  A    between atoms: O_9  and  C_10
REMARK    9  A    between atoms: C_10  and  C_11
REMARK   10  A    between atoms: N_19  and  C_20
REMARK   11  A    between atoms: C_20  and  C_21
REMARK   12  A    between atoms: C_20  and  C_29
REMARK   13  A    between atoms: C_21  and  C_22
REMARK   14  A    between atoms: N_31  and  O_32
REMARK                            x       y       z     vdW  Elec       q    Type
REMARK                         _______ _______ _______ _____ _____    ______ ____
ROOT
ATOM      1  C   UNL     1       4.974   6.112  16.949  0.00  0.00    +0.000 C 
ATOM      2  O   UNL     1       4.604   6.788  15.987  0.00  0.00    +0.000 OA
ATOM      3  N   UNL     1       4.063   5.594  17.844  0.00  0.00    +0.000 N 
ATOM      4  H   UNL     1       4.380   5.171  18.712  0.00  0.00    +0.000 HD
ENDROOT
BRANCH   1   5
ATOM      5  C   UNL     1       6.483   5.795  17.176  0.00  0.00    +0.000 C 
BRANCH   5   6
ATOM      6  N   UNL     1       7.132   7.104  17.066  0.00  0.00    +0.000 N 
ATOM      7  C   UNL     1       8.036   7.630  17.934  0.00  0.00    +0.000 C 
ATOM      8  O   UNL     1       8.366   7.129  18.997  0.00  0.00    +0.000 OA
ATOM      9  H   UNL     1       6.933   7.655  16.239  0.00  0.00    +0.000 HD
BRANCH   7  10
ATOM     10  O   UNL     1       8.503   8.792  17.418  0.00  0.00    +0.000 OA
BRANCH  10  11
ATOM     11  C   UNL     1       8.127  10.000  18.090  0.00  0.00    +0.000 C 
BRANCH  11  12
ATOM     12  C   UNL     1       9.318  10.728  18.667  0.00  0.00    +0.000 A 
ATOM     13  C   UNL     1       9.427  10.957  20.048  0.00  0.00    +0.000 A 
ATOM     14  C   UNL     1      10.563  11.574  20.581  0.00  0.00    +0.000 A 
ATOM     15  C   UNL     1      11.598  11.978  19.740  0.00  0.00    +0.000 A 
ATOM     16  C   UNL     1      11.493  11.772  18.365  0.00  0.00    +0.000 A 
ATOM     17  C   UNL     1      10.359  11.156  17.831  0.00  0.00    +0.000 A 
ENDBRANCH  11  12
ENDBRANCH  10  11
ENDBRANCH   7  10
ENDBRANCH   5   6
BRANCH   5  18
ATOM     18  C   UNL     1       7.013   4.843  16.064  0.00  0.00    +0.000 C 
ATOM     19  C   UNL     1       7.560   5.626  14.866  0.00  0.00    +0.000 C 
BRANCH  18  21
ATOM     20  C   UNL     1       5.713   3.834  14.087  0.00  0.00    +0.000 C 
ATOM     21  C   UNL     1       5.947   3.821  15.594  0.00  0.00    +0.000 C 
ENDBRANCH  18  21
ENDBRANCH   5  18
ENDBRANCH   1   5
BRANCH   3  22
ATOM     22  C   UNL     1       2.638   5.962  17.759  0.00  0.00    +0.000 C 
BRANCH  22  23
ATOM     23  C   UNL     1       2.316   7.116  18.721  0.00  0.00    +0.000 C 
ATOM     24  O   UNL     1       1.958   8.234  18.345  0.00  0.00    +0.000 OA
ATOM     25  N   UNL     1       2.480   6.818  20.055  0.00  0.00    +0.000 N 
ATOM     26  H   UNL     1       2.596   5.884  20.434  0.00  0.00    +0.000 HD
BRANCH  25  27
ATOM     27  O   UNL     1       2.201   7.849  20.978  0.00  0.00    +0.000 OA
ATOM     28  H   UNL     1       1.865   8.570  20.402  0.00  0.00    +0.000 HD
ENDBRANCH  25  27
ENDBRANCH  22  23
BRANCH  22  29
ATOM     29  C   UNL     1       1.663   4.761  17.907  0.00  0.00    +0.000 C 
BRANCH  29  30
ATOM     30  C   UNL     1       1.889   3.867  19.113  0.00  0.00    +0.000 A 
ATOM     31  C   UNL     1       1.118   4.056  20.277  0.00  0.00    +0.000 A 
ATOM     32  C   UNL     1       1.411   3.379  21.461  0.00  0.00    +0.000 A 
ATOM     33  C   UNL     1       2.452   2.461  21.496  0.00  0.00    +0.000 A 
ATOM     34  C   UNL     1       3.143   2.164  20.323  0.00  0.00    +0.000 A 
ATOM     35  C   UNL     1       2.850   2.842  19.134  0.00  0.00    +0.000 A 
ATOM     36 CL   UNL     1       3.687   2.326  17.713  0.00  0.00    +0.000 Cl
ENDBRANCH  29  30
ENDBRANCH  22  29
ENDBRANCH   3  22
TORSDOF 12
ENDMDL
MODEL 2
REMARK VINA RESULT:      -8.1      4.437      7.210
REMARK  Name = 
REMARK  14 active torsions:
REMARK  status: ('A' for Active; 'I' for Inactive)
REMARK    1  A    between atoms: C_1  and  C_2
REMARK    2  A    between atoms: C_2  and  C_3
REMARK    3  A    between atoms: C_3  and  C_4
REMARK    4  A    between atoms: C_3  and  C_5
REMARK    5  A    between atoms: C_5  and  N_6
REMARK    6  A    between atoms: C_5  and  C_17
REMARK    7  A    between atoms: C_7  and  O_9
REMARK    8  A    between atoms: O_9  and  C_10
REMARK    9  A    between atoms: C_10  and  C_11
REMARK   10  A    between atoms: N_19  and  C_20
REMARK   11  A    between atoms: C_20  and  C_21
REMARK   12  A    between atoms: C_20  and  C_29
REMARK   13  A    between atoms: C_21  and  C_22
REMARK   14  A    between atoms: N_31  and  O_32
REMARK                            x       y       z     vdW  Elec       q    Type
REMARK                         _______ _______ _______ _____ _____    ______ ____
ROOT
ATOM      1  C   UNL     1       2.797   6.559  19.252  0.00  0.00    +0.000 C 
ATOM      2  O   UNL     1       2.976   7.184  18.206  0.00  0.00    +0.000 OA
ATOM      3  N   UNL     1       2.106   7.120  20.304  0.00  0.00    +0.000 N 
ATOM      4  H   UNL     1       2.094   6.664  21.212  0.00  0.00    +0.000 HD
ENDROOT
BRANCH   1   5
ATOM      5  C   UNL     1       3.323   5.101  19.418  0.00  0.00    +0.000 C 
BRANCH   5   6
ATOM      6  N   UNL     1       4.300   4.960  18.335  0.00  0.00    +0.000 N 
ATOM      7  C   UNL     1       5.644   4.819  18.477  0.00  0.00    +0.000 C 
ATOM      8  O   UNL     1       6.253   4.894  19.532  0.00  0.00    +0.000 OA
ATOM      9  H   UNL     1       3.942   4.909  17.388  0.00  0.00    +0.000 HD
BRANCH   7  10
ATOM     10  O   UNL     1       6.184   4.583  17.257  0.00  0.00    +0.000 OA
BRANCH  10  11
ATOM     11  C   UNL     1       5.282   4.215  16.207  0.00  0.00    +0.000 C 
BRANCH  11  12
ATOM     12  C   UNL     1       5.929   4.294  14.844  0.00  0.00    +0.000 A 
ATOM     13  C   UNL     1       7.091   5.055  14.637  0.00  0.00    +0.000 A 
ATOM     14  C   UNL     1       7.720   5.071  13.388  0.00  0.00    +0.000 A 
ATOM     15  C   UNL     1       7.191   4.335  12.330  0.00  0.00    +0.000 A 
ATOM     16  C   UNL     1       6.027   3.590  12.518  0.00  0.00    +0.000 A 
ATOM     17  C   UNL     1       5.397   3.572  13.765  0.00  0.00    +0.000 A 
ENDBRANCH  11  12
ENDBRANCH  10  11
ENDBRANCH   7  10
ENDBRANCH   5   6
BRANCH   5  18
ATOM     18  C   UNL     1       2.165   4.079  19.226  0.00  0.00    +0.000 C 
ATOM     19  C   UNL     1       1.435   4.297  17.897  0.00  0.00    +0.000 C 
BRANCH  18  21
ATOM     20  C   UNL     1       1.419   3.015  21.446  0.00  0.00    +0.000 C 
ATOM     21  C   UNL     1       1.154   4.093  20.401  0.00  0.00    +0.000 C 
ENDBRANCH  18  21
ENDBRANCH   5  18
ENDBRANCH   1   5
BRANCH   3  22
ATOM     22  C   UNL     1       1.695   8.534  20.261  0.00  0.00    +0.000 C 
BRANCH  22  23
ATOM     23  C   UNL     1       0.986   8.935  21.564  0.00  0.00    +0.000 C 
ATOM     24  O   UNL     1       1.497   9.661  22.420  0.00  0.00    +0.000 OA
ATOM     25  N   UNL     1      -0.271   8.400  21.725  0.00  0.00    +0.000 N 
ATOM     26  H   UNL     1      -0.813   7.951  20.994  0.00  0.00    +0.000 HD
BRANCH  25  27
ATOM     27  O   UNL     1      -0.960   8.736  22.910  0.00  0.00    +0.000 OA
ATOM     28  H   UNL     1      -0.231   8.882  23.552  0.00  0.00    +0.000 HD
ENDBRANCH  25  27
ENDBRANCH  22  23
BRANCH  22  29
ATOM     29  C   UNL     1       0.889   8.922  18.991  0.00  0.00    +0.000 C 
BRANCH  29  30
ATOM     30  C   UNL     1       0.729  10.409  18.733  0.00  0.00    +0.000 A 
ATOM     31  C   UNL     1       1.871  11.229  18.644  0.00  0.00    +0.000 A 
ATOM     32  C   UNL     1       1.765  12.619  18.586  0.00  0.00    +0.000 A 
ATOM     33  C   UNL     1       0.514  13.219  18.567  0.00  0.00    +0.000 A 
ATOM     34  C   UNL     1      -0.628  12.422  18.524  0.00  0.00    +0.000 A 
ATOM     35  C   UNL     1      -0.524  11.028  18.581  0.00  0.00    +0.000 A 
ATOM     36 CL   UNL     1      -1.989  10.126  18.413  0.00  0.00    +0.000 Cl
ENDBRANCH  29  30
ENDBRANCH  22  29
ENDBRANCH   3  22
TORSDOF 12
ENDMDL
MODEL 3
REMARK VINA RESULT:      -8.0      2.517      3.675
REMARK  Name = 
REMARK  14 active torsions:
REMARK  status: ('A' for Active; 'I' for Inactive)
REMARK    1  A    between atoms: C_1  and  C_2
REMARK    2  A    between atoms: C_2  and  C_3
REMARK    3  A    between atoms: C_3  and  C_4
REMARK    4  A    between atoms: C_3  and  C_5
REMARK    5  A    between atoms: C_5  and  N_6
REMARK    6  A    between atoms: C_5  and  C_17
REMARK    7  A    between atoms: C_7  and  O_9
REMARK    8  A    between atoms: O_9  and  C_10
REMARK    9  A    between atoms: C_10  and  C_11
REMARK   10  A    between atoms: N_19  and  C_20
REMARK   11  A    between atoms: C_20  and  C_21
REMARK   12  A    between atoms: C_20  and  C_29
REMARK   13  A    between atoms: C_21  and  C_22
REMARK   14  A    between atoms: N_31  and  O_32
REMARK                            x       y       z     vdW  Elec       q    Type
REMARK                         _______ _______ _______ _____ _____    ______ ____
ROOT
ATOM      1  C   UNL     1       5.342   5.693  18.114  0.00  0.00    +0.000 C 
ATOM      2  O   UNL     1       5.418   5.234  19.254  0.00  0.00    +0.000 OA
ATOM      3  N   UNL     1       4.215   6.366  17.694  0.00  0.00    +0.000 N 
ATOM      4  H   UNL     1       4.097   6.606  16.713  0.00  0.00    +0.000 HD
ENDROOT
BRANCH   1   5
ATOM      5  C   UNL     1       6.527   5.555  17.111  0.00  0.00    +0.000 C 
BRANCH   5   6
ATOM      6  N   UNL     1       7.024   6.926  16.970  0.00  0.00    +0.000 N 
ATOM      7  C   UNL     1       7.938   7.537  17.769  0.00  0.00    +0.000 C 
ATOM      8  O   UNL     1       8.408   7.065  18.792  0.00  0.00    +0.000 OA
ATOM      9  H   UNL     1       6.698   7.460  16.173  0.00  0.00    +0.000 HD
BRANCH   7  10
ATOM     10  O   UNL     1       8.234   8.747  17.236  0.00  0.00    +0.000 OA
BRANCH  10  11
ATOM     11  C   UNL     1       7.900   9.901  18.017  0.00  0.00    +0.000 C 
BRANCH  11  12
ATOM     12  C   UNL     1       9.126  10.607  18.547  0.00  0.00    +0.000 A 
ATOM     13  C   UNL     1       9.370  10.694  19.927  0.00  0.00    +0.000 A 
ATOM     14  C   UNL     1      10.539  11.293  20.408  0.00  0.00    +0.000 A 
ATOM     15  C   UNL     1      11.471  11.820  19.516  0.00  0.00    +0.000 A 
ATOM     16  C   UNL     1      11.231  11.756  18.144  0.00  0.00    +0.000 A 
ATOM     17  C   UNL     1      10.064  11.158  17.662  0.00  0.00    +0.000 A 
ENDBRANCH  11  12
ENDBRANCH  10  11
ENDBRANCH   7  10
ENDBRANCH   5   6
BRANCH   5  18
ATOM     18  C   UNL     1       6.019   5.030  15.737  0.00  0.00    +0.000 C 
ATOM     19  C   UNL     1       5.485   3.597  15.842  0.00  0.00    +0.000 C 
BRANCH  18  21
ATOM     20  C   UNL     1       6.758   4.309  13.380  0.00  0.00    +0.000 C 
ATOM     21  C   UNL     1       7.099   5.118  14.627  0.00  0.00    +0.000 C 
ENDBRANCH  18  21
ENDBRANCH   5  18
ENDBRANCH   1   5
BRANCH   3  22
ATOM     22  C   UNL     1       3.014   6.420  18.546  0.00  0.00    +0.000 C 
BRANCH  22  23
ATOM     23  C   UNL     1       2.281   5.070  18.540  0.00  0.00    +0.000 C 
ATOM     24  O   UNL     1       1.523   4.704  19.441  0.00  0.00    +0.000 OA
ATOM     25  N   UNL     1       2.551   4.272  17.451  0.00  0.00    +0.000 N 
ATOM     26  H   UNL     1       3.014   4.580  16.603  0.00  0.00    +0.000 HD
BRANCH  25  27
ATOM     27  O   UNL     1       1.904   3.019  17.403  0.00  0.00    +0.000 OA
ATOM     28  H   UNL     1       1.047   3.233  16.974  0.00  0.00    +0.000 HD
ENDBRANCH  25  27
ENDBRANCH  22  23
BRANCH  22  29
ATOM     29  C   UNL     1       2.075   7.619  18.244  0.00  0.00    +0.000 C 
BRANCH  29  30
ATOM     30  C   UNL     1       1.654   8.453  19.440  0.00  0.00    +0.000 A 
ATOM     31  C   UNL     1       1.545   7.849  20.709  0.00  0.00    +0.000 A 
ATOM     32  C   UNL     1       0.996   8.532  21.794  0.00  0.00    +0.000 A 
ATOM     33  C   UNL     1       0.585   9.849  21.649  0.00  0.00    +0.000 A 
ATOM     34  C   UNL     1       0.803  10.506  20.439  0.00  0.00    +0.000 A 
ATOM     35  C   UNL     1       1.355   9.824  19.350  0.00  0.00    +0.000 A 
ATOM     36 CL   UNL     1       1.685  10.752  17.930  0.00  0.00    +0.000 Cl
ENDBRANCH  29  30
ENDBRANCH  22  29
ENDBRANCH   3  22
TORSDOF 12
ENDMDL
MODEL 4
REMARK VINA RESULT:      -8.0      1.357      2.032
REMARK  Name = 
REMARK  14 active torsions:
REMARK  status: ('A' for Active; 'I' for Inactive)
REMARK    1  A    between atoms: C_1  and  C_2
REMARK    2  A    between atoms: C_2  and  C_3
REMARK    3  A    between atoms: C_3  and  C_4
REMARK    4  A    between atoms: C_3  and  C_5
REMARK    5  A    between atoms: C_5  and  N_6
REMARK    6  A    between atoms: C_5  and  C_17
REMARK    7  A    between atoms: C_7  and  O_9
REMARK    8  A    between atoms: O_9  and  C_10
REMARK    9  A    between atoms: C_10  and  C_11
REMARK   10  A    between atoms: N_19  and  C_20
REMARK   11  A    between atoms: C_20  and  C_21
REMARK   12  A    between atoms: C_20  and  C_29
REMARK   13  A    between atoms: C_21  and  C_22
REMARK   14  A    between atoms: N_31  and  O_32
REMARK                            x       y       z     vdW  Elec       q    Type
REMARK                         _______ _______ _______ _____ _____    ______ ____
ROOT
ATOM      1  C   UNL     1       4.800   6.584  17.256  0.00  0.00    +0.000 C 
ATOM      2  O   UNL     1       4.539   6.929  16.102  0.00  0.00    +0.000 OA
ATOM      3  N   UNL     1       3.802   6.430  18.194  0.00  0.00    +0.000 N 
ATOM      4  H   UNL     1       4.034   6.297  19.174  0.00  0.00    +0.000 HD
ENDROOT
BRANCH   1   5
ATOM      5  C   UNL     1       6.266   6.283  17.693  0.00  0.00    +0.000 C 
BRANCH   5   6
ATOM      6  N   UNL     1       6.997   7.493  17.307  0.00  0.00    +0.000 N 
ATOM      7  C   UNL     1       8.088   8.007  17.933  0.00  0.00    +0.000 C 
ATOM      8  O   UNL     1       8.562   7.593  18.978  0.00  0.00    +0.000 OA
ATOM      9  H   UNL     1       6.699   7.968  16.463  0.00  0.00    +0.000 HD
BRANCH   7  10
ATOM     10  O   UNL     1       8.553   9.048  17.200  0.00  0.00    +0.000 OA
BRANCH  10  11
ATOM     11  C   UNL     1       8.313  10.364  17.713  0.00  0.00    +0.000 C 
BRANCH  11  12
ATOM     12  C   UNL     1       9.506  10.912  18.461  0.00  0.00    +0.000 A 
ATOM     13  C   UNL     1      10.637  11.382  17.774  0.00  0.00    +0.000 A 
ATOM     14  C   UNL     1      11.710  11.947  18.470  0.00  0.00    +0.000 A 
ATOM     15  C   UNL     1      11.669  12.041  19.859  0.00  0.00    +0.000 A 
ATOM     16  C   UNL     1      10.559  11.562  20.554  0.00  0.00    +0.000 A 
ATOM     17  C   UNL     1       9.486  10.996  19.860  0.00  0.00    +0.000 A 
ENDBRANCH  11  12
ENDBRANCH  10  11
ENDBRANCH   7  10
ENDBRANCH   5   6
BRANCH   5  18
ATOM     18  C   UNL     1       6.824   5.054  16.918  0.00  0.00    +0.000 C 
ATOM     19  C   UNL     1       7.973   4.383  17.677  0.00  0.00    +0.000 C 
BRANCH  18  21
ATOM     20  C   UNL     1       6.591   4.565  14.403  0.00  0.00    +0.000 C 
ATOM     21  C   UNL     1       7.270   5.409  15.476  0.00  0.00    +0.000 C 
ENDBRANCH  18  21
ENDBRANCH   5  18
ENDBRANCH   1   5
BRANCH   3  22
ATOM     22  C   UNL     1       2.415   6.820  17.882  0.00  0.00    +0.000 C 
BRANCH  22  23
ATOM     23  C   UNL     1       2.012   8.075  18.674  0.00  0.00    +0.000 C 
ATOM     24  O   UNL     1       1.824   8.078  19.892  0.00  0.00    +0.000 OA
ATOM     25  N   UNL     1       1.849   9.210  17.912  0.00  0.00    +0.000 N 
ATOM     26  H   UNL     1       2.157   9.317  16.952  0.00  0.00    +0.000 HD
BRANCH  25  27
ATOM     27  O   UNL     1       1.474  10.387  18.595  0.00  0.00    +0.000 OA
ATOM     28  H   UNL     1       2.249  10.975  18.456  0.00  0.00    +0.000 HD
ENDBRANCH  25  27
ENDBRANCH  22  23
BRANCH  22  29
ATOM     29  C   UNL     1       1.385   5.665  18.015  0.00  0.00    +0.000 C 
BRANCH  29  30
ATOM     30  C   UNL     1       1.958   4.300  18.349  0.00  0.00    +0.000 A 
ATOM     31  C   UNL     1       2.378   3.445  17.310  0.00  0.00    +0.000 A 
ATOM     32  C   UNL     1       2.744   2.122  17.560  0.00  0.00    +0.000 A 
ATOM     33  C   UNL     1       2.743   1.636  18.859  0.00  0.00    +0.000 A 
ATOM     34  C   UNL     1       2.456   2.500  19.914  0.00  0.00    +0.000 A 
ATOM     35  C   UNL     1       2.090   3.828  19.666  0.00  0.00    +0.000 A 
ATOM     36 CL   UNL     1       1.860   4.847  21.043  0.00  0.00    +0.000 Cl
ENDBRANCH  29  30
ENDBRANCH  22  29
ENDBRANCH   3  22
TORSDOF 12
ENDMDL
MODEL 5
REMARK VINA RESULT:      -8.0      0.970      1.314
REMARK  Name = 
REMARK  14 active torsions:
REMARK  status: ('A' for Active; 'I' for Inactive)
REMARK    1  A    between atoms: C_1  and  C_2
REMARK    2  A    between atoms: C_2  and  C_3
REMARK    3  A    between atoms: C_3  and  C_4
REMARK    4  A    between atoms: C_3  and  C_5
REMARK    5  A    between atoms: C_5  and  N_6
REMARK    6  A    between atoms: C_5  and  C_17
REMARK    7  A    between atoms: C_7  and  O_9
REMARK    8  A    between atoms: O_9  and  C_10
REMARK    9  A    between atoms: C_10  and  C_11
REMARK   10  A    between atoms: N_19  and  C_20
REMARK   11  A    between atoms: C_20  and  C_21
REMARK   12  A    between atoms: C_20  and  C_29
REMARK   13  A    between atoms: C_21  and  C_22
REMARK   14  A    between atoms: N_31  and  O_32
REMARK                            x       y       z     vdW  Elec       q    Type
REMARK                         _______ _______ _______ _____ _____    ______ ____
ROOT
ATOM      1  C   UNL     1       4.952   6.060  16.832  0.00  0.00    +0.000 C 
ATOM      2  O   UNL     1       4.610   6.738  15.861  0.00  0.00    +0.000 OA
ATOM      3  N   UNL     1       4.017   5.575  17.722  0.00  0.00    +0.000 N 
ATOM      4  H   UNL     1       4.314   5.152  18.597  0.00  0.00    +0.000 HD
ENDROOT
BRANCH   1   5
ATOM      5  C   UNL     1       6.449   5.704  17.077  0.00  0.00    +0.000 C 
BRANCH   5   6
ATOM      6  N   UNL     1       7.105   7.011  17.172  0.00  0.00    +0.000 N 
ATOM      7  C   UNL     1       7.978   7.405  18.136  0.00  0.00    +0.000 C 
ATOM      8  O   UNL     1       8.268   6.759  19.131  0.00  0.00    +0.000 OA
ATOM      9  H   UNL     1       6.937   7.672  16.423  0.00  0.00    +0.000 HD
BRANCH   7  10
ATOM     10  O   UNL     1       8.466   8.624  17.802  0.00  0.00    +0.000 OA
BRANCH  10  11
ATOM     11  C   UNL     1       8.970   9.437  18.868  0.00  0.00    +0.000 C 
BRANCH  11  12
ATOM     12  C   UNL     1       9.360  10.819  18.398  0.00  0.00    +0.000 A 
ATOM     13  C   UNL     1       8.410  11.687  17.836  0.00  0.00    +0.000 A 
ATOM     14  C   UNL     1       8.765  12.987  17.463  0.00  0.00    +0.000 A 
ATOM     15  C   UNL     1      10.074  13.431  17.638  0.00  0.00    +0.000 A 
ATOM     16  C   UNL     1      11.031  12.572  18.178  0.00  0.00    +0.000 A 
ATOM     17  C   UNL     1      10.678  11.272  18.552  0.00  0.00    +0.000 A 
ENDBRANCH  11  12
ENDBRANCH  10  11
ENDBRANCH   7  10
ENDBRANCH   5   6
BRANCH   5  18
ATOM     18  C   UNL     1       7.024   4.907  15.870  0.00  0.00    +0.000 C 
ATOM     19  C   UNL     1       7.423   5.836  14.719  0.00  0.00    +0.000 C 
BRANCH  18  21
ATOM     20  C   UNL     1       5.813   3.862  13.855  0.00  0.00    +0.000 C 
ATOM     21  C   UNL     1       6.053   3.811  15.360  0.00  0.00    +0.000 C 
ENDBRANCH  18  21
ENDBRANCH   5  18
ENDBRANCH   1   5
BRANCH   3  22
ATOM     22  C   UNL     1       2.604   5.981  17.619  0.00  0.00    +0.000 C 
BRANCH  22  23
ATOM     23  C   UNL     1       2.339   7.244  18.453  0.00  0.00    +0.000 C 
ATOM     24  O   UNL     1       2.420   7.276  19.683  0.00  0.00    +0.000 OA
ATOM     25  N   UNL     1       1.975   8.352  17.722  0.00  0.00    +0.000 N 
ATOM     26  H   UNL     1       2.063   8.442  16.715  0.00  0.00    +0.000 HD
BRANCH  25  27
ATOM     27  O   UNL     1       1.717   9.536  18.445  0.00  0.00    +0.000 OA
ATOM     28  H   UNL     1       2.521   9.632  19.000  0.00  0.00    +0.000 HD
ENDBRANCH  25  27
ENDBRANCH  22  23
BRANCH  22  29
ATOM     29  C   UNL     1       1.593   4.839  17.914  0.00  0.00    +0.000 C 
BRANCH  29  30
ATOM     30  C   UNL     1       1.898   3.979  19.128  0.00  0.00    +0.000 A 
ATOM     31  C   UNL     1       1.262   4.253  20.355  0.00  0.00    +0.000 A 
ATOM     32  C   UNL     1       1.641   3.605  21.531  0.00  0.00    +0.000 A 
ATOM     33  C   UNL     1       2.633   2.635  21.499  0.00  0.00    +0.000 A 
ATOM     34  C   UNL     1       3.183   2.258  20.276  0.00  0.00    +0.000 A 
ATOM     35  C   UNL     1       2.803   2.905  19.095  0.00  0.00    +0.000 A 
ATOM     36 CL   UNL     1       3.463   2.293  17.620  0.00  0.00    +0.000 Cl
ENDBRANCH  29  30
ENDBRANCH  22  29
ENDBRANCH   3  22
TORSDOF 12
ENDMDL
MODEL 6
REMARK VINA RESULT:      -7.9      4.586      7.415
REMARK  Name = 
REMARK  14 active torsions:
REMARK  status: ('A' for Active; 'I' for Inactive)
REMARK    1  A    between atoms: C_1  and  C_2
REMARK    2  A    between atoms: C_2  and  C_3
REMARK    3  A    between atoms: C_3  and  C_4
REMARK    4  A    between atoms: C_3  and  C_5
REMARK    5  A    between atoms: C_5  and  N_6
REMARK    6  A    between atoms: C_5  and  C_17
REMARK    7  A    between atoms: C_7  and  O_9
REMARK    8  A    between atoms: O_9  and  C_10
REMARK    9  A    between atoms: C_10  and  C_11
REMARK   10  A    between atoms: N_19  and  C_20
REMARK   11  A    between atoms: C_20  and  C_21
REMARK   12  A    between atoms: C_20  and  C_29
REMARK   13  A    between atoms: C_21  and  C_22
REMARK   14  A    between atoms: N_31  and  O_32
REMARK                            x       y       z     vdW  Elec       q    Type
REMARK                         _______ _______ _______ _____ _____    ______ ____
ROOT
ATOM      1  C   UNL     1       2.533   6.991  19.134  0.00  0.00    +0.000 C 
ATOM      2  O   UNL     1       2.983   7.666  18.207  0.00  0.00    +0.000 OA
ATOM      3  N   UNL     1       1.701   7.551  20.080  0.00  0.00    +0.000 N 
ATOM      4  H   UNL     1       1.459   7.034  20.920  0.00  0.00    +0.000 HD
ENDROOT
BRANCH   1   5
ATOM      5  C   UNL     1       2.865   5.473  19.259  0.00  0.00    +0.000 C 
BRANCH   5   6
ATOM      6  N   UNL     1       3.604   5.179  18.029  0.00  0.00    +0.000 N 
ATOM      7  C   UNL     1       4.909   4.809  17.942  0.00  0.00    +0.000 C 
ATOM      8  O   UNL     1       5.693   4.768  18.877  0.00  0.00    +0.000 OA
ATOM      9  H   UNL     1       3.086   5.199  17.158  0.00  0.00    +0.000 HD
BRANCH   7  10
ATOM     10  O   UNL     1       5.183   4.495  16.653  0.00  0.00    +0.000 OA
BRANCH  10  11
ATOM     11  C   UNL     1       6.530   4.693  16.208  0.00  0.00    +0.000 C 
BRANCH  11  12
ATOM     12  C   UNL     1       6.664   4.552  14.709  0.00  0.00    +0.000 A 
ATOM     13  C   UNL     1       7.616   5.296  13.994  0.00  0.00    +0.000 A 
ATOM     14  C   UNL     1       7.777   5.111  12.617  0.00  0.00    +0.000 A 
ATOM     15  C   UNL     1       6.982   4.191  11.938  0.00  0.00    +0.000 A 
ATOM     16  C   UNL     1       6.021   3.459  12.634  0.00  0.00    +0.000 A 
ATOM     17  C   UNL     1       5.858   3.642  14.010  0.00  0.00    +0.000 A 
ENDBRANCH  11  12
ENDBRANCH  10  11
ENDBRANCH   7  10
ENDBRANCH   5   6
BRANCH   5  18
ATOM     18  C   UNL     1       1.557   4.632  19.309  0.00  0.00    +0.000 C 
ATOM     19  C   UNL     1       1.395   3.921  20.657  0.00  0.00    +0.000 C 
BRANCH  18  21
ATOM     20  C   UNL     1       1.584   2.157  18.605  0.00  0.00    +0.000 C 
ATOM     21  C   UNL     1       1.461   3.607  18.149  0.00  0.00    +0.000 C 
ENDBRANCH  18  21
ENDBRANCH   5  18
ENDBRANCH   1   5
BRANCH   3  22
ATOM     22  C   UNL     1       1.451   9.003  20.092  0.00  0.00    +0.000 C 
BRANCH  22  23
ATOM     23  C   UNL     1       0.857   9.442  21.440  0.00  0.00    +0.000 C 
ATOM     24  O   UNL     1       1.324  10.355  22.122  0.00  0.00    +0.000 OA
ATOM     25  N   UNL     1      -0.237   8.715  21.852  0.00  0.00    +0.000 N 
ATOM     26  H   UNL     1      -0.771   8.082  21.266  0.00  0.00    +0.000 HD
BRANCH  25  27
ATOM     27  O   UNL     1      -0.815   9.078  23.087  0.00  0.00    +0.000 OA
ATOM     28  H   UNL     1      -1.076   8.211  23.468  0.00  0.00    +0.000 HD
ENDBRANCH  25  27
ENDBRANCH  22  23
BRANCH  22  29
ATOM     29  C   UNL     1       0.632   9.516  18.876  0.00  0.00    +0.000 C 
BRANCH  29  30
ATOM     30  C   UNL     1       0.553  11.024  18.716  0.00  0.00    +0.000 A 
ATOM     31  C   UNL     1       1.738  11.783  18.659  0.00  0.00    +0.000 A 
ATOM     32  C   UNL     1       1.710  13.178  18.690  0.00  0.00    +0.000 A 
ATOM     33  C   UNL     1       0.495  13.846  18.732  0.00  0.00    +0.000 A 
ATOM     34  C   UNL     1      -0.691  13.118  18.659  0.00  0.00    +0.000 A 
ATOM     35  C   UNL     1      -0.665  11.719  18.626  0.00  0.00    +0.000 A 
ATOM     36 CL   UNL     1      -2.181  10.913  18.427  0.00  0.00    +0.000 Cl
ENDBRANCH  29  30
ENDBRANCH  22  29
ENDBRANCH   3  22
TORSDOF 12
ENDMDL
MODEL 7
REMARK VINA RESULT:      -7.9      4.505      7.543
REMARK  Name = 
REMARK  14 active torsions:
REMARK  status: ('A' for Active; 'I' for Inactive)
REMARK    1  A    between atoms: C_1  and  C_2
REMARK    2  A    between atoms: C_2  and  C_3
REMARK    3  A    between atoms: C_3  and  C_4
REMARK    4  A    between atoms: C_3  and  C_5
REMARK    5  A    between atoms: C_5  and  N_6
REMARK    6  A    between atoms: C_5  and  C_17
REMARK    7  A    between atoms: C_7  and  O_9
REMARK    8  A    between atoms: O_9  and  C_10
REMARK    9  A    between atoms: C_10  and  C_11
REMARK   10  A    between atoms: N_19  and  C_20
REMARK   11  A    between atoms: C_20  and  C_21
REMARK   12  A    between atoms: C_20  and  C_29
REMARK   13  A    between atoms: C_21  and  C_22
REMARK   14  A    between atoms: N_31  and  O_32
REMARK                            x       y       z     vdW  Elec       q    Type
REMARK                         _______ _______ _______ _____ _____    ______ ____
ROOT
ATOM      1  C   UNL     1       2.196   8.424  18.255  0.00  0.00    +0.000 C 
ATOM      2  O   UNL     1       2.354   8.901  17.130  0.00  0.00    +0.000 OA
ATOM      3  N   UNL     1       1.282   8.966  19.133  0.00  0.00    +0.000 N 
ATOM      4  H   UNL     1       1.265   8.669  20.104  0.00  0.00    +0.000 HD
ENDROOT
BRANCH   1   5
ATOM      5  C   UNL     1       3.005   7.175  18.720  0.00  0.00    +0.000 C 
BRANCH   5   6
ATOM      6  N   UNL     1       3.855   6.865  17.567  0.00  0.00    +0.000 N 
ATOM      7  C   UNL     1       5.104   6.331  17.609  0.00  0.00    +0.000 C 
ATOM      8  O   UNL     1       5.748   6.124  18.625  0.00  0.00    +0.000 OA
ATOM      9  H   UNL     1       3.462   7.012  16.645  0.00  0.00    +0.000 HD
BRANCH   7  10
ATOM     10  O   UNL     1       5.503   6.068  16.341  0.00  0.00    +0.000 OA
BRANCH  10  11
ATOM     11  C   UNL     1       5.198   4.770  15.818  0.00  0.00    +0.000 C 
BRANCH  11  12
ATOM     12  C   UNL     1       5.897   4.503  14.506  0.00  0.00    +0.000 A 
ATOM     13  C   UNL     1       5.355   3.613  13.565  0.00  0.00    +0.000 A 
ATOM     14  C   UNL     1       5.975   3.421  12.326  0.00  0.00    +0.000 A 
ATOM     15  C   UNL     1       7.147   4.107  12.018  0.00  0.00    +0.000 A 
ATOM     16  C   UNL     1       7.705   4.980  12.952  0.00  0.00    +0.000 A 
ATOM     17  C   UNL     1       7.087   5.173  14.190  0.00  0.00    +0.000 A 
ENDBRANCH  11  12
ENDBRANCH  10  11
ENDBRANCH   7  10
ENDBRANCH   5   6
BRANCH   5  18
ATOM     18  C   UNL     1       2.047   5.984  19.010  0.00  0.00    +0.000 C 
ATOM     19  C   UNL     1       1.907   5.726  20.514  0.00  0.00    +0.000 C 
BRANCH  18  21
ATOM     20  C   UNL     1       1.327   3.985  17.559  0.00  0.00    +0.000 C 
ATOM     21  C   UNL     1       2.474   4.683  18.282  0.00  0.00    +0.000 C 
ENDBRANCH  18  21
ENDBRANCH   5  18
ENDBRANCH   1   5
BRANCH   3  22
ATOM     22  C   UNL     1       0.580  10.219  18.804  0.00  0.00    +0.000 C 
BRANCH  22  23
ATOM     23  C   UNL     1       1.380  11.436  19.295  0.00  0.00    +0.000 C 
ATOM     24  O   UNL     1       2.158  12.071  18.581  0.00  0.00    +0.000 OA
ATOM     25  N   UNL     1       1.183  11.760  20.618  0.00  0.00    +0.000 N 
ATOM     26  H   UNL     1       0.436  11.399  21.202  0.00  0.00    +0.000 HD
BRANCH  25  27
ATOM     27  O   UNL     1       1.900  12.868  21.117  0.00  0.00    +0.000 OA
ATOM     28  H   UNL     1       1.192  13.527  21.287  0.00  0.00    +0.000 HD
ENDBRANCH  25  27
ENDBRANCH  22  23
BRANCH  22  29
ATOM     29  C   UNL     1      -0.906  10.251  19.255  0.00  0.00    +0.000 C 
BRANCH  29  30
ATOM     30  C   UNL     1      -1.932  10.428  18.150  0.00  0.00    +0.000 A 
ATOM     31  C   UNL     1      -1.827   9.664  16.971  0.00  0.00    +0.000 A 
ATOM     32  C   UNL     1      -2.639   9.918  15.865  0.00  0.00    +0.000 A 
ATOM     33  C   UNL     1      -3.607  10.911  15.929  0.00  0.00    +0.000 A 
ATOM     34  C   UNL     1      -3.814  11.590  17.128  0.00  0.00    +0.000 A 
ATOM     35  C   UNL     1      -3.001  11.336  18.239  0.00  0.00    +0.000 A 
ATOM     36 CL   UNL     1      -3.407  12.150  19.708  0.00  0.00    +0.000 Cl
ENDBRANCH  29  30
ENDBRANCH  22  29
ENDBRANCH   3  22
TORSDOF 12
ENDMDL
MODEL 8
REMARK VINA RESULT:      -7.8      1.318      2.061
REMARK  Name = 
REMARK  14 active torsions:
REMARK  status: ('A' for Active; 'I' for Inactive)
REMARK    1  A    between atoms: C_1  and  C_2
REMARK    2  A    between atoms: C_2  and  C_3
REMARK    3  A    between atoms: C_3  and  C_4
REMARK    4  A    between atoms: C_3  and  C_5
REMARK    5  A    between atoms: C_5  and  N_6
REMARK    6  A    between atoms: C_5  and  C_17
REMARK    7  A    between atoms: C_7  and  O_9
REMARK    8  A    between atoms: O_9  and  C_10
REMARK    9  A    between atoms: C_10  and  C_11
REMARK   10  A    between atoms: N_19  and  C_20
REMARK   11  A    between atoms: C_20  and  C_21
REMARK   12  A    between atoms: C_20  and  C_29
REMARK   13  A    between atoms: C_21  and  C_22
REMARK   14  A    between atoms: N_31  and  O_32
REMARK                            x       y       z     vdW  Elec       q    Type
REMARK                         _______ _______ _______ _____ _____    ______ ____
ROOT
ATOM      1  C   UNL     1       4.841   6.925  17.172  0.00  0.00    +0.000 C 
ATOM      2  O   UNL     1       4.452   7.664  16.266  0.00  0.00    +0.000 OA
ATOM      3  N   UNL     1       3.948   6.333  18.038  0.00  0.00    +0.000 N 
ATOM      4  H   UNL     1       4.281   5.852  18.869  0.00  0.00    +0.000 HD
ENDROOT
BRANCH   1   5
ATOM      5  C   UNL     1       6.357   6.610  17.357  0.00  0.00    +0.000 C 
BRANCH   5   6
ATOM      6  N   UNL     1       6.999   7.923  17.246  0.00  0.00    +0.000 N 
ATOM      7  C   UNL     1       8.088   8.347  17.939  0.00  0.00    +0.000 C 
ATOM      8  O   UNL     1       8.635   7.729  18.839  0.00  0.00    +0.000 OA
ATOM      9  H   UNL     1       6.633   8.563  16.551  0.00  0.00    +0.000 HD
BRANCH   7  10
ATOM     10  O   UNL     1       8.457   9.560  17.462  0.00  0.00    +0.000 OA
BRANCH  10  11
ATOM     11  C   UNL     1       8.456  10.652  18.388  0.00  0.00    +0.000 C 
BRANCH  11  12
ATOM     12  C   UNL     1       9.823  11.278  18.535  0.00  0.00    +0.000 A 
ATOM     13  C   UNL     1      10.438  11.937  17.458  0.00  0.00    +0.000 A 
ATOM     14  C   UNL     1      11.674  12.569  17.620  0.00  0.00    +0.000 A 
ATOM     15  C   UNL     1      12.315  12.542  18.857  0.00  0.00    +0.000 A 
ATOM     16  C   UNL     1      11.724  11.875  19.930  0.00  0.00    +0.000 A 
ATOM     17  C   UNL     1      10.488  11.243  19.769  0.00  0.00    +0.000 A 
ENDBRANCH  11  12
ENDBRANCH  10  11
ENDBRANCH   7  10
ENDBRANCH   5   6
BRANCH   5  18
ATOM     18  C   UNL     1       6.861   5.675  16.220  0.00  0.00    +0.000 C 
ATOM     19  C   UNL     1       5.786   5.456  15.150  0.00  0.00    +0.000 C 
BRANCH  18  21
ATOM     20  C   UNL     1       8.072   4.407  18.103  0.00  0.00    +0.000 C 
ATOM     21  C   UNL     1       7.372   4.311  16.752  0.00  0.00    +0.000 C 
ENDBRANCH  18  21
ENDBRANCH   5  18
ENDBRANCH   1   5
BRANCH   3  22
ATOM     22  C   UNL     1       2.518   6.688  17.998  0.00  0.00    +0.000 C 
BRANCH  22  23
ATOM     23  C   UNL     1       2.166   7.658  19.137  0.00  0.00    +0.000 C 
ATOM     24  O   UNL     1       1.855   8.837  18.954  0.00  0.00    +0.000 OA
ATOM     25  N   UNL     1       2.248   7.118  20.400  0.00  0.00    +0.000 N 
ATOM     26  H   UNL     1       2.320   6.127  20.608  0.00  0.00    +0.000 HD
BRANCH  25  27
ATOM     27  O   UNL     1       1.938   7.972  21.480  0.00  0.00    +0.000 OA
ATOM     28  H   UNL     1       2.733   7.895  22.053  0.00  0.00    +0.000 HD
ENDBRANCH  25  27
ENDBRANCH  22  23
BRANCH  22  29
ATOM     29  C   UNL     1       1.562   5.466  17.928  0.00  0.00    +0.000 C 
BRANCH  29  30
ATOM     30  C   UNL     1       2.198   4.110  18.174  0.00  0.00    +0.000 A 
ATOM     31  C   UNL     1       3.085   3.572  17.220  0.00  0.00    +0.000 A 
ATOM     32  C   UNL     1       3.552   2.261  17.320  0.00  0.00    +0.000 A 
ATOM     33  C   UNL     1       3.180   1.473  18.400  0.00  0.00    +0.000 A 
ATOM     34  C   UNL     1       2.409   2.027  19.419  0.00  0.00    +0.000 A 
ATOM     35  C   UNL     1       1.941   3.342  19.322  0.00  0.00    +0.000 A 
ATOM     36 CL   UNL     1       1.085   3.971  20.685  0.00  0.00    +0.000 Cl
ENDBRANCH  29  30
ENDBRANCH  22  29
ENDBRANCH   3  22
TORSDOF 12
ENDMDL
MODEL 9
REMARK VINA RESULT:      -7.8      3.565      6.542
REMARK  Name = 
REMARK  14 active torsions:
REMARK  status: ('A' for Active; 'I' for Inactive)
REMARK    1  A    between atoms: C_1  and  C_2
REMARK    2  A    between atoms: C_2  and  C_3
REMARK    3  A    between atoms: C_3  and  C_4
REMARK    4  A    between atoms: C_3  and  C_5
REMARK    5  A    between atoms: C_5  and  N_6
REMARK    6  A    between atoms: C_5  and  C_17
REMARK    7  A    between atoms: C_7  and  O_9
REMARK    8  A    between atoms: O_9  and  C_10
REMARK    9  A    between atoms: C_10  and  C_11
REMARK   10  A    between atoms: N_19  and  C_20
REMARK   11  A    between atoms: C_20  and  C_21
REMARK   12  A    between atoms: C_20  and  C_29
REMARK   13  A    between atoms: C_21  and  C_22
REMARK   14  A    between atoms: N_31  and  O_32
REMARK                            x       y       z     vdW  Elec       q    Type
REMARK                         _______ _______ _______ _____ _____    ______ ____
ROOT
ATOM      1  C   UNL     1       2.484   6.457  19.858  0.00  0.00    +0.000 C 
ATOM      2  O   UNL     1       2.992   7.072  18.919  0.00  0.00    +0.000 OA
ATOM      3  N   UNL     1       1.657   7.094  20.759  0.00  0.00    +0.000 N 
ATOM      4  H   UNL     1       1.367   6.622  21.610  0.00  0.00    +0.000 HD
ENDROOT
BRANCH   1   5
ATOM      5  C   UNL     1       2.735   4.931  20.049  0.00  0.00    +0.000 C 
BRANCH   5   6
ATOM      6  N   UNL     1       3.647   4.591  18.954  0.00  0.00    +0.000 N 
ATOM      7  C   UNL     1       4.607   3.629  18.975  0.00  0.00    +0.000 C 
ATOM      8  O   UNL     1       4.924   2.970  19.953  0.00  0.00    +0.000 OA
ATOM      9  H   UNL     1       3.523   5.079  18.075  0.00  0.00    +0.000 HD
BRANCH   7  10
ATOM     10  O   UNL     1       5.144   3.529  17.735  0.00  0.00    +0.000 OA
BRANCH  10  11
ATOM     11  C   UNL     1       5.227   4.732  16.962  0.00  0.00    +0.000 C 
BRANCH  11  12
ATOM     12  C   UNL     1       6.250   5.697  17.513  0.00  0.00    +0.000 A 
ATOM     13  C   UNL     1       7.162   5.297  18.504  0.00  0.00    +0.000 A 
ATOM     14  C   UNL     1       8.148   6.176  18.963  0.00  0.00    +0.000 A 
ATOM     15  C   UNL     1       8.228   7.467  18.444  0.00  0.00    +0.000 A 
ATOM     16  C   UNL     1       7.317   7.881  17.473  0.00  0.00    +0.000 A 
ATOM     17  C   UNL     1       6.331   7.004  17.014  0.00  0.00    +0.000 A 
ENDBRANCH  11  12
ENDBRANCH  10  11
ENDBRANCH   7  10
ENDBRANCH   5   6
BRANCH   5  18
ATOM     18  C   UNL     1       1.405   4.137  19.899  0.00  0.00    +0.000 C 
ATOM     19  C   UNL     1       1.189   3.171  21.068  0.00  0.00    +0.000 C 
BRANCH  18  21
ATOM     20  C   UNL     1       1.197   4.293  17.339  0.00  0.00    +0.000 C 
ATOM     21  C   UNL     1       1.312   3.375  18.551  0.00  0.00    +0.000 C 
ENDBRANCH  18  21
ENDBRANCH   5  18
ENDBRANCH   1   5
BRANCH   3  22
ATOM     22  C   UNL     1       1.482   8.556  20.710  0.00  0.00    +0.000 C 
BRANCH  22  23
ATOM     23  C   UNL     1       0.976   9.089  22.060  0.00  0.00    +0.000 C 
ATOM     24  O   UNL     1       1.719   9.546  22.931  0.00  0.00    +0.000 OA
ATOM     25  N   UNL     1      -0.385   8.996  22.244  0.00  0.00    +0.000 N 
ATOM     26  H   UNL     1      -1.060   8.801  21.512  0.00  0.00    +0.000 HD
BRANCH  25  27
ATOM     27  O   UNL     1      -0.896   9.469  23.472  0.00  0.00    +0.000 OA
ATOM     28  H   UNL     1      -1.085   8.639  23.962  0.00  0.00    +0.000 HD
ENDBRANCH  25  27
ENDBRANCH  22  23
BRANCH  22  29
ATOM     29  C   UNL     1       0.632   9.053  19.508  0.00  0.00    +0.000 C 
BRANCH  29  30
ATOM     30  C   UNL     1       0.940  10.454  19.011  0.00  0.00    +0.000 A 
ATOM     31  C   UNL     1       2.105  10.685  18.253  0.00  0.00    +0.000 A 
ATOM     32  C   UNL     1       2.516  11.978  17.927  0.00  0.00    +0.000 A 
ATOM     33  C   UNL     1       1.747  13.068  18.313  0.00  0.00    +0.000 A 
ATOM     34  C   UNL     1       0.527  12.854  18.950  0.00  0.00    +0.000 A 
ATOM     35  C   UNL     1       0.112  11.558  19.276  0.00  0.00    +0.000 A 
ATOM     36 CL   UNL     1      -1.463  11.391  19.967  0.00  0.00    +0.000 Cl
ENDBRANCH  29  30
ENDBRANCH  22  29
ENDBRANCH   3  22
TORSDOF 12
ENDMDL
