MODEL 1
REMARK VINA RESULT:      -6.2      0.000      0.000
REMARK  Name = 
REMARK  11 active torsions:
REMARK  status: ('A' for Active; 'I' for Inactive)
REMARK    1  A    between atoms: C_2  and  C_3
REMARK    2  A    between atoms: C_3  and  O_4
REMARK    3  A    between atoms: O_4  and  C_5
REMARK    4  A    between atoms: C_5  and  C_6
REMARK    5  A    between atoms: C_5  and  N_7
REMARK    6  A    between atoms: C_8  and  C_9
REMARK    7  A    between atoms: N_13  and  C_14
REMARK    8  A    between atoms: C_14  and  C_15
REMARK    9  A    between atoms: C_14  and  O_16
REMARK   10  A    between atoms: O_16  and  C_17
REMARK   11  A    between atoms: C_17  and  C_18
REMARK                            x       y       z     vdW  Elec       q    Type
REMARK                         _______ _______ _______ _____ _____    ______ ____
ROOT
ATOM      1  N   UNL     1       3.089   5.741  18.445  0.00  0.00    +0.000 N 
ATOM      2  C   UNL     1       3.069   7.041  17.937  0.00  0.00    +0.000 A 
ATOM      3  C   UNL     1       2.127   8.105  18.441  0.00  0.00    +0.000 C 
ATOM      4  C   UNL     1       3.971   7.420  17.026  0.00  0.00    +0.000 A 
ATOM      5  C   UNL     1       4.962   6.475  16.516  0.00  0.00    +0.000 A 
ATOM      6  O   UNL     1       5.754   6.871  15.664  0.00  0.00    +0.000 OA
ATOM      7  N   UNL     1       4.957   5.214  17.070  0.00  0.00    +0.000 N 
ATOM      8  C   UNL     1       4.184   4.884  18.188  0.00  0.00    +0.000 A 
ATOM      9  O   UNL     1       4.451   3.925  18.913  0.00  0.00    +0.000 OA
ENDROOT
BRANCH   1  10
ATOM     10  C   UNL     1       2.115   5.313  19.472  0.00  0.00    +0.000 C 
ATOM     11  C   UNL     1       2.832   4.818  20.729  0.00  0.00    +0.000 C 
BRANCH  10  12
ATOM     12  O   UNL     1       1.204   4.353  18.917  0.00  0.00    +0.000 OA
BRANCH  12  13
ATOM     13  C   UNL     1       1.057   3.182  19.715  0.00  0.00    +0.000 C 
BRANCH  13  15
ATOM     14  C   UNL     1       2.452   1.561  18.394  0.00  0.00    +0.000 C 
ATOM     15  C   UNL     1       1.264   1.982  18.849  0.00  0.00    +0.000 C 
ENDBRANCH  13  15
ENDBRANCH  12  13
ENDBRANCH  10  12
ENDBRANCH   1  10
BRANCH   7  16
ATOM     16  C   UNL     1       6.036   4.336  16.639  0.00  0.00    +0.000 C 
ATOM     17  C   UNL     1       5.905   3.946  15.167  0.00  0.00    +0.000 C 
BRANCH  16  18
ATOM     18  O   UNL     1       7.330   4.910  16.843  0.00  0.00    +0.000 OA
BRANCH  18  19
ATOM     19  C   UNL     1       7.865   4.641  18.132  0.00  0.00    +0.000 C 
BRANCH  19  20
ATOM     20  C   UNL     1       7.873   5.933  18.883  0.00  0.00    +0.000 C 
ATOM     21  C   UNL     1       7.966   7.145  18.320  0.00  0.00    +0.000 C 
ENDBRANCH  19  20
ENDBRANCH  18  19
ENDBRANCH  16  18
ENDBRANCH   7  16
TORSDOF 8
ENDMDL
MODEL 2
REMARK VINA RESULT:      -6.1      1.196      1.599
REMARK  Name = 
REMARK  11 active torsions:
REMARK  status: ('A' for Active; 'I' for Inactive)
REMARK    1  A    between atoms: C_2  and  C_3
REMARK    2  A    between atoms: C_3  and  O_4
REMARK    3  A    between atoms: O_4  and  C_5
REMARK    4  A    between atoms: C_5  and  C_6
REMARK    5  A    between atoms: C_5  and  N_7
REMARK    6  A    between atoms: C_8  and  C_9
REMARK    7  A    between atoms: N_13  and  C_14
REMARK    8  A    between atoms: C_14  and  C_15
REMARK    9  A    between atoms: C_14  and  O_16
REMARK   10  A    between atoms: O_16  and  C_17
REMARK   11  A    between atoms: C_17  and  C_18
REMARK                            x       y       z     vdW  Elec       q    Type
REMARK                         _______ _______ _______ _____ _____    ______ ____
ROOT
ATOM      1  N   UNL     1       3.225   5.146  17.858  0.00  0.00    +0.000 N 
ATOM      2  C   UNL     1       3.269   6.539  17.768  0.00  0.00    +0.000 A 
ATOM      3  C   UNL     1       2.308   7.438  18.505  0.00  0.00    +0.000 C 
ATOM      4  C   UNL     1       4.245   7.137  17.080  0.00  0.00    +0.000 A 
ATOM      5  C   UNL     1       5.256   6.350  16.378  0.00  0.00    +0.000 A 
ATOM      6  O   UNL     1       6.120   6.952  15.743  0.00  0.00    +0.000 OA
ATOM      7  N   UNL     1       5.185   4.982  16.522  0.00  0.00    +0.000 N 
ATOM      8  C   UNL     1       4.322   4.362  17.430  0.00  0.00    +0.000 A 
ATOM      9  O   UNL     1       4.514   3.220  17.847  0.00  0.00    +0.000 OA
ENDROOT
BRANCH   1  10
ATOM     10  C   UNL     1       2.166   4.469  18.636  0.00  0.00    +0.000 C 
ATOM     11  C   UNL     1       0.993   4.083  17.734  0.00  0.00    +0.000 C 
BRANCH  10  12
ATOM     12  O   UNL     1       1.784   5.277  19.757  0.00  0.00    +0.000 OA
BRANCH  12  13
ATOM     13  C   UNL     1       2.098   4.689  21.016  0.00  0.00    +0.000 C 
BRANCH  13  15
ATOM     14  C   UNL     1       1.743   2.377  21.937  0.00  0.00    +0.000 C 
ATOM     15  C   UNL     1       1.383   3.381  21.126  0.00  0.00    +0.000 C 
ENDBRANCH  13  15
ENDBRANCH  12  13
ENDBRANCH  10  12
ENDBRANCH   1  10
BRANCH   7  16
ATOM     16  C   UNL     1       6.279   4.232  15.920  0.00  0.00    +0.000 C 
ATOM     17  C   UNL     1       6.211   4.242  14.393  0.00  0.00    +0.000 C 
BRANCH  16  18
ATOM     18  O   UNL     1       7.565   4.713  16.320  0.00  0.00    +0.000 OA
BRANCH  18  19
ATOM     19  C   UNL     1       7.910   4.352  17.651  0.00  0.00    +0.000 C 
BRANCH  19  20
ATOM     20  C   UNL     1       7.876   5.601  18.469  0.00  0.00    +0.000 C 
ATOM     21  C   UNL     1       7.355   5.697  19.699  0.00  0.00    +0.000 C 
ENDBRANCH  19  20
ENDBRANCH  18  19
ENDBRANCH  16  18
ENDBRANCH   7  16
TORSDOF 8
ENDMDL
MODEL 3
REMARK VINA RESULT:      -6.1      1.441      2.817
REMARK  Name = 
REMARK  11 active torsions:
REMARK  status: ('A' for Active; 'I' for Inactive)
REMARK    1  A    between atoms: C_2  and  C_3
REMARK    2  A    between atoms: C_3  and  O_4
REMARK    3  A    between atoms: O_4  and  C_5
REMARK    4  A    between atoms: C_5  and  C_6
REMARK    5  A    between atoms: C_5  and  N_7
REMARK    6  A    between atoms: C_8  and  C_9
REMARK    7  A    between atoms: N_13  and  C_14
REMARK    8  A    between atoms: C_14  and  C_15
REMARK    9  A    between atoms: C_14  and  O_16
REMARK   10  A    between atoms: O_16  and  C_17
REMARK   11  A    between atoms: C_17  and  C_18
REMARK                            x       y       z     vdW  Elec       q    Type
REMARK                         _______ _______ _______ _____ _____    ______ ____
ROOT
ATOM      1  N   UNL     1       3.490   5.483  18.082  0.00  0.00    +0.000 N 
ATOM      2  C   UNL     1       3.358   6.872  18.031  0.00  0.00    +0.000 A 
ATOM      3  C   UNL     1       2.166   7.604  18.593  0.00  0.00    +0.000 C 
ATOM      4  C   UNL     1       4.353   7.623  17.548  0.00  0.00    +0.000 A 
ATOM      5  C   UNL     1       5.572   7.007  17.031  0.00  0.00    +0.000 A 
ATOM      6  O   UNL     1       6.446   7.744  16.581  0.00  0.00    +0.000 OA
ATOM      7  N   UNL     1       5.664   5.637  17.131  0.00  0.00    +0.000 N 
ATOM      8  C   UNL     1       4.742   4.869  17.850  0.00  0.00    +0.000 A 
ATOM      9  O   UNL     1       5.010   3.743  18.272  0.00  0.00    +0.000 OA
ENDROOT
BRANCH   1  10
ATOM     10  C   UNL     1       2.409   4.638  18.635  0.00  0.00    +0.000 C 
ATOM     11  C   UNL     1       1.404   4.261  17.545  0.00  0.00    +0.000 C 
BRANCH  10  12
ATOM     12  O   UNL     1       1.810   5.283  19.768  0.00  0.00    +0.000 OA
BRANCH  12  13
ATOM     13  C   UNL     1       2.176   4.698  21.014  0.00  0.00    +0.000 C 
BRANCH  13  15
ATOM     14  C   UNL     1       1.939   2.281  21.661  0.00  0.00    +0.000 C 
ATOM     15  C   UNL     1       1.420   3.421  21.185  0.00  0.00    +0.000 C 
ENDBRANCH  13  15
ENDBRANCH  12  13
ENDBRANCH  10  12
ENDBRANCH   1  10
BRANCH   7  16
ATOM     16  C   UNL     1       6.941   5.064  16.729  0.00  0.00    +0.000 C 
ATOM     17  C   UNL     1       7.726   4.515  17.921  0.00  0.00    +0.000 C 
BRANCH  16  18
ATOM     18  O   UNL     1       6.798   4.020  15.761  0.00  0.00    +0.000 OA
BRANCH  18  19
ATOM     19  C   UNL     1       6.807   4.494  14.421  0.00  0.00    +0.000 C 
BRANCH  19  20
ATOM     20  C   UNL     1       6.108   3.469  13.588  0.00  0.00    +0.000 C 
ATOM     21  C   UNL     1       5.919   3.558  12.265  0.00  0.00    +0.000 C 
ENDBRANCH  19  20
ENDBRANCH  18  19
ENDBRANCH  16  18
ENDBRANCH   7  16
TORSDOF 8
ENDMDL
MODEL 4
REMARK VINA RESULT:      -6.0      2.205      3.838
REMARK  Name = 
REMARK  11 active torsions:
REMARK  status: ('A' for Active; 'I' for Inactive)
REMARK    1  A    between atoms: C_2  and  C_3
REMARK    2  A    between atoms: C_3  and  O_4
REMARK    3  A    between atoms: O_4  and  C_5
REMARK    4  A    between atoms: C_5  and  C_6
REMARK    5  A    between atoms: C_5  and  N_7
REMARK    6  A    between atoms: C_8  and  C_9
REMARK    7  A    between atoms: N_13  and  C_14
REMARK    8  A    between atoms: C_14  and  C_15
REMARK    9  A    between atoms: C_14  and  O_16
REMARK   10  A    between atoms: O_16  and  C_17
REMARK   11  A    between atoms: C_17  and  C_18
REMARK                            x       y       z     vdW  Elec       q    Type
REMARK                         _______ _______ _______ _____ _____    ______ ____
ROOT
ATOM      1  N   UNL     1       4.108   4.212  17.504  0.00  0.00    +0.000 N 
ATOM      2  C   UNL     1       3.840   5.511  17.941  0.00  0.00    +0.000 A 
ATOM      3  C   UNL     1       3.217   5.814  19.280  0.00  0.00    +0.000 C 
ATOM      4  C   UNL     1       4.221   6.558  17.205  0.00  0.00    +0.000 A 
ATOM      5  C   UNL     1       4.884   6.366  15.916  0.00  0.00    +0.000 A 
ATOM      6  O   UNL     1       5.194   7.365  15.271  0.00  0.00    +0.000 OA
ATOM      7  N   UNL     1       5.150   5.067  15.545  0.00  0.00    +0.000 N 
ATOM      8  C   UNL     1       4.977   3.984  16.413  0.00  0.00    +0.000 A 
ATOM      9  O   UNL     1       5.558   2.911  16.250  0.00  0.00    +0.000 OA
ENDROOT
BRANCH   1  10
ATOM     10  C   UNL     1       3.715   3.042  18.319  0.00  0.00    +0.000 C 
ATOM     11  C   UNL     1       2.303   2.578  17.956  0.00  0.00    +0.000 C 
BRANCH  10  12
ATOM     12  O   UNL     1       3.882   3.333  19.713  0.00  0.00    +0.000 OA
BRANCH  12  13
ATOM     13  C   UNL     1       3.504   2.257  20.568  0.00  0.00    +0.000 C 
BRANCH  13  15
ATOM     14  C   UNL     1       1.206   2.911  21.347  0.00  0.00    +0.000 C 
ATOM     15  C   UNL     1       2.519   2.764  21.570  0.00  0.00    +0.000 C 
ENDBRANCH  13  15
ENDBRANCH  12  13
ENDBRANCH  10  12
ENDBRANCH   1  10
BRANCH   7  16
ATOM     16  C   UNL     1       5.925   4.912  14.322  0.00  0.00    +0.000 C 
ATOM     17  C   UNL     1       7.416   4.728  14.607  0.00  0.00    +0.000 C 
BRANCH  16  18
ATOM     18  O   UNL     1       5.478   3.815  13.520  0.00  0.00    +0.000 OA
BRANCH  18  19
ATOM     19  C   UNL     1       6.322   3.553  12.408  0.00  0.00    +0.000 C 
BRANCH  19  20
ATOM     20  C   UNL     1       5.781   2.342  11.720  0.00  0.00    +0.000 C 
ATOM     21  C   UNL     1       6.523   1.433  11.074  0.00  0.00    +0.000 C 
ENDBRANCH  19  20
ENDBRANCH  18  19
ENDBRANCH  16  18
ENDBRANCH   7  16
TORSDOF 8
ENDMDL
MODEL 5
REMARK VINA RESULT:      -5.9      1.792      3.179
REMARK  Name = 
REMARK  11 active torsions:
REMARK  status: ('A' for Active; 'I' for Inactive)
REMARK    1  A    between atoms: C_2  and  C_3
REMARK    2  A    between atoms: C_3  and  O_4
REMARK    3  A    between atoms: O_4  and  C_5
REMARK    4  A    between atoms: C_5  and  C_6
REMARK    5  A    between atoms: C_5  and  N_7
REMARK    6  A    between atoms: C_8  and  C_9
REMARK    7  A    between atoms: N_13  and  C_14
REMARK    8  A    between atoms: C_14  and  C_15
REMARK    9  A    between atoms: C_14  and  O_16
REMARK   10  A    between atoms: O_16  and  C_17
REMARK   11  A    between atoms: C_17  and  C_18
REMARK                            x       y       z     vdW  Elec       q    Type
REMARK                         _______ _______ _______ _____ _____    ______ ____
ROOT
ATOM      1  N   UNL     1       3.422   4.715  17.478  0.00  0.00    +0.000 N 
ATOM      2  C   UNL     1       3.309   6.011  17.985  0.00  0.00    +0.000 A 
ATOM      3  C   UNL     1       2.168   6.451  18.867  0.00  0.00    +0.000 C 
ATOM      4  C   UNL     1       4.283   6.902  17.773  0.00  0.00    +0.000 A 
ATOM      5  C   UNL     1       5.457   6.551  16.977  0.00  0.00    +0.000 A 
ATOM      6  O   UNL     1       6.313   7.415  16.797  0.00  0.00    +0.000 OA
ATOM      7  N   UNL     1       5.533   5.253  16.525  0.00  0.00    +0.000 N 
ATOM      8  C   UNL     1       4.647   4.255  16.943  0.00  0.00    +0.000 A 
ATOM      9  O   UNL     1       4.923   3.057  16.870  0.00  0.00    +0.000 OA
ENDROOT
BRANCH   1  10
ATOM     10  C   UNL     1       2.365   3.711  17.724  0.00  0.00    +0.000 C 
ATOM     11  C   UNL     1       0.985   4.285  17.400  0.00  0.00    +0.000 C 
BRANCH  10  12
ATOM     12  O   UNL     1       2.473   3.198  19.059  0.00  0.00    +0.000 OA
BRANCH  12  13
ATOM     13  C   UNL     1       1.242   2.703  19.579  0.00  0.00    +0.000 C 
BRANCH  13  15
ATOM     14  C   UNL     1       2.159   3.152  21.876  0.00  0.00    +0.000 C 
ATOM     15  C   UNL     1       1.133   3.104  21.015  0.00  0.00    +0.000 C 
ENDBRANCH  13  15
ENDBRANCH  12  13
ENDBRANCH  10  12
ENDBRANCH   1  10
BRANCH   7  16
ATOM     16  C   UNL     1       6.772   4.898  15.848  0.00  0.00    +0.000 C 
ATOM     17  C   UNL     1       7.854   4.446  16.829  0.00  0.00    +0.000 C 
BRANCH  16  18
ATOM     18  O   UNL     1       6.591   3.872  14.868  0.00  0.00    +0.000 OA
BRANCH  18  19
ATOM     19  C   UNL     1       6.671   4.352  13.532  0.00  0.00    +0.000 C 
BRANCH  19  20
ATOM     20  C   UNL     1       5.562   3.707  12.766  0.00  0.00    +0.000 C 
ATOM     21  C   UNL     1       5.722   2.727  11.867  0.00  0.00    +0.000 C 
ENDBRANCH  19  20
ENDBRANCH  18  19
ENDBRANCH  16  18
ENDBRANCH   7  16
TORSDOF 8
ENDMDL
MODEL 6
REMARK VINA RESULT:      -5.9      1.892      6.143
REMARK  Name = 
REMARK  11 active torsions:
REMARK  status: ('A' for Active; 'I' for Inactive)
REMARK    1  A    between atoms: C_2  and  C_3
REMARK    2  A    between atoms: C_3  and  O_4
REMARK    3  A    between atoms: O_4  and  C_5
REMARK    4  A    between atoms: C_5  and  C_6
REMARK    5  A    between atoms: C_5  and  N_7
REMARK    6  A    between atoms: C_8  and  C_9
REMARK    7  A    between atoms: N_13  and  C_14
REMARK    8  A    between atoms: C_14  and  C_15
REMARK    9  A    between atoms: C_14  and  O_16
REMARK   10  A    between atoms: O_16  and  C_17
REMARK   11  A    between atoms: C_17  and  C_18
REMARK                            x       y       z     vdW  Elec       q    Type
REMARK                         _______ _______ _______ _____ _____    ______ ____
ROOT
ATOM      1  N   UNL     1       5.369   5.173  17.431  0.00  0.00    +0.000 N 
ATOM      2  C   UNL     1       5.009   4.246  16.451  0.00  0.00    +0.000 A 
ATOM      3  C   UNL     1       5.974   3.735  15.411  0.00  0.00    +0.000 C 
ATOM      4  C   UNL     1       3.789   3.700  16.460  0.00  0.00    +0.000 A 
ATOM      5  C   UNL     1       2.802   4.090  17.463  0.00  0.00    +0.000 A 
ATOM      6  O   UNL     1       1.689   3.571  17.412  0.00  0.00    +0.000 OA
ATOM      7  N   UNL     1       3.216   4.985  18.423  0.00  0.00    +0.000 N 
ATOM      8  C   UNL     1       4.552   5.374  18.567  0.00  0.00    +0.000 A 
ATOM      9  O   UNL     1       4.993   5.839  19.619  0.00  0.00    +0.000 OA
ENDROOT
BRANCH   1  10
ATOM     10  C   UNL     1       6.722   5.769  17.450  0.00  0.00    +0.000 C 
ATOM     11  C   UNL     1       7.650   4.979  18.375  0.00  0.00    +0.000 C 
BRANCH  10  12
ATOM     12  O   UNL     1       6.642   7.164  17.775  0.00  0.00    +0.000 OA
BRANCH  12  13
ATOM     13  C   UNL     1       7.717   7.934  17.245  0.00  0.00    +0.000 C 
BRANCH  13  15
ATOM     14  C   UNL     1       8.757   9.946  18.336  0.00  0.00    +0.000 C 
ATOM     15  C   UNL     1       8.387   8.658  18.368  0.00  0.00    +0.000 C 
ENDBRANCH  13  15
ENDBRANCH  12  13
ENDBRANCH  10  12
ENDBRANCH   1  10
BRANCH   7  16
ATOM     16  C   UNL     1       2.255   5.256  19.484  0.00  0.00    +0.000 C 
ATOM     17  C   UNL     1       2.513   4.400  20.724  0.00  0.00    +0.000 C 
BRANCH  16  18
ATOM     18  O   UNL     1       2.239   6.631  19.877  0.00  0.00    +0.000 OA
BRANCH  18  19
ATOM     19  C   UNL     1       1.439   6.875  21.027  0.00  0.00    +0.000 C 
BRANCH  19  20
ATOM     20  C   UNL     1       1.084   8.326  21.014  0.00  0.00    +0.000 C 
ATOM     21  C   UNL     1       0.080   8.874  21.712  0.00  0.00    +0.000 C 
ENDBRANCH  19  20
ENDBRANCH  18  19
ENDBRANCH  16  18
ENDBRANCH   7  16
TORSDOF 8
ENDMDL
MODEL 7
REMARK VINA RESULT:      -5.9      1.881      6.042
REMARK  Name = 
REMARK  11 active torsions:
REMARK  status: ('A' for Active; 'I' for Inactive)
REMARK    1  A    between atoms: C_2  and  C_3
REMARK    2  A    between atoms: C_3  and  O_4
REMARK    3  A    between atoms: O_4  and  C_5
REMARK    4  A    between atoms: C_5  and  C_6
REMARK    5  A    between atoms: C_5  and  N_7
REMARK    6  A    between atoms: C_8  and  C_9
REMARK    7  A    between atoms: N_13  and  C_14
REMARK    8  A    between atoms: C_14  and  C_15
REMARK    9  A    between atoms: C_14  and  O_16
REMARK   10  A    between atoms: O_16  and  C_17
REMARK   11  A    between atoms: C_17  and  C_18
REMARK                            x       y       z     vdW  Elec       q    Type
REMARK                         _______ _______ _______ _____ _____    ______ ____
ROOT
ATOM      1  N   UNL     1       6.355   5.224  17.420  0.00  0.00    +0.000 N 
ATOM      2  C   UNL     1       6.003   4.656  16.194  0.00  0.00    +0.000 A 
ATOM      3  C   UNL     1       6.965   4.534  15.040  0.00  0.00    +0.000 C 
ATOM      4  C   UNL     1       4.796   4.106  16.032  0.00  0.00    +0.000 A 
ATOM      5  C   UNL     1       3.813   4.125  17.113  0.00  0.00    +0.000 A 
ATOM      6  O   UNL     1       2.712   3.623  16.902  0.00  0.00    +0.000 OA
ATOM      7  N   UNL     1       4.220   4.672  18.309  0.00  0.00    +0.000 N 
ATOM      8  C   UNL     1       5.549   5.026  18.564  0.00  0.00    +0.000 A 
ATOM      9  O   UNL     1       5.993   5.137  19.708  0.00  0.00    +0.000 OA
ENDROOT
BRANCH   1  10
ATOM     10  C   UNL     1       7.695   5.816  17.625  0.00  0.00    +0.000 C 
ATOM     11  C   UNL     1       8.044   5.866  19.113  0.00  0.00    +0.000 C 
BRANCH  10  12
ATOM     12  O   UNL     1       7.776   7.092  16.974  0.00  0.00    +0.000 OA
BRANCH  12  13
ATOM     13  C   UNL     1       7.287   8.167  17.770  0.00  0.00    +0.000 C 
BRANCH  13  15
ATOM     14  C   UNL     1       8.922   9.712  18.894  0.00  0.00    +0.000 C 
ATOM     15  C   UNL     1       8.314   9.253  17.791  0.00  0.00    +0.000 C 
ENDBRANCH  13  15
ENDBRANCH  12  13
ENDBRANCH  10  12
ENDBRANCH   1  10
BRANCH   7  16
ATOM     16  C   UNL     1       3.267   4.560  19.405  0.00  0.00    +0.000 C 
ATOM     17  C   UNL     1       2.237   5.689  19.387  0.00  0.00    +0.000 C 
BRANCH  16  18
ATOM     18  O   UNL     1       2.571   3.310  19.407  0.00  0.00    +0.000 OA
BRANCH  18  19
ATOM     19  C   UNL     1       3.124   2.362  20.310  0.00  0.00    +0.000 C 
BRANCH  19  20
ATOM     20  C   UNL     1       2.535   2.641  21.655  0.00  0.00    +0.000 C 
ATOM     21  C   UNL     1       1.225   2.626  21.935  0.00  0.00    +0.000 C 
ENDBRANCH  19  20
ENDBRANCH  18  19
ENDBRANCH  16  18
ENDBRANCH   7  16
TORSDOF 8
ENDMDL
MODEL 8
REMARK VINA RESULT:      -5.9      1.909      5.512
REMARK  Name = 
REMARK  11 active torsions:
REMARK  status: ('A' for Active; 'I' for Inactive)
REMARK    1  A    between atoms: C_2  and  C_3
REMARK    2  A    between atoms: C_3  and  O_4
REMARK    3  A    between atoms: O_4  and  C_5
REMARK    4  A    between atoms: C_5  and  C_6
REMARK    5  A    between atoms: C_5  and  N_7
REMARK    6  A    between atoms: C_8  and  C_9
REMARK    7  A    between atoms: N_13  and  C_14
REMARK    8  A    between atoms: C_14  and  C_15
REMARK    9  A    between atoms: C_14  and  O_16
REMARK   10  A    between atoms: O_16  and  C_17
REMARK   11  A    between atoms: C_17  and  C_18
REMARK                            x       y       z     vdW  Elec       q    Type
REMARK                         _______ _______ _______ _____ _____    ______ ____
ROOT
ATOM      1  N   UNL     1       5.500   4.951  16.889  0.00  0.00    +0.000 N 
ATOM      2  C   UNL     1       6.271   5.337  17.987  0.00  0.00    +0.000 A 
ATOM      3  C   UNL     1       7.270   6.464  17.932  0.00  0.00    +0.000 C 
ATOM      4  C   UNL     1       6.076   4.763  19.178  0.00  0.00    +0.000 A 
ATOM      5  C   UNL     1       5.089   3.698  19.343  0.00  0.00    +0.000 A 
ATOM      6  O   UNL     1       4.966   3.191  20.456  0.00  0.00    +0.000 OA
ATOM      7  N   UNL     1       4.336   3.375  18.237  0.00  0.00    +0.000 N 
ATOM      8  C   UNL     1       4.361   4.130  17.060  0.00  0.00    +0.000 A 
ATOM      9  O   UNL     1       3.444   4.100  16.239  0.00  0.00    +0.000 OA
ENDROOT
BRANCH   1  10
ATOM     10  C   UNL     1       5.685   5.593  15.569  0.00  0.00    +0.000 C 
ATOM     11  C   UNL     1       4.875   6.887  15.477  0.00  0.00    +0.000 C 
BRANCH  10  12
ATOM     12  O   UNL     1       5.393   4.658  14.521  0.00  0.00    +0.000 OA
BRANCH  12  13
ATOM     13  C   UNL     1       6.542   3.966  14.040  0.00  0.00    +0.000 C 
BRANCH  13  15
ATOM     14  C   UNL     1       5.269   3.166  12.025  0.00  0.00    +0.000 C 
ATOM     15  C   UNL     1       6.365   3.701  12.579  0.00  0.00    +0.000 C 
ENDBRANCH  13  15
ENDBRANCH  12  13
ENDBRANCH  10  12
ENDBRANCH   1  10
BRANCH   7  16
ATOM     16  C   UNL     1       3.274   2.405  18.464  0.00  0.00    +0.000 C 
ATOM     17  C   UNL     1       3.801   0.970  18.485  0.00  0.00    +0.000 C 
BRANCH  16  18
ATOM     18  O   UNL     1       2.558   2.644  19.679  0.00  0.00    +0.000 OA
BRANCH  18  19
ATOM     19  C   UNL     1       1.250   3.156  19.467  0.00  0.00    +0.000 C 
BRANCH  19  20
ATOM     20  C   UNL     1       1.065   4.295  20.416  0.00  0.00    +0.000 C 
ATOM     21  C   UNL     1       1.976   5.248  20.655  0.00  0.00    +0.000 C 
ENDBRANCH  19  20
ENDBRANCH  18  19
ENDBRANCH  16  18
ENDBRANCH   7  16
TORSDOF 8
ENDMDL
MODEL 9
REMARK VINA RESULT:      -5.8      1.669      5.916
REMARK  Name = 
REMARK  11 active torsions:
REMARK  status: ('A' for Active; 'I' for Inactive)
REMARK    1  A    between atoms: C_2  and  C_3
REMARK    2  A    between atoms: C_3  and  O_4
REMARK    3  A    between atoms: O_4  and  C_5
REMARK    4  A    between atoms: C_5  and  C_6
REMARK    5  A    between atoms: C_5  and  N_7
REMARK    6  A    between atoms: C_8  and  C_9
REMARK    7  A    between atoms: N_13  and  C_14
REMARK    8  A    between atoms: C_14  and  C_15
REMARK    9  A    between atoms: C_14  and  O_16
REMARK   10  A    between atoms: O_16  and  C_17
REMARK   11  A    between atoms: C_17  and  C_18
REMARK                            x       y       z     vdW  Elec       q    Type
REMARK                         _______ _______ _______ _____ _____    ______ ____
ROOT
ATOM      1  N   UNL     1       5.574   5.081  17.233  0.00  0.00    +0.000 N 
ATOM      2  C   UNL     1       5.211   4.124  16.282  0.00  0.00    +0.000 A 
ATOM      3  C   UNL     1       6.185   3.548  15.286  0.00  0.00    +0.000 C 
ATOM      4  C   UNL     1       3.978   3.610  16.285  0.00  0.00    +0.000 A 
ATOM      5  C   UNL     1       2.979   4.065  17.249  0.00  0.00    +0.000 A 
ATOM      6  O   UNL     1       1.855   3.572  17.193  0.00  0.00    +0.000 OA
ATOM      7  N   UNL     1       3.396   4.987  18.182  0.00  0.00    +0.000 N 
ATOM      8  C   UNL     1       4.737   5.348  18.341  0.00  0.00    +0.000 A 
ATOM      9  O   UNL     1       5.167   5.844  19.383  0.00  0.00    +0.000 OA
ENDROOT
BRANCH   1  10
ATOM     10  C   UNL     1       6.941   5.643  17.259  0.00  0.00    +0.000 C 
ATOM     11  C   UNL     1       7.798   4.937  18.312  0.00  0.00    +0.000 C 
BRANCH  10  12
ATOM     12  O   UNL     1       6.886   7.066  17.427  0.00  0.00    +0.000 OA
BRANCH  12  13
ATOM     13  C   UNL     1       8.006   7.601  18.126  0.00  0.00    +0.000 C 
BRANCH  13  15
ATOM     14  C   UNL     1       8.877   9.925  18.526  0.00  0.00    +0.000 C 
ATOM     15  C   UNL     1       8.064   9.075  17.884  0.00  0.00    +0.000 C 
ENDBRANCH  13  15
ENDBRANCH  12  13
ENDBRANCH  10  12
ENDBRANCH   1  10
BRANCH   7  16
ATOM     16  C   UNL     1       2.419   5.324  19.209  0.00  0.00    +0.000 C 
ATOM     17  C   UNL     1       2.777   4.714  20.564  0.00  0.00    +0.000 C 
BRANCH  16  18
ATOM     18  O   UNL     1       2.257   6.736  19.375  0.00  0.00    +0.000 OA
BRANCH  18  19
ATOM     19  C   UNL     1       1.778   7.386  18.206  0.00  0.00    +0.000 C 
BRANCH  19  20
ATOM     20  C   UNL     1       2.496   8.692  18.104  0.00  0.00    +0.000 C 
ATOM     21  C   UNL     1       1.901   9.884  17.962  0.00  0.00    +0.000 C 
ENDBRANCH  19  20
ENDBRANCH  18  19
ENDBRANCH  16  18
ENDBRANCH   7  16
TORSDOF 8
ENDMDL
