MODEL 1
REMARK VINA RESULT:      -6.9      0.000      0.000
REMARK  Name = 
REMARK  5 active torsions:
REMARK  status: ('A' for Active; 'I' for Inactive)
REMARK    1  A    between atoms: C_1  and  O_2
REMARK    2  A    between atoms: O_2  and  C_3
REMARK    3  A    between atoms: N_13  and  C_14
REMARK    4  A    between atoms: C_17  and  C_18
REMARK    5  A    between atoms: C_17  and  C_19
REMARK                            x       y       z     vdW  Elec       q    Type
REMARK                         _______ _______ _______ _____ _____    ______ ____
ROOT
ATOM      1  C   UNL     1       6.149   3.970  14.217  0.00  0.00    +0.000 A 
ATOM      2  C   UNL     1       7.270   4.599  14.761  0.00  0.00    +0.000 A 
ATOM      3  C   UNL     1       7.289   4.943  16.105  0.00  0.00    +0.000 A 
ATOM      4  C   UNL     1       6.157   4.689  16.886  0.00  0.00    +0.000 A 
ATOM      5  C   UNL     1       5.090   3.905  16.440  0.00  0.00    +0.000 A 
ATOM      6  C   UNL     1       5.078   3.588  15.061  0.00  0.00    +0.000 A 
ATOM      7  C   UNL     1       3.866   3.880  17.309  0.00  0.00    +0.000 A 
ATOM      8  C   UNL     1       3.507   5.140  17.617  0.00  0.00    +0.000 A 
ATOM      9  C   UNL     1       4.650   5.771  18.418  0.00  0.00    +0.000 A 
ATOM     10  O   UNL     1       4.402   6.596  19.324  0.00  0.00    +0.000 OA
ATOM     11  N   UNL     1       5.954   5.423  18.067  0.00  0.00    +0.000 N 
ATOM     12  C   UNL     1       7.085   5.914  18.829  0.00  0.00    +0.000 C 
ATOM     13  C   UNL     1       2.144   5.289  18.088  0.00  0.00    +0.000 C 
ATOM     14  C   UNL     1       1.728   4.377  18.982  0.00  0.00    +0.000 C 
ATOM     15  C   UNL     1       2.295   2.935  18.994  0.00  0.00    +0.000 C 
ATOM     16  C   UNL     1       1.468   1.785  18.360  0.00  0.00    +0.000 C 
ATOM     17  C   UNL     1       2.251   2.554  20.521  0.00  0.00    +0.000 C 
ATOM     18  O   UNL     1       3.604   2.854  18.273  0.00  0.00    +0.000 OA
ENDROOT
BRANCH   1  20
ATOM     19  C   UNL     1       5.159   3.214  12.192  0.00  0.00    +0.000 C 
ATOM     20  O   UNL     1       6.175   3.947  12.850  0.00  0.00    +0.000 OA
ENDBRANCH   1  20
TORSDOF 1
ENDMDL
MODEL 2
REMARK VINA RESULT:      -6.7      1.827      2.742
REMARK  Name = 
REMARK  5 active torsions:
REMARK  status: ('A' for Active; 'I' for Inactive)
REMARK    1  A    between atoms: C_1  and  O_2
REMARK    2  A    between atoms: O_2  and  C_3
REMARK    3  A    between atoms: N_13  and  C_14
REMARK    4  A    between atoms: C_17  and  C_18
REMARK    5  A    between atoms: C_17  and  C_19
REMARK                            x       y       z     vdW  Elec       q    Type
REMARK                         _______ _______ _______ _____ _____    ______ ____
ROOT
ATOM      1  C   UNL     1       6.753   5.445  15.858  0.00  0.00    +0.000 A 
ATOM      2  C   UNL     1       6.136   6.694  15.763  0.00  0.00    +0.000 A 
ATOM      3  C   UNL     1       4.991   6.960  16.501  0.00  0.00    +0.000 A 
ATOM      4  C   UNL     1       4.448   5.948  17.299  0.00  0.00    +0.000 A 
ATOM      5  C   UNL     1       5.121   4.753  17.569  0.00  0.00    +0.000 A 
ATOM      6  C   UNL     1       6.272   4.492  16.787  0.00  0.00    +0.000 A 
ATOM      7  C   UNL     1       4.339   3.687  18.279  0.00  0.00    +0.000 A 
ATOM      8  C   UNL     1       3.161   3.504  17.655  0.00  0.00    +0.000 A 
ATOM      9  C   UNL     1       2.374   4.815  17.745  0.00  0.00    +0.000 A 
ATOM     10  O   UNL     1       1.128   4.794  17.848  0.00  0.00    +0.000 OA
ATOM     11  N   UNL     1       3.092   6.007  17.662  0.00  0.00    +0.000 N 
ATOM     12  C   UNL     1       2.430   7.287  17.819  0.00  0.00    +0.000 C 
ATOM     13  C   UNL     1       2.494   2.254  17.965  0.00  0.00    +0.000 C 
ATOM     14  C   UNL     1       2.478   1.901  19.260  0.00  0.00    +0.000 C 
ATOM     15  C   UNL     1       3.611   2.323  20.230  0.00  0.00    +0.000 C 
ATOM     16  C   UNL     1       4.717   1.299  20.602  0.00  0.00    +0.000 C 
ATOM     17  C   UNL     1       2.854   2.487  21.601  0.00  0.00    +0.000 C 
ATOM     18  O   UNL     1       4.386   3.486  19.696  0.00  0.00    +0.000 OA
ENDROOT
BRANCH   1  20
ATOM     19  C   UNL     1       7.229   4.803  13.620  0.00  0.00    +0.000 C 
ATOM     20  O   UNL     1       7.690   5.251  14.881  0.00  0.00    +0.000 OA
ENDBRANCH   1  20
TORSDOF 1
ENDMDL
MODEL 3
REMARK VINA RESULT:      -6.6      2.367      6.271
REMARK  Name = 
REMARK  5 active torsions:
REMARK  status: ('A' for Active; 'I' for Inactive)
REMARK    1  A    between atoms: C_1  and  O_2
REMARK    2  A    between atoms: O_2  and  C_3
REMARK    3  A    between atoms: N_13  and  C_14
REMARK    4  A    between atoms: C_17  and  C_18
REMARK    5  A    between atoms: C_17  and  C_19
REMARK                            x       y       z     vdW  Elec       q    Type
REMARK                         _______ _______ _______ _____ _____    ______ ____
ROOT
ATOM      1  C   UNL     1       1.587   7.658  20.154  0.00  0.00    +0.000 A 
ATOM      2  C   UNL     1       1.077   6.621  20.936  0.00  0.00    +0.000 A 
ATOM      3  C   UNL     1       1.667   5.365  20.894  0.00  0.00    +0.000 A 
ATOM      4  C   UNL     1       2.743   5.150  20.027  0.00  0.00    +0.000 A 
ATOM      5  C   UNL     1       3.401   6.191  19.365  0.00  0.00    +0.000 A 
ATOM      6  C   UNL     1       2.769   7.456  19.401  0.00  0.00    +0.000 A 
ATOM      7  C   UNL     1       4.408   5.794  18.325  0.00  0.00    +0.000 A 
ATOM      8  C   UNL     1       3.859   4.895  17.488  0.00  0.00    +0.000 A 
ATOM      9  C   UNL     1       3.500   3.651  18.305  0.00  0.00    +0.000 A 
ATOM     10  O   UNL     1       3.582   2.515  17.790  0.00  0.00    +0.000 OA
ATOM     11  N   UNL     1       3.043   3.843  19.608  0.00  0.00    +0.000 N 
ATOM     12  C   UNL     1       2.761   2.713  20.472  0.00  0.00    +0.000 C 
ATOM     13  C   UNL     1       4.549   4.737  16.222  0.00  0.00    +0.000 C 
ATOM     14  C   UNL     1       5.888   4.663  16.289  0.00  0.00    +0.000 C 
ATOM     15  C   UNL     1       6.686   5.373  17.412  0.00  0.00    +0.000 C 
ATOM     16  C   UNL     1       7.392   6.722  17.110  0.00  0.00    +0.000 C 
ATOM     17  C   UNL     1       7.914   4.412  17.630  0.00  0.00    +0.000 C 
ATOM     18  O   UNL     1       5.813   5.698  18.583  0.00  0.00    +0.000 OA
ENDROOT
BRANCH   1  20
ATOM     19  C   UNL     1       0.136   9.144  21.310  0.00  0.00    +0.000 C 
ATOM     20  O   UNL     1       0.744   8.734  20.100  0.00  0.00    +0.000 OA
ENDBRANCH   1  20
TORSDOF 1
ENDMDL
MODEL 4
REMARK VINA RESULT:      -6.6      2.687      6.000
REMARK  Name = 
REMARK  5 active torsions:
REMARK  status: ('A' for Active; 'I' for Inactive)
REMARK    1  A    between atoms: C_1  and  O_2
REMARK    2  A    between atoms: O_2  and  C_3
REMARK    3  A    between atoms: N_13  and  C_14
REMARK    4  A    between atoms: C_17  and  C_18
REMARK    5  A    between atoms: C_17  and  C_19
REMARK                            x       y       z     vdW  Elec       q    Type
REMARK                         _______ _______ _______ _____ _____    ______ ____
ROOT
ATOM      1  C   UNL     1       1.588   8.946  18.534  0.00  0.00    +0.000 A 
ATOM      2  C   UNL     1       1.072   8.466  19.739  0.00  0.00    +0.000 A 
ATOM      3  C   UNL     1       1.589   7.308  20.302  0.00  0.00    +0.000 A 
ATOM      4  C   UNL     1       2.597   6.615  19.624  0.00  0.00    +0.000 A 
ATOM      5  C   UNL     1       3.268   7.145  18.518  0.00  0.00    +0.000 A 
ATOM      6  C   UNL     1       2.708   8.312  17.946  0.00  0.00    +0.000 A 
ATOM      7  C   UNL     1       4.185   6.214  17.780  0.00  0.00    +0.000 A 
ATOM      8  C   UNL     1       3.538   5.067  17.508  0.00  0.00    +0.000 A 
ATOM      9  C   UNL     1       3.163   4.412  18.840  0.00  0.00    +0.000 A 
ATOM     10  O   UNL     1       3.152   3.166  18.947  0.00  0.00    +0.000 OA
ATOM     11  N   UNL     1       2.800   5.250  19.893  0.00  0.00    +0.000 N 
ATOM     12  C   UNL     1       2.510   4.711  21.207  0.00  0.00    +0.000 C 
ATOM     13  C   UNL     1       4.139   4.259  16.464  0.00  0.00    +0.000 C 
ATOM     14  C   UNL     1       5.474   4.123  16.522  0.00  0.00    +0.000 C 
ATOM     15  C   UNL     1       6.377   5.227  17.129  0.00  0.00    +0.000 C 
ATOM     16  C   UNL     1       7.135   6.198  16.184  0.00  0.00    +0.000 C 
ATOM     17  C   UNL     1       7.562   4.403  17.757  0.00  0.00    +0.000 C 
ATOM     18  O   UNL     1       5.597   6.149  18.014  0.00  0.00    +0.000 OA
ENDROOT
BRANCH   1  20
ATOM     19  C   UNL     1      -0.288  10.390  18.753  0.00  0.00    +0.000 C 
ATOM     20  O   UNL     1       0.802   9.921  17.982  0.00  0.00    +0.000 OA
ENDBRANCH   1  20
TORSDOF 1
ENDMDL
MODEL 5
REMARK VINA RESULT:      -6.2      2.226      6.209
REMARK  Name = 
REMARK  5 active torsions:
REMARK  status: ('A' for Active; 'I' for Inactive)
REMARK    1  A    between atoms: C_1  and  O_2
REMARK    2  A    between atoms: O_2  and  C_3
REMARK    3  A    between atoms: N_13  and  C_14
REMARK    4  A    between atoms: C_17  and  C_18
REMARK    5  A    between atoms: C_17  and  C_19
REMARK                            x       y       z     vdW  Elec       q    Type
REMARK                         _______ _______ _______ _____ _____    ______ ____
ROOT
ATOM      1  C   UNL     1       1.536   6.219  20.682  0.00  0.00    +0.000 A 
ATOM      2  C   UNL     1       0.869   5.003  20.529  0.00  0.00    +0.000 A 
ATOM      3  C   UNL     1       1.447   3.983  19.786  0.00  0.00    +0.000 A 
ATOM      4  C   UNL     1       2.678   4.212  19.163  0.00  0.00    +0.000 A 
ATOM      5  C   UNL     1       3.465   5.335  19.431  0.00  0.00    +0.000 A 
ATOM      6  C   UNL     1       2.847   6.372  20.169  0.00  0.00    +0.000 A 
ATOM      7  C   UNL     1       4.663   5.542  18.550  0.00  0.00    +0.000 A 
ATOM      8  C   UNL     1       4.292   5.448  17.260  0.00  0.00    +0.000 A 
ATOM      9  C   UNL     1       3.765   4.030  17.024  0.00  0.00    +0.000 A 
ATOM     10  O   UNL     1       3.945   3.467  15.923  0.00  0.00    +0.000 OA
ATOM     11  N   UNL     1       3.050   3.427  18.059  0.00  0.00    +0.000 N 
ATOM     12  C   UNL     1       2.588   2.058  17.943  0.00  0.00    +0.000 C 
ATOM     13  C   UNL     1       5.229   6.023  16.313  0.00  0.00    +0.000 C 
ATOM     14  C   UNL     1       6.525   5.741  16.523  0.00  0.00    +0.000 C 
ATOM     15  C   UNL     1       7.077   5.477  17.947  0.00  0.00    +0.000 C 
ATOM     16  C   UNL     1       7.839   6.606  18.691  0.00  0.00    +0.000 C 
ATOM     17  C   UNL     1       8.227   4.433  17.688  0.00  0.00    +0.000 C 
ATOM     18  O   UNL     1       5.983   5.114  18.902  0.00  0.00    +0.000 OA
ENDROOT
BRANCH   1  20
ATOM     19  C   UNL     1       1.097   8.540  20.951  0.00  0.00    +0.000 C 
ATOM     20  O   UNL     1       0.729   7.196  21.198  0.00  0.00    +0.000 OA
ENDBRANCH   1  20
TORSDOF 1
ENDMDL
MODEL 6
REMARK VINA RESULT:      -6.1      3.025      4.909
REMARK  Name = 
REMARK  5 active torsions:
REMARK  status: ('A' for Active; 'I' for Inactive)
REMARK    1  A    between atoms: C_1  and  O_2
REMARK    2  A    between atoms: O_2  and  C_3
REMARK    3  A    between atoms: N_13  and  C_14
REMARK    4  A    between atoms: C_17  and  C_18
REMARK    5  A    between atoms: C_17  and  C_19
REMARK                            x       y       z     vdW  Elec       q    Type
REMARK                         _______ _______ _______ _____ _____    ______ ____
ROOT
ATOM      1  C   UNL     1       5.775   5.542  17.028  0.00  0.00    +0.000 A 
ATOM      2  C   UNL     1       5.221   4.269  16.885  0.00  0.00    +0.000 A 
ATOM      3  C   UNL     1       3.888   4.053  17.205  0.00  0.00    +0.000 A 
ATOM      4  C   UNL     1       3.131   5.115  17.712  0.00  0.00    +0.000 A 
ATOM      5  C   UNL     1       3.582   6.438  17.703  0.00  0.00    +0.000 A 
ATOM      6  C   UNL     1       4.951   6.632  17.397  0.00  0.00    +0.000 A 
ATOM      7  C   UNL     1       2.748   7.437  18.450  0.00  0.00    +0.000 A 
ATOM      8  C   UNL     1       2.490   6.972  19.686  0.00  0.00    +0.000 A 
ATOM      9  C   UNL     1       1.677   5.682  19.542  0.00  0.00    +0.000 A 
ATOM     10  O   UNL     1       0.805   5.391  20.389  0.00  0.00    +0.000 OA
ATOM     11  N   UNL     1       1.980   4.844  18.470  0.00  0.00    +0.000 N 
ATOM     12  C   UNL     1       1.202   3.646  18.220  0.00  0.00    +0.000 C 
ATOM     13  C   UNL     1       2.062   7.978  20.640  0.00  0.00    +0.000 C 
ATOM     14  C   UNL     1       1.152   8.860  20.195  0.00  0.00    +0.000 C 
ATOM     15  C   UNL     1       1.079   9.268  18.702  0.00  0.00    +0.000 C 
ATOM     16  C   UNL     1       1.699  10.616  18.248  0.00  0.00    +0.000 C 
ATOM     17  C   UNL     1      -0.458   9.536  18.487  0.00  0.00    +0.000 C 
ATOM     18  O   UNL     1       1.760   8.264  17.824  0.00  0.00    +0.000 OA
ENDROOT
BRANCH   1  20
ATOM     19  C   UNL     1       7.833   4.564  17.706  0.00  0.00    +0.000 C 
ATOM     20  O   UNL     1       7.140   5.530  16.938  0.00  0.00    +0.000 OA
ENDBRANCH   1  20
TORSDOF 1
ENDMDL
MODEL 7
REMARK VINA RESULT:      -5.9      1.645      2.081
REMARK  Name = 
REMARK  5 active torsions:
REMARK  status: ('A' for Active; 'I' for Inactive)
REMARK    1  A    between atoms: C_1  and  O_2
REMARK    2  A    between atoms: O_2  and  C_3
REMARK    3  A    between atoms: N_13  and  C_14
REMARK    4  A    between atoms: C_17  and  C_18
REMARK    5  A    between atoms: C_17  and  C_19
REMARK                            x       y       z     vdW  Elec       q    Type
REMARK                         _______ _______ _______ _____ _____    ______ ____
ROOT
ATOM      1  C   UNL     1       6.143   4.402  15.295  0.00  0.00    +0.000 A 
ATOM      2  C   UNL     1       6.178   5.794  15.196  0.00  0.00    +0.000 A 
ATOM      3  C   UNL     1       5.427   6.570  16.069  0.00  0.00    +0.000 A 
ATOM      4  C   UNL     1       4.610   5.935  17.009  0.00  0.00    +0.000 A 
ATOM      5  C   UNL     1       4.677   4.563  17.268  0.00  0.00    +0.000 A 
ATOM      6  C   UNL     1       5.428   3.789  16.351  0.00  0.00    +0.000 A 
ATOM      7  C   UNL     1       3.612   3.995  18.160  0.00  0.00    +0.000 A 
ATOM      8  C   UNL     1       2.403   4.395  17.727  0.00  0.00    +0.000 A 
ATOM      9  C   UNL     1       2.349   5.922  17.830  0.00  0.00    +0.000 A 
ATOM     10  O   UNL     1       1.274   6.495  18.112  0.00  0.00    +0.000 OA
ATOM     11  N   UNL     1       3.518   6.630  17.557  0.00  0.00    +0.000 N 
ATOM     12  C   UNL     1       3.569   8.071  17.712  0.00  0.00    +0.000 C 
ATOM     13  C   UNL     1       1.287   3.610  18.220  0.00  0.00    +0.000 C 
ATOM     14  C   UNL     1       1.317   3.305  19.527  0.00  0.00    +0.000 C 
ATOM     15  C   UNL     1       2.655   3.135  20.291  0.00  0.00    +0.000 C 
ATOM     16  C   UNL     1       3.195   1.708  20.576  0.00  0.00    +0.000 C 
ATOM     17  C   UNL     1       2.296   3.636  21.740  0.00  0.00    +0.000 C 
ATOM     18  O   UNL     1       3.788   3.792  19.567  0.00  0.00    +0.000 OA
ENDROOT
BRANCH   1  20
ATOM     19  C   UNL     1       5.902   3.639  13.057  0.00  0.00    +0.000 C 
ATOM     20  O   UNL     1       6.708   3.788  14.210  0.00  0.00    +0.000 OA
ENDBRANCH   1  20
TORSDOF 1
ENDMDL
MODEL 8
REMARK VINA RESULT:      -5.8      2.723      5.395
REMARK  Name = 
REMARK  5 active torsions:
REMARK  status: ('A' for Active; 'I' for Inactive)
REMARK    1  A    between atoms: C_1  and  O_2
REMARK    2  A    between atoms: O_2  and  C_3
REMARK    3  A    between atoms: N_13  and  C_14
REMARK    4  A    between atoms: C_17  and  C_18
REMARK    5  A    between atoms: C_17  and  C_19
REMARK                            x       y       z     vdW  Elec       q    Type
REMARK                         _______ _______ _______ _____ _____    ______ ____
ROOT
ATOM      1  C   UNL     1       1.581   8.740  19.471  0.00  0.00    +0.000 A 
ATOM      2  C   UNL     1       2.149   9.343  18.347  0.00  0.00    +0.000 A 
ATOM      3  C   UNL     1       2.935   8.595  17.481  0.00  0.00    +0.000 A 
ATOM      4  C   UNL     1       3.180   7.250  17.778  0.00  0.00    +0.000 A 
ATOM      5  C   UNL     1       2.495   6.559  18.782  0.00  0.00    +0.000 A 
ATOM      6  C   UNL     1       1.720   7.345  19.667  0.00  0.00    +0.000 A 
ATOM      7  C   UNL     1       2.997   5.184  19.113  0.00  0.00    +0.000 A 
ATOM      8  C   UNL     1       4.327   5.228  19.312  0.00  0.00    +0.000 A 
ATOM      9  C   UNL     1       4.983   5.673  18.002  0.00  0.00    +0.000 A 
ATOM     10  O   UNL     1       6.105   5.227  17.677  0.00  0.00    +0.000 OA
ATOM     11  N   UNL     1       4.306   6.615  17.228  0.00  0.00    +0.000 N 
ATOM     12  C   UNL     1       4.823   7.026  15.937  0.00  0.00    +0.000 C 
ATOM     13  C   UNL     1       4.875   4.092  20.029  0.00  0.00    +0.000 C 
ATOM     14  C   UNL     1       4.427   2.885  19.649  0.00  0.00    +0.000 C 
ATOM     15  C   UNL     1       3.004   2.695  19.064  0.00  0.00    +0.000 C 
ATOM     16  C   UNL     1       1.873   2.144  19.973  0.00  0.00    +0.000 C 
ATOM     17  C   UNL     1       3.200   1.510  18.046  0.00  0.00    +0.000 C 
ATOM     18  O   UNL     1       2.440   3.986  18.560  0.00  0.00    +0.000 OA
ENDROOT
BRANCH   1  20
ATOM     19  C   UNL     1       0.538   9.160  21.565  0.00  0.00    +0.000 C 
ATOM     20  O   UNL     1       1.075   9.655  20.353  0.00  0.00    +0.000 OA
ENDBRANCH   1  20
TORSDOF 1
ENDMDL
MODEL 9
REMARK VINA RESULT:      -5.8      1.495      5.511
REMARK  Name = 
REMARK  5 active torsions:
REMARK  status: ('A' for Active; 'I' for Inactive)
REMARK    1  A    between atoms: C_1  and  O_2
REMARK    2  A    between atoms: O_2  and  C_3
REMARK    3  A    between atoms: N_13  and  C_14
REMARK    4  A    between atoms: C_17  and  C_18
REMARK    5  A    between atoms: C_17  and  C_19
REMARK                            x       y       z     vdW  Elec       q    Type
REMARK                         _______ _______ _______ _____ _____    ______ ____
ROOT
ATOM      1  C   UNL     1       2.189   3.146  18.949  0.00  0.00    +0.000 A 
ATOM      2  C   UNL     1       1.674   4.381  19.346  0.00  0.00    +0.000 A 
ATOM      3  C   UNL     1       2.161   5.550  18.778  0.00  0.00    +0.000 A 
ATOM      4  C   UNL     1       3.198   5.470  17.843  0.00  0.00    +0.000 A 
ATOM      5  C   UNL     1       3.620   4.261  17.283  0.00  0.00    +0.000 A 
ATOM      6  C   UNL     1       3.130   3.082  17.893  0.00  0.00    +0.000 A 
ATOM      7  C   UNL     1       4.864   4.307  16.444  0.00  0.00    +0.000 A 
ATOM      8  C   UNL     1       5.836   4.948  17.118  0.00  0.00    +0.000 A 
ATOM      9  C   UNL     1       5.370   6.386  17.361  0.00  0.00    +0.000 A 
ATOM     10  O   UNL     1       6.197   7.323  17.364  0.00  0.00    +0.000 OA
ATOM     11  N   UNL     1       4.014   6.591  17.618  0.00  0.00    +0.000 N 
ATOM     12  C   UNL     1       3.482   7.930  17.778  0.00  0.00    +0.000 C 
ATOM     13  C   UNL     1       7.179   4.712  16.623  0.00  0.00    +0.000 C 
ATOM     14  C   UNL     1       7.330   4.755  15.290  0.00  0.00    +0.000 C 
ATOM     15  C   UNL     1       6.177   4.368  14.329  0.00  0.00    +0.000 C 
ATOM     16  C   UNL     1       6.176   2.965  13.665  0.00  0.00    +0.000 C 
ATOM     17  C   UNL     1       6.423   5.307  13.090  0.00  0.00    +0.000 C 
ATOM     18  O   UNL     1       4.848   4.423  15.016  0.00  0.00    +0.000 OA
ENDROOT
BRANCH   1  20
ATOM     19  C   UNL     1       1.492   2.471  21.119  0.00  0.00    +0.000 C 
ATOM     20  O   UNL     1       1.809   2.130  19.783  0.00  0.00    +0.000 OA
ENDBRANCH   1  20
TORSDOF 1
ENDMDL
