MODEL 1
REMARK VINA RESULT:      -8.1      0.000      0.000
REMARK  Name = 
REMARK  10 active torsions:
REMARK  status: ('A' for Active; 'I' for Inactive)
REMARK    1  A    between atoms: C_1  and  O_2
REMARK    2  A    between atoms: O_2  and  C_3
REMARK    3  A    between atoms: C_6  and  C_7
REMARK    4  A    between atoms: N_9  and  C_10
REMARK    5  A    between atoms: C_10  and  C_11
REMARK    6  A    between atoms: C_11  and  N_12
REMARK    7  A    between atoms: C_16  and  C_17
REMARK    8  A    between atoms: C_22  and  C_23
REMARK    9  A    between atoms: C_25  and  O_26
REMARK   10  A    between atoms: O_26  and  C_27
REMARK                            x       y       z     vdW  Elec       q    Type
REMARK                         _______ _______ _______ _____ _____    ______ ____
ROOT
ATOM      1  C   UNL     1       2.896   7.884  17.745  0.00  0.00    +0.000 C 
ENDROOT
BRANCH   1   4
ATOM      2  C   UNL     1       1.660   9.912  18.267  0.00  0.00    +0.000 C 
ATOM      3  O   UNL     1       2.436  10.578  17.590  0.00  0.00    +0.000 OA
ATOM      4  N   UNL     1       1.811   8.542  18.432  0.00  0.00    +0.000 N 
ATOM      5  H   UNL     1       1.039   7.971  18.751  0.00  0.00    +0.000 HD
BRANCH   2   9
ATOM      6  C   UNL     1      -1.517  11.882  20.236  0.00  0.00    +0.000 A 
ATOM      7  C   UNL     1      -0.255  11.964  20.794  0.00  0.00    +0.000 A 
ATOM      8  C   UNL     1       0.788  11.289  20.163  0.00  0.00    +0.000 A 
ATOM      9  C   UNL     1       0.538  10.553  18.994  0.00  0.00    +0.000 A 
ATOM     10  C   UNL     1      -0.772  10.529  18.509  0.00  0.00    +0.000 A 
ATOM     11  N   UNL     1      -1.788  11.171  19.128  0.00  0.00    +0.000 NA
BRANCH   6  13
ATOM     12  C   UNL     1      -3.729  12.583  20.067  0.00  0.00    +0.000 C 
ATOM     13  O   UNL     1      -2.537  12.573  20.854  0.00  0.00    +0.000 OA
ENDBRANCH   6  13
BRANCH  10  14
ATOM     14  O   UNL     1      -1.087   9.815  17.377  0.00  0.00    +0.000 OA
ATOM     15  C   UNL     1      -2.454   9.956  16.989  0.00  0.00    +0.000 C 
ENDBRANCH  10  14
ENDBRANCH   2   9
ENDBRANCH   1   4
BRANCH   1  16
ATOM     16  C   UNL     1       3.342   6.552  18.372  0.00  0.00    +0.000 C 
BRANCH  16  17
ATOM     17  N   UNL     1       3.483   5.392  17.462  0.00  0.00    +0.000 NA
ATOM     18  C   UNL     1       4.680   5.437  16.599  0.00  0.00    +0.000 C 
ATOM     19  C   UNL     1       5.948   5.792  17.333  0.00  0.00    +0.000 A 
ATOM     20  C   UNL     1       6.561   7.028  17.069  0.00  0.00    +0.000 A 
ATOM     21  C   UNL     1       7.590   7.512  17.878  0.00  0.00    +0.000 A 
ATOM     22  C   UNL     1       8.083   8.918  17.696  0.00  0.00    +0.000 C 
ATOM     23  C   UNL     1       8.096   6.688  18.888  0.00  0.00    +0.000 A 
ATOM     24  C   UNL     1       7.551   5.416  19.106  0.00  0.00    +0.000 A 
ATOM     25  C   UNL     1       6.455   4.989  18.358  0.00  0.00    +0.000 A 
ATOM     26  O   UNL     1       5.904   3.766  18.648  0.00  0.00    +0.000 OA
ATOM     27  C   UNL     1       4.605   3.894  19.262  0.00  0.00    +0.000 C 
ATOM     28  C   UNL     1       4.332   2.583  20.007  0.00  0.00    +0.000 C 
ATOM     29  C   UNL     1       3.475   4.117  18.222  0.00  0.00    +0.000 C 
ENDBRANCH  16  17
ENDBRANCH   1  16
TORSDOF 6
ENDMDL
MODEL 2
REMARK VINA RESULT:      -7.8      1.157      1.746
REMARK  Name = 
REMARK  10 active torsions:
REMARK  status: ('A' for Active; 'I' for Inactive)
REMARK    1  A    between atoms: C_1  and  O_2
REMARK    2  A    between atoms: O_2  and  C_3
REMARK    3  A    between atoms: C_6  and  C_7
REMARK    4  A    between atoms: N_9  and  C_10
REMARK    5  A    between atoms: C_10  and  C_11
REMARK    6  A    between atoms: C_11  and  N_12
REMARK    7  A    between atoms: C_16  and  C_17
REMARK    8  A    between atoms: C_22  and  C_23
REMARK    9  A    between atoms: C_25  and  O_26
REMARK   10  A    between atoms: O_26  and  C_27
REMARK                            x       y       z     vdW  Elec       q    Type
REMARK                         _______ _______ _______ _____ _____    ______ ____
ROOT
ATOM      1  C   UNL     1       2.773   7.802  17.700  0.00  0.00    +0.000 C 
ENDROOT
BRANCH   1   4
ATOM      2  C   UNL     1       1.657   9.864  18.349  0.00  0.00    +0.000 C 
ATOM      3  O   UNL     1       2.366  10.507  17.584  0.00  0.00    +0.000 OA
ATOM      4  N   UNL     1       1.790   8.490  18.503  0.00  0.00    +0.000 N 
ATOM      5  H   UNL     1       1.046   7.940  18.912  0.00  0.00    +0.000 HD
BRANCH   2   9
ATOM      6  C   UNL     1      -1.349  11.641  20.729  0.00  0.00    +0.000 A 
ATOM      7  C   UNL     1      -1.248  12.033  19.407  0.00  0.00    +0.000 A 
ATOM      8  C   UNL     1      -0.237  11.471  18.629  0.00  0.00    +0.000 A 
ATOM      9  C   UNL     1       0.642  10.535  19.196  0.00  0.00    +0.000 A 
ATOM     10  C   UNL     1       0.460  10.205  20.541  0.00  0.00    +0.000 A 
ATOM     11  N   UNL     1      -0.510  10.759  21.301  0.00  0.00    +0.000 NA
BRANCH   6  13
ATOM     12  C   UNL     1      -3.224  13.018  20.703  0.00  0.00    +0.000 C 
ATOM     13  O   UNL     1      -2.366  12.184  21.483  0.00  0.00    +0.000 OA
ENDBRANCH   6  13
BRANCH  10  14
ATOM     14  O   UNL     1       1.295   9.305  21.161  0.00  0.00    +0.000 OA
ATOM     15  C   UNL     1       1.131   9.274  22.578  0.00  0.00    +0.000 C 
ENDBRANCH  10  14
ENDBRANCH   2   9
ENDBRANCH   1   4
BRANCH   1  16
ATOM     16  C   UNL     1       3.340   6.521  18.334  0.00  0.00    +0.000 C 
BRANCH  16  17
ATOM     17  N   UNL     1       3.501   5.345  17.448  0.00  0.00    +0.000 NA
ATOM     18  C   UNL     1       4.712   5.381  16.604  0.00  0.00    +0.000 C 
ATOM     19  C   UNL     1       5.966   5.757  17.351  0.00  0.00    +0.000 A 
ATOM     20  C   UNL     1       6.577   6.991  17.073  0.00  0.00    +0.000 A 
ATOM     21  C   UNL     1       7.589   7.496  17.889  0.00  0.00    +0.000 A 
ATOM     22  C   UNL     1       8.077   8.901  17.688  0.00  0.00    +0.000 C 
ATOM     23  C   UNL     1       8.084   6.695  18.922  0.00  0.00    +0.000 A 
ATOM     24  C   UNL     1       7.543   5.424  19.156  0.00  0.00    +0.000 A 
ATOM     25  C   UNL     1       6.462   4.977  18.399  0.00  0.00    +0.000 A 
ATOM     26  O   UNL     1       5.912   3.756  18.703  0.00  0.00    +0.000 OA
ATOM     27  C   UNL     1       4.604   3.887  19.294  0.00  0.00    +0.000 C 
ATOM     28  C   UNL     1       4.326   2.589  20.059  0.00  0.00    +0.000 C 
ATOM     29  C   UNL     1       3.489   4.085  18.232  0.00  0.00    +0.000 C 
ENDBRANCH  16  17
ENDBRANCH   1  16
TORSDOF 6
ENDMDL
MODEL 3
REMARK VINA RESULT:      -7.8      1.721      2.151
REMARK  Name = 
REMARK  10 active torsions:
REMARK  status: ('A' for Active; 'I' for Inactive)
REMARK    1  A    between atoms: C_1  and  O_2
REMARK    2  A    between atoms: O_2  and  C_3
REMARK    3  A    between atoms: C_6  and  C_7
REMARK    4  A    between atoms: N_9  and  C_10
REMARK    5  A    between atoms: C_10  and  C_11
REMARK    6  A    between atoms: C_11  and  N_12
REMARK    7  A    between atoms: C_16  and  C_17
REMARK    8  A    between atoms: C_22  and  C_23
REMARK    9  A    between atoms: C_25  and  O_26
REMARK   10  A    between atoms: O_26  and  C_27
REMARK                            x       y       z     vdW  Elec       q    Type
REMARK                         _______ _______ _______ _____ _____    ______ ____
ROOT
ATOM      1  C   UNL     1       2.141   7.532  18.108  0.00  0.00    +0.000 C 
ENDROOT
BRANCH   1   4
ATOM      2  C   UNL     1       1.086   9.626  18.755  0.00  0.00    +0.000 C 
ATOM      3  O   UNL     1       0.372   9.592  17.760  0.00  0.00    +0.000 OA
ATOM      4  N   UNL     1       2.032   8.645  19.020  0.00  0.00    +0.000 N 
ATOM      5  H   UNL     1       2.415   8.531  19.951  0.00  0.00    +0.000 HD
BRANCH   2   9
ATOM      6  C   UNL     1       0.704  12.879  21.424  0.00  0.00    +0.000 A 
ATOM      7  C   UNL     1       1.281  13.113  20.190  0.00  0.00    +0.000 A 
ATOM      8  C   UNL     1       1.437  12.035  19.321  0.00  0.00    +0.000 A 
ATOM      9  C   UNL     1       1.011  10.756  19.712  0.00  0.00    +0.000 A 
ATOM     10  C   UNL     1       0.442  10.620  20.980  0.00  0.00    +0.000 A 
ATOM     11  N   UNL     1       0.303  11.662  21.830  0.00  0.00    +0.000 NA
BRANCH   6  13
ATOM     12  C   UNL     1      -0.761  13.960  22.873  0.00  0.00    +0.000 C 
ATOM     13  O   UNL     1       0.533  13.956  22.267  0.00  0.00    +0.000 OA
ENDBRANCH   6  13
BRANCH  10  14
ATOM     14  O   UNL     1       0.017   9.392  21.429  0.00  0.00    +0.000 OA
ATOM     15  C   UNL     1      -0.259   9.373  22.829  0.00  0.00    +0.000 C 
ENDBRANCH  10  14
ENDBRANCH   2   9
ENDBRANCH   1   4
BRANCH   1  16
ATOM     16  C   UNL     1       3.366   6.630  18.334  0.00  0.00    +0.000 C 
BRANCH  16  17
ATOM     17  N   UNL     1       3.518   5.462  17.436  0.00  0.00    +0.000 NA
ATOM     18  C   UNL     1       4.731   5.495  16.595  0.00  0.00    +0.000 C 
ATOM     19  C   UNL     1       5.987   5.851  17.349  0.00  0.00    +0.000 A 
ATOM     20  C   UNL     1       6.610   7.082  17.085  0.00  0.00    +0.000 A 
ATOM     21  C   UNL     1       7.626   7.569  17.909  0.00  0.00    +0.000 A 
ATOM     22  C   UNL     1       8.128   8.971  17.724  0.00  0.00    +0.000 C 
ATOM     23  C   UNL     1       8.110   6.751  18.934  0.00  0.00    +0.000 A 
ATOM     24  C   UNL     1       7.556   5.484  19.154  0.00  0.00    +0.000 A 
ATOM     25  C   UNL     1       6.472   5.055  18.389  0.00  0.00    +0.000 A 
ATOM     26  O   UNL     1       5.911   3.836  18.679  0.00  0.00    +0.000 OA
ATOM     27  C   UNL     1       4.602   3.974  19.269  0.00  0.00    +0.000 C 
ATOM     28  C   UNL     1       4.310   2.671  20.019  0.00  0.00    +0.000 C 
ATOM     29  C   UNL     1       3.491   4.194  18.207  0.00  0.00    +0.000 C 
ENDBRANCH  16  17
ENDBRANCH   1  16
TORSDOF 6
ENDMDL
MODEL 4
REMARK VINA RESULT:      -7.7      2.110      3.927
REMARK  Name = 
REMARK  10 active torsions:
REMARK  status: ('A' for Active; 'I' for Inactive)
REMARK    1  A    between atoms: C_1  and  O_2
REMARK    2  A    between atoms: O_2  and  C_3
REMARK    3  A    between atoms: C_6  and  C_7
REMARK    4  A    between atoms: N_9  and  C_10
REMARK    5  A    between atoms: C_10  and  C_11
REMARK    6  A    between atoms: C_11  and  N_12
REMARK    7  A    between atoms: C_16  and  C_17
REMARK    8  A    between atoms: C_22  and  C_23
REMARK    9  A    between atoms: C_25  and  O_26
REMARK   10  A    between atoms: O_26  and  C_27
REMARK                            x       y       z     vdW  Elec       q    Type
REMARK                         _______ _______ _______ _____ _____    ______ ____
ROOT
ATOM      1  C   UNL     1       2.802   8.075  17.772  0.00  0.00    +0.000 C 
ENDROOT
BRANCH   1   4
ATOM      2  C   UNL     1       0.984   9.382  18.721  0.00  0.00    +0.000 C 
ATOM      3  O   UNL     1       0.465   9.492  17.615  0.00  0.00    +0.000 OA
ATOM      4  N   UNL     1       2.179   8.703  18.913  0.00  0.00    +0.000 N 
ATOM      5  H   UNL     1       2.453   8.385  19.834  0.00  0.00    +0.000 HD
BRANCH   2   9
ATOM      6  C   UNL     1      -0.575  11.221  22.191  0.00  0.00    +0.000 A 
ATOM      7  C   UNL     1      -0.478   9.842  22.172  0.00  0.00    +0.000 A 
ATOM      8  C   UNL     1       0.006   9.232  21.017  0.00  0.00    +0.000 A 
ATOM      9  C   UNL     1       0.379  10.019  19.915  0.00  0.00    +0.000 A 
ATOM     10  C   UNL     1       0.242  11.404  20.030  0.00  0.00    +0.000 A 
ATOM     11  N   UNL     1      -0.241  11.997  21.145  0.00  0.00    +0.000 NA
BRANCH   6  13
ATOM     12  C   UNL     1      -2.451  11.981  23.339  0.00  0.00    +0.000 C 
ATOM     13  O   UNL     1      -1.032  11.816  23.347  0.00  0.00    +0.000 OA
ENDBRANCH   6  13
BRANCH  10  14
ATOM     14  O   UNL     1       0.575  12.230  18.983  0.00  0.00    +0.000 OA
ATOM     15  C   UNL     1      -0.551  12.899  18.417  0.00  0.00    +0.000 C 
ENDBRANCH  10  14
ENDBRANCH   2   9
ENDBRANCH   1   4
BRANCH   1  16
ATOM     16  C   UNL     1       3.222   6.611  17.991  0.00  0.00    +0.000 C 
BRANCH  16  17
ATOM     17  N   UNL     1       4.669   6.341  18.152  0.00  0.00    +0.000 NA
ATOM     18  C   UNL     1       4.989   5.353  19.201  0.00  0.00    +0.000 C 
ATOM     19  C   UNL     1       4.141   4.109  19.148  0.00  0.00    +0.000 A 
ATOM     20  C   UNL     1       3.217   3.873  20.179  0.00  0.00    +0.000 A 
ATOM     21  C   UNL     1       2.246   2.877  20.067  0.00  0.00    +0.000 A 
ATOM     22  C   UNL     1       1.150   2.785  21.088  0.00  0.00    +0.000 C 
ATOM     23  C   UNL     1       2.285   2.022  18.961  0.00  0.00    +0.000 A 
ATOM     24  C   UNL     1       3.256   2.191  17.966  0.00  0.00    +0.000 A 
ATOM     25  C   UNL     1       4.153   3.255  18.041  0.00  0.00    +0.000 A 
ATOM     26  O   UNL     1       5.045   3.431  17.013  0.00  0.00    +0.000 OA
ATOM     27  C   UNL     1       4.737   4.600  16.227  0.00  0.00    +0.000 C 
ATOM     28  C   UNL     1       5.410   4.412  14.864  0.00  0.00    +0.000 C 
ATOM     29  C   UNL     1       5.274   5.907  16.869  0.00  0.00    +0.000 C 
ENDBRANCH  16  17
ENDBRANCH   1  16
TORSDOF 6
ENDMDL
MODEL 5
REMARK VINA RESULT:      -7.7      1.558      3.573
REMARK  Name = 
REMARK  10 active torsions:
REMARK  status: ('A' for Active; 'I' for Inactive)
REMARK    1  A    between atoms: C_1  and  O_2
REMARK    2  A    between atoms: O_2  and  C_3
REMARK    3  A    between atoms: C_6  and  C_7
REMARK    4  A    between atoms: N_9  and  C_10
REMARK    5  A    between atoms: C_10  and  C_11
REMARK    6  A    between atoms: C_11  and  N_12
REMARK    7  A    between atoms: C_16  and  C_17
REMARK    8  A    between atoms: C_22  and  C_23
REMARK    9  A    between atoms: C_25  and  O_26
REMARK   10  A    between atoms: O_26  and  C_27
REMARK                            x       y       z     vdW  Elec       q    Type
REMARK                         _______ _______ _______ _____ _____    ______ ____
ROOT
ATOM      1  C   UNL     1       2.932   8.028  17.559  0.00  0.00    +0.000 C 
ENDROOT
BRANCH   1   4
ATOM      2  C   UNL     1       1.676  10.013  18.190  0.00  0.00    +0.000 C 
ATOM      3  O   UNL     1       2.486  10.729  17.613  0.00  0.00    +0.000 OA
ATOM      4  N   UNL     1       1.814   8.633  18.244  0.00  0.00    +0.000 N 
ATOM      5  H   UNL     1       1.025   8.041  18.474  0.00  0.00    +0.000 HD
BRANCH   2   9
ATOM      6  C   UNL     1      -1.609  11.819  20.141  0.00  0.00    +0.000 A 
ATOM      7  C   UNL     1      -0.351  11.991  20.689  0.00  0.00    +0.000 A 
ATOM      8  C   UNL     1       0.729  11.370  20.064  0.00  0.00    +0.000 A 
ATOM      9  C   UNL     1       0.519  10.596  18.912  0.00  0.00    +0.000 A 
ATOM     10  C   UNL     1      -0.789  10.480  18.436  0.00  0.00    +0.000 A 
ATOM     11  N   UNL     1      -1.840  11.070  19.049  0.00  0.00    +0.000 NA
BRANCH   6  13
ATOM     12  C   UNL     1      -2.290  13.043  21.999  0.00  0.00    +0.000 C 
ATOM     13  O   UNL     1      -2.667  12.457  20.752  0.00  0.00    +0.000 OA
ENDBRANCH   6  13
BRANCH  10  14
ATOM     14  O   UNL     1      -1.065   9.725  17.321  0.00  0.00    +0.000 OA
ATOM     15  C   UNL     1      -2.274  10.113  16.668  0.00  0.00    +0.000 C 
ENDBRANCH  10  14
ENDBRANCH   2   9
ENDBRANCH   1   4
BRANCH   1  16
ATOM     16  C   UNL     1       3.294   6.614  18.041  0.00  0.00    +0.000 C 
BRANCH  16  17
ATOM     17  N   UNL     1       4.735   6.296  18.176  0.00  0.00    +0.000 NA
ATOM     18  C   UNL     1       5.039   5.276  19.200  0.00  0.00    +0.000 C 
ATOM     19  C   UNL     1       4.151   4.060  19.133  0.00  0.00    +0.000 A 
ATOM     20  C   UNL     1       3.235   3.831  20.172  0.00  0.00    +0.000 A 
ATOM     21  C   UNL     1       2.232   2.868  20.052  0.00  0.00    +0.000 A 
ATOM     22  C   UNL     1       1.148   2.788  21.087  0.00  0.00    +0.000 C 
ATOM     23  C   UNL     1       2.230   2.036  18.929  0.00  0.00    +0.000 A 
ATOM     24  C   UNL     1       3.193   2.196  17.924  0.00  0.00    +0.000 A 
ATOM     25  C   UNL     1       4.123   3.230  18.009  0.00  0.00    +0.000 A 
ATOM     26  O   UNL     1       5.006   3.400  16.972  0.00  0.00    +0.000 OA
ATOM     27  C   UNL     1       4.723   4.594  16.215  0.00  0.00    +0.000 C 
ATOM     28  C   UNL     1       5.372   4.415  14.838  0.00  0.00    +0.000 C 
ATOM     29  C   UNL     1       5.309   5.871  16.876  0.00  0.00    +0.000 C 
ENDBRANCH  16  17
ENDBRANCH   1  16
TORSDOF 6
ENDMDL
MODEL 6
REMARK VINA RESULT:      -7.7      1.395      1.514
REMARK  Name = 
REMARK  10 active torsions:
REMARK  status: ('A' for Active; 'I' for Inactive)
REMARK    1  A    between atoms: C_1  and  O_2
REMARK    2  A    between atoms: O_2  and  C_3
REMARK    3  A    between atoms: C_6  and  C_7
REMARK    4  A    between atoms: N_9  and  C_10
REMARK    5  A    between atoms: C_10  and  C_11
REMARK    6  A    between atoms: C_11  and  N_12
REMARK    7  A    between atoms: C_16  and  C_17
REMARK    8  A    between atoms: C_22  and  C_23
REMARK    9  A    between atoms: C_25  and  O_26
REMARK   10  A    between atoms: O_26  and  C_27
REMARK                            x       y       z     vdW  Elec       q    Type
REMARK                         _______ _______ _______ _____ _____    ______ ____
ROOT
ATOM      1  C   UNL     1       2.494   7.779  18.188  0.00  0.00    +0.000 C 
ENDROOT
BRANCH   1   4
ATOM      2  C   UNL     1       1.259   9.586  19.250  0.00  0.00    +0.000 C 
ATOM      3  O   UNL     1       1.637  10.372  18.389  0.00  0.00    +0.000 OA
ATOM      4  N   UNL     1       1.648   8.253  19.258  0.00  0.00    +0.000 N 
ATOM      5  H   UNL     1       1.131   7.565  19.790  0.00  0.00    +0.000 HD
BRANCH   2   9
ATOM      6  C   UNL     1      -1.094  11.008  22.459  0.00  0.00    +0.000 A 
ATOM      7  C   UNL     1      -0.098  10.091  22.738  0.00  0.00    +0.000 A 
ATOM      8  C   UNL     1       0.658   9.597  21.677  0.00  0.00    +0.000 A 
ATOM      9  C   UNL     1       0.395  10.035  20.369  0.00  0.00    +0.000 A 
ATOM     10  C   UNL     1      -0.634  10.962  20.188  0.00  0.00    +0.000 A 
ATOM     11  N   UNL     1      -1.377  11.432  21.215  0.00  0.00    +0.000 NA
BRANCH   6  13
ATOM     12  C   UNL     1      -2.969  12.236  23.082  0.00  0.00    +0.000 C 
ATOM     13  O   UNL     1      -1.819  11.509  23.518  0.00  0.00    +0.000 OA
ENDBRANCH   6  13
BRANCH  10  14
ATOM     14  O   UNL     1      -0.951  11.420  18.932  0.00  0.00    +0.000 OA
ATOM     15  C   UNL     1      -2.175  12.155  18.897  0.00  0.00    +0.000 C 
ENDBRANCH  10  14
ENDBRANCH   2   9
ENDBRANCH   1   4
BRANCH   1  16
ATOM     16  C   UNL     1       3.395   6.589  18.558  0.00  0.00    +0.000 C 
BRANCH  16  17
ATOM     17  N   UNL     1       3.474   5.476  17.584  0.00  0.00    +0.000 NA
ATOM     18  C   UNL     1       4.625   5.556  16.663  0.00  0.00    +0.000 C 
ATOM     19  C   UNL     1       5.934   5.862  17.345  0.00  0.00    +0.000 A 
ATOM     20  C   UNL     1       6.546   7.104  17.111  0.00  0.00    +0.000 A 
ATOM     21  C   UNL     1       7.620   7.538  17.888  0.00  0.00    +0.000 A 
ATOM     22  C   UNL     1       8.118   8.947  17.752  0.00  0.00    +0.000 C 
ATOM     23  C   UNL     1       8.170   6.659  18.826  0.00  0.00    +0.000 A 
ATOM     24  C   UNL     1       7.623   5.382  19.009  0.00  0.00    +0.000 A 
ATOM     25  C   UNL     1       6.485   5.003  18.299  0.00  0.00    +0.000 A 
ATOM     26  O   UNL     1       5.937   3.772  18.556  0.00  0.00    +0.000 OA
ATOM     27  C   UNL     1       4.674   3.878  19.243  0.00  0.00    +0.000 C 
ATOM     28  C   UNL     1       4.426   2.533  19.934  0.00  0.00    +0.000 C 
ATOM     29  C   UNL     1       3.492   4.164  18.278  0.00  0.00    +0.000 C 
ENDBRANCH  16  17
ENDBRANCH   1  16
TORSDOF 6
ENDMDL
MODEL 7
REMARK VINA RESULT:      -7.6      1.112      1.830
REMARK  Name = 
REMARK  10 active torsions:
REMARK  status: ('A' for Active; 'I' for Inactive)
REMARK    1  A    between atoms: C_1  and  O_2
REMARK    2  A    between atoms: O_2  and  C_3
REMARK    3  A    between atoms: C_6  and  C_7
REMARK    4  A    between atoms: N_9  and  C_10
REMARK    5  A    between atoms: C_10  and  C_11
REMARK    6  A    between atoms: C_11  and  N_12
REMARK    7  A    between atoms: C_16  and  C_17
REMARK    8  A    between atoms: C_22  and  C_23
REMARK    9  A    between atoms: C_25  and  O_26
REMARK   10  A    between atoms: O_26  and  C_27
REMARK                            x       y       z     vdW  Elec       q    Type
REMARK                         _______ _______ _______ _____ _____    ______ ____
ROOT
ATOM      1  C   UNL     1       3.032   7.913  18.144  0.00  0.00    +0.000 C 
ENDROOT
BRANCH   1   4
ATOM      2  C   UNL     1       1.517   9.814  18.053  0.00  0.00    +0.000 C 
ATOM      3  O   UNL     1       2.415  10.531  17.627  0.00  0.00    +0.000 OA
ATOM      4  N   UNL     1       1.722   8.478  18.368  0.00  0.00    +0.000 N 
ATOM      5  H   UNL     1       0.942   7.839  18.454  0.00  0.00    +0.000 HD
BRANCH   2   9
ATOM      6  C   UNL     1      -2.387  11.214  18.864  0.00  0.00    +0.000 A 
ATOM      7  C   UNL     1      -2.171  10.537  17.679  0.00  0.00    +0.000 A 
ATOM      8  C   UNL     1      -0.878  10.102  17.395  0.00  0.00    +0.000 A 
ATOM      9  C   UNL     1       0.160  10.357  18.305  0.00  0.00    +0.000 A 
ATOM     10  C   UNL     1      -0.157  11.052  19.475  0.00  0.00    +0.000 A 
ATOM     11  N   UNL     1      -1.409  11.487  19.745  0.00  0.00    +0.000 NA
BRANCH   6  13
ATOM     12  C   UNL     1      -4.611  11.129  18.187  0.00  0.00    +0.000 C 
ATOM     13  O   UNL     1      -3.674  11.619  19.147  0.00  0.00    +0.000 OA
ENDBRANCH   6  13
BRANCH  10  14
ATOM     14  O   UNL     1       0.815  11.347  20.400  0.00  0.00    +0.000 OA
ATOM     15  C   UNL     1       1.219  12.715  20.372  0.00  0.00    +0.000 C 
ENDBRANCH  10  14
ENDBRANCH   2   9
ENDBRANCH   1   4
BRANCH   1  16
ATOM     16  C   UNL     1       3.239   6.509  18.736  0.00  0.00    +0.000 C 
BRANCH  16  17
ATOM     17  N   UNL     1       3.258   5.373  17.786  0.00  0.00    +0.000 NA
ATOM     18  C   UNL     1       4.371   5.411  16.816  0.00  0.00    +0.000 C 
ATOM     19  C   UNL     1       5.712   5.708  17.435  0.00  0.00    +0.000 A 
ATOM     20  C   UNL     1       6.335   6.934  17.148  0.00  0.00    +0.000 A 
ATOM     21  C   UNL     1       7.449   7.365  17.869  0.00  0.00    +0.000 A 
ATOM     22  C   UNL     1       7.966   8.761  17.679  0.00  0.00    +0.000 C 
ATOM     23  C   UNL     1       8.022   6.498  18.804  0.00  0.00    +0.000 A 
ATOM     24  C   UNL     1       7.462   5.236  19.039  0.00  0.00    +0.000 A 
ATOM     25  C   UNL     1       6.288   4.862  18.386  0.00  0.00    +0.000 A 
ATOM     26  O   UNL     1       5.729   3.646  18.694  0.00  0.00    +0.000 OA
ATOM     27  C   UNL     1       4.499   3.792  19.431  0.00  0.00    +0.000 C 
ATOM     28  C   UNL     1       4.256   2.468  20.162  0.00  0.00    +0.000 C 
ATOM     29  C   UNL     1       3.283   4.077  18.509  0.00  0.00    +0.000 C 
ENDBRANCH  16  17
ENDBRANCH   1  16
TORSDOF 6
ENDMDL
MODEL 8
REMARK VINA RESULT:      -7.5      1.756      1.918
REMARK  Name = 
REMARK  10 active torsions:
REMARK  status: ('A' for Active; 'I' for Inactive)
REMARK    1  A    between atoms: C_1  and  O_2
REMARK    2  A    between atoms: O_2  and  C_3
REMARK    3  A    between atoms: C_6  and  C_7
REMARK    4  A    between atoms: N_9  and  C_10
REMARK    5  A    between atoms: C_10  and  C_11
REMARK    6  A    between atoms: C_11  and  N_12
REMARK    7  A    between atoms: C_16  and  C_17
REMARK    8  A    between atoms: C_22  and  C_23
REMARK    9  A    between atoms: C_25  and  O_26
REMARK   10  A    between atoms: O_26  and  C_27
REMARK                            x       y       z     vdW  Elec       q    Type
REMARK                         _______ _______ _______ _____ _____    ______ ____
ROOT
ATOM      1  C   UNL     1       2.824   7.905  17.671  0.00  0.00    +0.000 C 
ENDROOT
BRANCH   1   4
ATOM      2  C   UNL     1       1.631   8.073  19.784  0.00  0.00    +0.000 C 
ATOM      3  O   UNL     1       1.830   6.884  20.009  0.00  0.00    +0.000 OA
ATOM      4  N   UNL     1       2.072   8.690  18.621  0.00  0.00    +0.000 N 
ATOM      5  H   UNL     1       2.147   9.697  18.565  0.00  0.00    +0.000 HD
BRANCH   2   9
ATOM      6  C   UNL     1      -0.444  10.577  22.482  0.00  0.00    +0.000 A 
ATOM      7  C   UNL     1       0.312   9.543  23.003  0.00  0.00    +0.000 A 
ATOM      8  C   UNL     1       0.971   8.697  22.113  0.00  0.00    +0.000 A 
ATOM      9  C   UNL     1       0.855   8.910  20.730  0.00  0.00    +0.000 A 
ATOM     10  C   UNL     1       0.066   9.980  20.301  0.00  0.00    +0.000 A 
ATOM     11  N   UNL     1      -0.586  10.793  21.163  0.00  0.00    +0.000 NA
BRANCH   6  13
ATOM     12  C   UNL     1      -1.168  12.755  22.864  0.00  0.00    +0.000 C 
ATOM     13  O   UNL     1      -1.072  11.422  23.370  0.00  0.00    +0.000 OA
ENDBRANCH   6  13
BRANCH  10  14
ATOM     14  O   UNL     1      -0.101  10.235  18.961  0.00  0.00    +0.000 OA
ATOM     15  C   UNL     1      -1.471  10.263  18.563  0.00  0.00    +0.000 C 
ENDBRANCH  10  14
ENDBRANCH   2   9
ENDBRANCH   1   4
BRANCH   1  16
ATOM     16  C   UNL     1       3.498   6.654  18.259  0.00  0.00    +0.000 C 
BRANCH  16  17
ATOM     17  N   UNL     1       3.679   5.497  17.352  0.00  0.00    +0.000 NA
ATOM     18  C   UNL     1       4.910   5.549  16.538  0.00  0.00    +0.000 C 
ATOM     19  C   UNL     1       6.146   5.906  17.322  0.00  0.00    +0.000 A 
ATOM     20  C   UNL     1       6.765   7.144  17.086  0.00  0.00    +0.000 A 
ATOM     21  C   UNL     1       7.758   7.630  17.936  0.00  0.00    +0.000 A 
ATOM     22  C   UNL     1       8.253   9.038  17.778  0.00  0.00    +0.000 C 
ATOM     23  C   UNL     1       8.227   6.805  18.963  0.00  0.00    +0.000 A 
ATOM     24  C   UNL     1       7.678   5.531  19.157  0.00  0.00    +0.000 A 
ATOM     25  C   UNL     1       6.615   5.102  18.364  0.00  0.00    +0.000 A 
ATOM     26  O   UNL     1       6.057   3.876  18.629  0.00  0.00    +0.000 OA
ATOM     27  C   UNL     1       4.735   3.997  19.191  0.00  0.00    +0.000 C 
ATOM     28  C   UNL     1       4.436   2.684  19.921  0.00  0.00    +0.000 C 
ATOM     29  C   UNL     1       3.645   4.220  18.108  0.00  0.00    +0.000 C 
ENDBRANCH  16  17
ENDBRANCH   1  16
TORSDOF 6
ENDMDL
MODEL 9
REMARK VINA RESULT:      -7.5      1.546      1.958
REMARK  Name = 
REMARK  10 active torsions:
REMARK  status: ('A' for Active; 'I' for Inactive)
REMARK    1  A    between atoms: C_1  and  O_2
REMARK    2  A    between atoms: O_2  and  C_3
REMARK    3  A    between atoms: C_6  and  C_7
REMARK    4  A    between atoms: N_9  and  C_10
REMARK    5  A    between atoms: C_10  and  C_11
REMARK    6  A    between atoms: C_11  and  N_12
REMARK    7  A    between atoms: C_16  and  C_17
REMARK    8  A    between atoms: C_22  and  C_23
REMARK    9  A    between atoms: C_25  and  O_26
REMARK   10  A    between atoms: O_26  and  C_27
REMARK                            x       y       z     vdW  Elec       q    Type
REMARK                         _______ _______ _______ _____ _____    ______ ____
ROOT
ATOM      1  C   UNL     1       2.637   7.764  17.878  0.00  0.00    +0.000 C 
ENDROOT
BRANCH   1   4
ATOM      2  C   UNL     1       1.594   9.843  18.591  0.00  0.00    +0.000 C 
ATOM      3  O   UNL     1       1.901  10.378  17.532  0.00  0.00    +0.000 OA
ATOM      4  N   UNL     1       1.933   8.528  18.881  0.00  0.00    +0.000 N 
ATOM      5  H   UNL     1       1.456   8.019  19.613  0.00  0.00    +0.000 HD
BRANCH   2   9
ATOM      6  C   UNL     1      -0.316  11.941  21.722  0.00  0.00    +0.000 A 
ATOM      7  C   UNL     1      -0.718  10.643  21.467  0.00  0.00    +0.000 A 
ATOM      8  C   UNL     1      -0.112   9.961  20.415  0.00  0.00    +0.000 A 
ATOM      9  C   UNL     1       0.878  10.596  19.649  0.00  0.00    +0.000 A 
ATOM     10  C   UNL     1       1.215  11.910  19.982  0.00  0.00    +0.000 A 
ATOM     11  N   UNL     1       0.617  12.579  20.994  0.00  0.00    +0.000 NA
BRANCH   6  13
ATOM     12  C   UNL     1      -2.153  12.011  23.148  0.00  0.00    +0.000 C 
ATOM     13  O   UNL     1      -0.904  12.599  22.780  0.00  0.00    +0.000 OA
ENDBRANCH   6  13
BRANCH  10  14
ATOM     14  O   UNL     1       2.166  12.594  19.263  0.00  0.00    +0.000 OA
ATOM     15  C   UNL     1       1.776  13.930  18.948  0.00  0.00    +0.000 C 
ENDBRANCH  10  14
ENDBRANCH   2   9
ENDBRANCH   1   4
BRANCH   1  16
ATOM     16  C   UNL     1       3.365   6.519  18.411  0.00  0.00    +0.000 C 
BRANCH  16  17
ATOM     17  N   UNL     1       3.506   5.372  17.484  0.00  0.00    +0.000 NA
ATOM     18  C   UNL     1       4.692   5.442  16.607  0.00  0.00    +0.000 C 
ATOM     19  C   UNL     1       5.966   5.800  17.329  0.00  0.00    +0.000 A 
ATOM     20  C   UNL     1       6.563   7.045  17.073  0.00  0.00    +0.000 A 
ATOM     21  C   UNL     1       7.596   7.530  17.876  0.00  0.00    +0.000 A 
ATOM     22  C   UNL     1       8.072   8.943  17.707  0.00  0.00    +0.000 C 
ATOM     23  C   UNL     1       8.124   6.698  18.868  0.00  0.00    +0.000 A 
ATOM     24  C   UNL     1       7.595   5.417  19.077  0.00  0.00    +0.000 A 
ATOM     25  C   UNL     1       6.494   4.989  18.337  0.00  0.00    +0.000 A 
ATOM     26  O   UNL     1       5.959   3.757  18.617  0.00  0.00    +0.000 OA
ATOM     27  C   UNL     1       4.667   3.862  19.249  0.00  0.00    +0.000 C 
ATOM     28  C   UNL     1       4.417   2.539  19.979  0.00  0.00    +0.000 C 
ATOM     29  C   UNL     1       3.521   4.088  18.227  0.00  0.00    +0.000 C 
ENDBRANCH  16  17
ENDBRANCH   1  16
TORSDOF 6
ENDMDL
