MODEL 1
REMARK VINA RESULT:      -7.7      0.000      0.000
REMARK  Name = 
REMARK  12 active torsions:
REMARK  status: ('A' for Active; 'I' for Inactive)
REMARK    1  A    between atoms: C_1  and  N_2
REMARK    2  A    between atoms: N_2  and  C_3
REMARK    3  A    between atoms: N_2  and  C_16
REMARK    4  A    between atoms: C_3  and  C_4
REMARK    5  A    between atoms: N_6  and  C_7
REMARK    6  A    between atoms: C_10  and  C_11
REMARK    7  A    between atoms: C_11  and  C_12
REMARK    8  A    between atoms: C_16  and  C_17
REMARK    9  A    between atoms: C_17  and  O_18
REMARK   10  A    between atoms: C_17  and  C_19
REMARK   11  A    between atoms: C_19  and  N_20
REMARK   12  A    between atoms: N_29  and  C_30
REMARK                            x       y       z     vdW  Elec       q    Type
REMARK                         _______ _______ _______ _____ _____    ______ ____
ROOT
ATOM      1  C   UNL     1       1.981   4.345  18.932  0.00  0.00    +0.000 C 
ENDROOT
BRANCH   1   3
ATOM      2  C   UNL     1       2.002   4.885  21.282  0.00  0.00    +0.000 C 
ATOM      3  N   UNL     1       1.736   5.423  19.938  0.00  0.00    +0.000 NA
BRANCH   3   4
ATOM      4  C   UNL     1       2.519   6.661  19.693  0.00  0.00    +0.000 C 
BRANCH   4   5
ATOM      5  C   UNL     1       1.774   7.915  20.064  0.00  0.00    +0.000 C 
ATOM      6  O   UNL     1       1.485   8.719  19.189  0.00  0.00    +0.000 OA
ATOM      7  N   UNL     1       1.399   8.128  21.351  0.00  0.00    +0.000 N 
ATOM      8  H   UNL     1       1.607   7.424  22.075  0.00  0.00    +0.000 HD
BRANCH   7   9
ATOM      9  C   UNL     1       0.673   9.282  21.730  0.00  0.00    +0.000 A 
ATOM     10  C   UNL     1      -0.127   9.259  22.878  0.00  0.00    +0.000 A 
ATOM     11  C   UNL     1      -0.839  10.398  23.253  0.00  0.00    +0.000 A 
ATOM     12  C   UNL     1      -0.749  11.573  22.485  0.00  0.00    +0.000 A 
ATOM     13  C   UNL     1       0.047  11.588  21.331  0.00  0.00    +0.000 A 
ATOM     14  C   UNL     1       0.754  10.444  20.954  0.00  0.00    +0.000 A 
BRANCH  12  15
ATOM     15  C   UNL     1      -1.506  12.794  22.906  0.00  0.00    +0.000 C 
BRANCH  15  16
ATOM     16  C   UNL     1      -2.859  12.387  23.468  0.00  0.00    +0.000 C 
ATOM     17  N   UNL     1      -3.980  12.049  23.934  0.00  0.00    +0.000 NA
ENDBRANCH  15  16
ENDBRANCH  12  15
ENDBRANCH   7   9
ENDBRANCH   4   5
ENDBRANCH   3   4
ENDBRANCH   1   3
BRANCH   1  18
ATOM     18  C   UNL     1       2.541   3.072  19.574  0.00  0.00    +0.000 C 
BRANCH  18  19
ATOM     19  O   UNL     1       2.001   1.899  19.021  0.00  0.00    +0.000 OA
ATOM     20  H   UNL     1       1.029   1.903  19.195  0.00  0.00    +0.000 HD
ENDBRANCH  18  19
BRANCH  18  21
ATOM     21  C   UNL     1       4.105   2.911  19.661  0.00  0.00    +0.000 C 
BRANCH  21  22
ATOM     22  N   UNL     1       4.698   3.634  18.502  0.00  0.00    +0.000 N 
ATOM     23  C   UNL     1       4.638   3.177  17.185  0.00  0.00    +0.000 A 
ATOM     24  O   UNL     1       3.933   2.206  16.909  0.00  0.00    +0.000 OA
ATOM     25  C   UNL     1       5.417   3.793  16.188  0.00  0.00    +0.000 A 
ATOM     26  C   UNL     1       5.374   3.422  14.824  0.00  0.00    +0.000 A 
ATOM     27  C   UNL     1       6.198   4.072  13.889  0.00  0.00    +0.000 A 
ATOM     28  C   UNL     1       7.071   5.076  14.288  0.00  0.00    +0.000 A 
ATOM     29  C   UNL     1       7.169   5.411  15.636  0.00  0.00    +0.000 A 
ATOM     30  C   UNL     1       6.339   4.785  16.579  0.00  0.00    +0.000 A 
ATOM     31  N   UNL     1       6.433   5.110  17.900  0.00  0.00    +0.000 N 
ATOM     32  C   UNL     1       7.734   5.452  18.497  0.00  0.00    +0.000 C 
ATOM     33  C   UNL     1       5.499   4.717  18.794  0.00  0.00    +0.000 A 
ATOM     34  O   UNL     1       5.487   5.244  19.905  0.00  0.00    +0.000 OA
ENDBRANCH  21  22
ENDBRANCH  18  21
ENDBRANCH   1  18
TORSDOF 10
ENDMDL
MODEL 2
REMARK VINA RESULT:      -7.3      2.520     10.714
REMARK  Name = 
REMARK  12 active torsions:
REMARK  status: ('A' for Active; 'I' for Inactive)
REMARK    1  A    between atoms: C_1  and  N_2
REMARK    2  A    between atoms: N_2  and  C_3
REMARK    3  A    between atoms: N_2  and  C_16
REMARK    4  A    between atoms: C_3  and  C_4
REMARK    5  A    between atoms: N_6  and  C_7
REMARK    6  A    between atoms: C_10  and  C_11
REMARK    7  A    between atoms: C_11  and  C_12
REMARK    8  A    between atoms: C_16  and  C_17
REMARK    9  A    between atoms: C_17  and  O_18
REMARK   10  A    between atoms: C_17  and  C_19
REMARK   11  A    between atoms: C_19  and  N_20
REMARK   12  A    between atoms: N_29  and  C_30
REMARK                            x       y       z     vdW  Elec       q    Type
REMARK                         _______ _______ _______ _____ _____    ______ ____
ROOT
ATOM      1  C   UNL     1       1.483   7.290  21.202  0.00  0.00    +0.000 C 
ENDROOT
BRANCH   1   3
ATOM      2  C   UNL     1       2.254   7.720  18.958  0.00  0.00    +0.000 C 
ATOM      3  N   UNL     1       1.803   6.667  19.882  0.00  0.00    +0.000 NA
BRANCH   3   4
ATOM      4  C   UNL     1       2.797   5.566  19.964  0.00  0.00    +0.000 C 
BRANCH   4   5
ATOM      5  C   UNL     1       3.290   5.113  18.617  0.00  0.00    +0.000 C 
ATOM      6  O   UNL     1       2.544   4.468  17.893  0.00  0.00    +0.000 OA
ATOM      7  N   UNL     1       4.538   5.448  18.200  0.00  0.00    +0.000 N 
ATOM      8  H   UNL     1       5.145   6.029  18.798  0.00  0.00    +0.000 HD
BRANCH   7   9
ATOM      9  C   UNL     1       5.023   5.063  16.929  0.00  0.00    +0.000 A 
ATOM     10  C   UNL     1       5.375   3.730  16.689  0.00  0.00    +0.000 A 
ATOM     11  C   UNL     1       5.849   3.350  15.433  0.00  0.00    +0.000 A 
ATOM     12  C   UNL     1       5.966   4.301  14.404  0.00  0.00    +0.000 A 
ATOM     13  C   UNL     1       5.619   5.637  14.652  0.00  0.00    +0.000 A 
ATOM     14  C   UNL     1       5.152   6.016  15.912  0.00  0.00    +0.000 A 
BRANCH  12  15
ATOM     15  C   UNL     1       6.461   3.879  13.055  0.00  0.00    +0.000 C 
BRANCH  15  16
ATOM     16  C   UNL     1       5.280   3.491  12.179  0.00  0.00    +0.000 C 
ATOM     17  N   UNL     1       4.302   3.169  11.452  0.00  0.00    +0.000 NA
ENDBRANCH  15  16
ENDBRANCH  12  15
ENDBRANCH   7   9
ENDBRANCH   4   5
ENDBRANCH   3   4
ENDBRANCH   1   3
BRANCH   1  18
ATOM     18  C   UNL     1       0.585   8.523  21.056  0.00  0.00    +0.000 C 
BRANCH  18  19
ATOM     19  O   UNL     1      -0.660   8.368  21.688  0.00  0.00    +0.000 OA
ATOM     20  H   UNL     1      -1.279   7.956  21.038  0.00  0.00    +0.000 HD
ENDBRANCH  18  19
BRANCH  18  21
ATOM     21  C   UNL     1       1.179   9.925  21.457  0.00  0.00    +0.000 C 
BRANCH  21  22
ATOM     22  N   UNL     1       0.081  10.926  21.354  0.00  0.00    +0.000 N 
ATOM     23  C   UNL     1      -0.789  11.239  22.398  0.00  0.00    +0.000 A 
ATOM     24  O   UNL     1      -0.573  10.793  23.525  0.00  0.00    +0.000 OA
ATOM     25  C   UNL     1      -1.935  12.018  22.153  0.00  0.00    +0.000 A 
ATOM     26  C   UNL     1      -2.838  12.418  23.165  0.00  0.00    +0.000 A 
ATOM     27  C   UNL     1      -3.972  13.181  22.839  0.00  0.00    +0.000 A 
ATOM     28  C   UNL     1      -4.230  13.543  21.523  0.00  0.00    +0.000 A 
ATOM     29  C   UNL     1      -3.384  13.105  20.507  0.00  0.00    +0.000 A 
ATOM     30  C   UNL     1      -2.237  12.360  20.819  0.00  0.00    +0.000 A 
ATOM     31  N   UNL     1      -1.406  11.929  19.827  0.00  0.00    +0.000 N 
ATOM     32  C   UNL     1      -1.948  11.530  18.518  0.00  0.00    +0.000 C 
ATOM     33  C   UNL     1      -0.181  11.428  20.097  0.00  0.00    +0.000 A 
ATOM     34  O   UNL     1       0.620  11.299  19.173  0.00  0.00    +0.000 OA
ENDBRANCH  21  22
ENDBRANCH  18  21
ENDBRANCH   1  18
TORSDOF 10
ENDMDL
MODEL 3
REMARK VINA RESULT:      -7.3      3.753     10.747
REMARK  Name = 
REMARK  12 active torsions:
REMARK  status: ('A' for Active; 'I' for Inactive)
REMARK    1  A    between atoms: C_1  and  N_2
REMARK    2  A    between atoms: N_2  and  C_3
REMARK    3  A    between atoms: N_2  and  C_16
REMARK    4  A    between atoms: C_3  and  C_4
REMARK    5  A    between atoms: N_6  and  C_7
REMARK    6  A    between atoms: C_10  and  C_11
REMARK    7  A    between atoms: C_11  and  C_12
REMARK    8  A    between atoms: C_16  and  C_17
REMARK    9  A    between atoms: C_17  and  O_18
REMARK   10  A    between atoms: C_17  and  C_19
REMARK   11  A    between atoms: C_19  and  N_20
REMARK   12  A    between atoms: N_29  and  C_30
REMARK                            x       y       z     vdW  Elec       q    Type
REMARK                         _______ _______ _______ _____ _____    ______ ____
ROOT
ATOM      1  C   UNL     1       0.739  10.794  21.461  0.00  0.00    +0.000 C 
ENDROOT
BRANCH   1   3
ATOM      2  C   UNL     1      -0.158   8.570  21.201  0.00  0.00    +0.000 C 
ATOM      3  N   UNL     1       0.865   9.508  20.710  0.00  0.00    +0.000 NA
BRANCH   3   4
ATOM      4  C   UNL     1       0.781   9.665  19.235  0.00  0.00    +0.000 C 
BRANCH   4   5
ATOM      5  C   UNL     1       1.661   8.701  18.487  0.00  0.00    +0.000 C 
ATOM      6  O   UNL     1       1.853   8.871  17.292  0.00  0.00    +0.000 OA
ATOM      7  N   UNL     1       2.260   7.675  19.145  0.00  0.00    +0.000 N 
ATOM      8  H   UNL     1       2.129   7.565  20.162  0.00  0.00    +0.000 HD
BRANCH   7   9
ATOM      9  C   UNL     1       3.116   6.767  18.479  0.00  0.00    +0.000 A 
ATOM     10  C   UNL     1       2.665   5.479  18.171  0.00  0.00    +0.000 A 
ATOM     11  C   UNL     1       3.508   4.585  17.511  0.00  0.00    +0.000 A 
ATOM     12  C   UNL     1       4.808   4.979  17.144  0.00  0.00    +0.000 A 
ATOM     13  C   UNL     1       5.257   6.268  17.462  0.00  0.00    +0.000 A 
ATOM     14  C   UNL     1       4.414   7.158  18.130  0.00  0.00    +0.000 A 
BRANCH  12  15
ATOM     15  C   UNL     1       5.699   4.016  16.421  0.00  0.00    +0.000 C 
BRANCH  15  16
ATOM     16  C   UNL     1       5.488   4.156  14.922  0.00  0.00    +0.000 C 
ATOM     17  N   UNL     1       5.313   4.272  13.679  0.00  0.00    +0.000 NA
ENDBRANCH  15  16
ENDBRANCH  12  15
ENDBRANCH   7   9
ENDBRANCH   4   5
ENDBRANCH   3   4
ENDBRANCH   1   3
BRANCH   1  18
ATOM     18  C   UNL     1      -0.699  11.324  21.461  0.00  0.00    +0.000 C 
BRANCH  18  19
ATOM     19  O   UNL     1      -1.272  11.346  22.744  0.00  0.00    +0.000 OA
ATOM     20  H   UNL     1      -0.539  11.441  23.400  0.00  0.00    +0.000 HD
ENDBRANCH  18  19
BRANCH  18  21
ATOM     21  C   UNL     1      -0.980  12.707  20.764  0.00  0.00    +0.000 C 
BRANCH  21  22
ATOM     22  N   UNL     1      -2.231  12.565  19.967  0.00  0.00    +0.000 N 
ATOM     23  C   UNL     1      -3.513  12.666  20.505  0.00  0.00    +0.000 A 
ATOM     24  O   UNL     1      -3.657  13.041  21.669  0.00  0.00    +0.000 OA
ATOM     25  C   UNL     1      -4.633  12.292  19.738  0.00  0.00    +0.000 A 
ATOM     26  C   UNL     1      -5.965  12.411  20.194  0.00  0.00    +0.000 A 
ATOM     27  C   UNL     1      -7.031  11.999  19.377  0.00  0.00    +0.000 A 
ATOM     28  C   UNL     1      -6.795  11.459  18.119  0.00  0.00    +0.000 A 
ATOM     29  C   UNL     1      -5.485  11.278  17.681  0.00  0.00    +0.000 A 
ATOM     30  C   UNL     1      -4.411  11.704  18.477  0.00  0.00    +0.000 A 
ATOM     31  N   UNL     1      -3.127  11.528  18.051  0.00  0.00    +0.000 N 
ATOM     32  C   UNL     1      -2.755  10.341  17.265  0.00  0.00    +0.000 C 
ATOM     33  C   UNL     1      -2.088  12.135  18.665  0.00  0.00    +0.000 A 
ATOM     34  O   UNL     1      -0.998  12.156  18.097  0.00  0.00    +0.000 OA
ENDBRANCH  21  22
ENDBRANCH  18  21
ENDBRANCH   1  18
TORSDOF 10
ENDMDL
MODEL 4
REMARK VINA RESULT:      -7.2      1.215      1.584
REMARK  Name = 
REMARK  12 active torsions:
REMARK  status: ('A' for Active; 'I' for Inactive)
REMARK    1  A    between atoms: C_1  and  N_2
REMARK    2  A    between atoms: N_2  and  C_3
REMARK    3  A    between atoms: N_2  and  C_16
REMARK    4  A    between atoms: C_3  and  C_4
REMARK    5  A    between atoms: N_6  and  C_7
REMARK    6  A    between atoms: C_10  and  C_11
REMARK    7  A    between atoms: C_11  and  C_12
REMARK    8  A    between atoms: C_16  and  C_17
REMARK    9  A    between atoms: C_17  and  O_18
REMARK   10  A    between atoms: C_17  and  C_19
REMARK   11  A    between atoms: C_19  and  N_20
REMARK   12  A    between atoms: N_29  and  C_30
REMARK                            x       y       z     vdW  Elec       q    Type
REMARK                         _______ _______ _______ _____ _____    ______ ____
ROOT
ATOM      1  C   UNL     1       2.498   6.416  19.032  0.00  0.00    +0.000 C 
ENDROOT
BRANCH   1   3
ATOM      2  C   UNL     1       1.549   7.092  21.144  0.00  0.00    +0.000 C 
ATOM      3  N   UNL     1       1.538   7.350  19.696  0.00  0.00    +0.000 NA
BRANCH   3   4
ATOM      4  C   UNL     1       1.799   8.783  19.406  0.00  0.00    +0.000 C 
BRANCH   4   5
ATOM      5  C   UNL     1       0.763   9.704  19.992  0.00  0.00    +0.000 C 
ATOM      6  O   UNL     1      -0.289   9.879  19.393  0.00  0.00    +0.000 OA
ATOM      7  N   UNL     1       0.985  10.304  21.190  0.00  0.00    +0.000 N 
ATOM      8  H   UNL     1       1.855  10.116  21.710  0.00  0.00    +0.000 HD
BRANCH   7   9
ATOM      9  C   UNL     1       0.021  11.152  21.783  0.00  0.00    +0.000 A 
ATOM     10  C   UNL     1      -0.887  10.634  22.715  0.00  0.00    +0.000 A 
ATOM     11  C   UNL     1      -1.835  11.472  23.302  0.00  0.00    +0.000 A 
ATOM     12  C   UNL     1      -1.875  12.838  22.969  0.00  0.00    +0.000 A 
ATOM     13  C   UNL     1      -0.969  13.349  22.030  0.00  0.00    +0.000 A 
ATOM     14  C   UNL     1      -0.026  12.507  21.438  0.00  0.00    +0.000 A 
BRANCH  12  15
ATOM     15  C   UNL     1      -2.887  13.730  23.618  0.00  0.00    +0.000 C 
BRANCH  15  16
ATOM     16  C   UNL     1      -4.275  13.135  23.447  0.00  0.00    +0.000 C 
ATOM     17  N   UNL     1      -5.427  12.641  23.305  0.00  0.00    +0.000 NA
ENDBRANCH  15  16
ENDBRANCH  12  15
ENDBRANCH   7   9
ENDBRANCH   4   5
ENDBRANCH   3   4
ENDBRANCH   1   3
BRANCH   1  18
ATOM     18  C   UNL     1       2.368   4.984  19.561  0.00  0.00    +0.000 C 
BRANCH  18  19
ATOM     19  O   UNL     1       1.316   4.274  18.958  0.00  0.00    +0.000 OA
ATOM     20  H   UNL     1       0.754   4.924  18.470  0.00  0.00    +0.000 HD
ENDBRANCH  18  19
BRANCH  18  21
ATOM     21  C   UNL     1       3.652   4.073  19.561  0.00  0.00    +0.000 C 
BRANCH  21  22
ATOM     22  N   UNL     1       4.468   4.443  18.371  0.00  0.00    +0.000 N 
ATOM     23  C   UNL     1       4.183   4.027  17.071  0.00  0.00    +0.000 A 
ATOM     24  O   UNL     1       3.123   3.447  16.835  0.00  0.00    +0.000 OA
ATOM     25  C   UNL     1       5.125   4.224  16.044  0.00  0.00    +0.000 A 
ATOM     26  C   UNL     1       4.892   3.876  14.694  0.00  0.00    +0.000 A 
ATOM     27  C   UNL     1       5.889   4.086  13.727  0.00  0.00    +0.000 A 
ATOM     28  C   UNL     1       7.119   4.626  14.081  0.00  0.00    +0.000 A 
ATOM     29  C   UNL     1       7.387   4.917  15.416  0.00  0.00    +0.000 A 
ATOM     30  C   UNL     1       6.393   4.731  16.390  0.00  0.00    +0.000 A 
ATOM     31  N   UNL     1       6.652   5.016  17.699  0.00  0.00    +0.000 N 
ATOM     32  C   UNL     1       7.989   4.779  18.266  0.00  0.00    +0.000 C 
ATOM     33  C   UNL     1       5.664   5.083  18.618  0.00  0.00    +0.000 A 
ATOM     34  O   UNL     1       5.908   5.590  19.710  0.00  0.00    +0.000 OA
ENDBRANCH  21  22
ENDBRANCH  18  21
ENDBRANCH   1  18
TORSDOF 10
ENDMDL
MODEL 5
REMARK VINA RESULT:      -7.1      4.561      7.693
REMARK  Name = 
REMARK  12 active torsions:
REMARK  status: ('A' for Active; 'I' for Inactive)
REMARK    1  A    between atoms: C_1  and  N_2
REMARK    2  A    between atoms: N_2  and  C_3
REMARK    3  A    between atoms: N_2  and  C_16
REMARK    4  A    between atoms: C_3  and  C_4
REMARK    5  A    between atoms: N_6  and  C_7
REMARK    6  A    between atoms: C_10  and  C_11
REMARK    7  A    between atoms: C_11  and  C_12
REMARK    8  A    between atoms: C_16  and  C_17
REMARK    9  A    between atoms: C_17  and  O_18
REMARK   10  A    between atoms: C_17  and  C_19
REMARK   11  A    between atoms: C_19  and  N_20
REMARK   12  A    between atoms: N_29  and  C_30
REMARK                            x       y       z     vdW  Elec       q    Type
REMARK                         _______ _______ _______ _____ _____    ______ ____
ROOT
ATOM      1  C   UNL     1       6.060   5.598  19.256  0.00  0.00    +0.000 C 
ENDROOT
BRANCH   1   3
ATOM      2  C   UNL     1       8.419   5.107  19.155  0.00  0.00    +0.000 C 
ATOM      3  N   UNL     1       7.421   6.184  19.064  0.00  0.00    +0.000 NA
BRANCH   3   4
ATOM      4  C   UNL     1       7.571   6.946  17.797  0.00  0.00    +0.000 C 
BRANCH   4   5
ATOM      5  C   UNL     1       7.943   8.388  18.015  0.00  0.00    +0.000 C 
ATOM      6  O   UNL     1       7.333   9.261  17.413  0.00  0.00    +0.000 OA
ATOM      7  N   UNL     1       8.923   8.712  18.898  0.00  0.00    +0.000 N 
ATOM      8  H   UNL     1       9.402   7.973  19.435  0.00  0.00    +0.000 HD
BRANCH   7   9
ATOM      9  C   UNL     1       9.278  10.058  19.148  0.00  0.00    +0.000 A 
ATOM     10  C   UNL     1       9.258  10.555  20.457  0.00  0.00    +0.000 A 
ATOM     11  C   UNL     1       9.613  11.881  20.703  0.00  0.00    +0.000 A 
ATOM     12  C   UNL     1      10.000  12.719  19.642  0.00  0.00    +0.000 A 
ATOM     13  C   UNL     1      10.010  12.218  18.332  0.00  0.00    +0.000 A 
ATOM     14  C   UNL     1       9.648  10.893  18.087  0.00  0.00    +0.000 A 
BRANCH  12  15
ATOM     15  C   UNL     1      10.393  14.136  19.921  0.00  0.00    +0.000 C 
BRANCH  15  16
ATOM     16  C   UNL     1       9.984  14.509  21.337  0.00  0.00    +0.000 C 
ATOM     17  N   UNL     1       9.645  14.818  22.512  0.00  0.00    +0.000 NA
ENDBRANCH  15  16
ENDBRANCH  12  15
ENDBRANCH   7   9
ENDBRANCH   4   5
ENDBRANCH   3   4
ENDBRANCH   1   3
BRANCH   1  18
ATOM     18  C   UNL     1       5.817   4.391  18.344  0.00  0.00    +0.000 C 
BRANCH  18  19
ATOM     19  O   UNL     1       5.661   3.191  19.058  0.00  0.00    +0.000 OA
ATOM     20  H   UNL     1       5.696   2.447  18.409  0.00  0.00    +0.000 HD
ENDBRANCH  18  19
BRANCH  18  21
ATOM     21  C   UNL     1       4.668   4.489  17.273  0.00  0.00    +0.000 C 
BRANCH  21  22
ATOM     22  N   UNL     1       3.636   5.424  17.801  0.00  0.00    +0.000 N 
ATOM     23  C   UNL     1       3.575   6.780  17.480  0.00  0.00    +0.000 A 
ATOM     24  O   UNL     1       4.305   7.230  16.596  0.00  0.00    +0.000 OA
ATOM     25  C   UNL     1       2.718   7.637  18.196  0.00  0.00    +0.000 A 
ATOM     26  C   UNL     1       2.563   9.010  17.898  0.00  0.00    +0.000 A 
ATOM     27  C   UNL     1       1.702   9.808  18.672  0.00  0.00    +0.000 A 
ATOM     28  C   UNL     1       1.003   9.266  19.742  0.00  0.00    +0.000 A 
ATOM     29  C   UNL     1       1.192   7.930  20.086  0.00  0.00    +0.000 A 
ATOM     30  C   UNL     1       2.033   7.116  19.311  0.00  0.00    +0.000 A 
ATOM     31  N   UNL     1       2.220   5.807  19.645  0.00  0.00    +0.000 N 
ATOM     32  C   UNL     1       2.247   5.391  21.056  0.00  0.00    +0.000 C 
ATOM     33  C   UNL     1       2.817   4.939  18.799  0.00  0.00    +0.000 A 
ATOM     34  O   UNL     1       2.731   3.735  19.031  0.00  0.00    +0.000 OA
ENDBRANCH  21  22
ENDBRANCH  18  21
ENDBRANCH   1  18
TORSDOF 10
ENDMDL
MODEL 6
REMARK VINA RESULT:      -7.1      3.367     10.707
REMARK  Name = 
REMARK  12 active torsions:
REMARK  status: ('A' for Active; 'I' for Inactive)
REMARK    1  A    between atoms: C_1  and  N_2
REMARK    2  A    between atoms: N_2  and  C_3
REMARK    3  A    between atoms: N_2  and  C_16
REMARK    4  A    between atoms: C_3  and  C_4
REMARK    5  A    between atoms: N_6  and  C_7
REMARK    6  A    between atoms: C_10  and  C_11
REMARK    7  A    between atoms: C_11  and  C_12
REMARK    8  A    between atoms: C_16  and  C_17
REMARK    9  A    between atoms: C_17  and  O_18
REMARK   10  A    between atoms: C_17  and  C_19
REMARK   11  A    between atoms: C_19  and  N_20
REMARK   12  A    between atoms: N_29  and  C_30
REMARK                            x       y       z     vdW  Elec       q    Type
REMARK                         _______ _______ _______ _____ _____    ______ ____
ROOT
ATOM      1  C   UNL     1      -0.088   9.978  20.498  0.00  0.00    +0.000 C 
ENDROOT
BRANCH   1   3
ATOM      2  C   UNL     1       0.003   9.720  22.895  0.00  0.00    +0.000 C 
ATOM      3  N   UNL     1       0.616   9.295  21.626  0.00  0.00    +0.000 NA
BRANCH   3   4
ATOM      4  C   UNL     1       0.633   7.814  21.511  0.00  0.00    +0.000 C 
BRANCH   4   5
ATOM      5  C   UNL     1       1.565   7.314  20.441  0.00  0.00    +0.000 C 
ATOM      6  O   UNL     1       2.042   8.110  19.644  0.00  0.00    +0.000 OA
ATOM      7  N   UNL     1       1.897   5.999  20.387  0.00  0.00    +0.000 N 
ATOM      8  H   UNL     1       1.526   5.341  21.090  0.00  0.00    +0.000 HD
BRANCH   7   9
ATOM      9  C   UNL     1       2.793   5.500  19.413  0.00  0.00    +0.000 A 
ATOM     10  C   UNL     1       2.297   4.909  18.245  0.00  0.00    +0.000 A 
ATOM     11  C   UNL     1       3.181   4.421  17.282  0.00  0.00    +0.000 A 
ATOM     12  C   UNL     1       4.569   4.530  17.477  0.00  0.00    +0.000 A 
ATOM     13  C   UNL     1       5.060   5.117  18.652  0.00  0.00    +0.000 A 
ATOM     14  C   UNL     1       4.174   5.597  19.617  0.00  0.00    +0.000 A 
BRANCH  12  15
ATOM     15  C   UNL     1       5.508   4.018  16.429  0.00  0.00    +0.000 C 
BRANCH  15  16
ATOM     16  C   UNL     1       6.569   5.068  16.138  0.00  0.00    +0.000 C 
ATOM     17  N   UNL     1       7.448   5.939  15.897  0.00  0.00    +0.000 NA
ENDBRANCH  15  16
ENDBRANCH  12  15
ENDBRANCH   7   9
ENDBRANCH   4   5
ENDBRANCH   3   4
ENDBRANCH   1   3
BRANCH   1  18
ATOM     18  C   UNL     1      -0.071  11.504  20.648  0.00  0.00    +0.000 C 
BRANCH  18  19
ATOM     19  O   UNL     1       1.129  11.984  21.198  0.00  0.00    +0.000 OA
ATOM     20  H   UNL     1       1.624  11.211  21.563  0.00  0.00    +0.000 HD
ENDBRANCH  18  19
BRANCH  18  21
ATOM     21  C   UNL     1      -0.429  12.377  19.388  0.00  0.00    +0.000 C 
BRANCH  21  22
ATOM     22  N   UNL     1      -1.904  12.308  19.195  0.00  0.00    +0.000 N 
ATOM     23  C   UNL     1      -2.835  12.752  20.134  0.00  0.00    +0.000 A 
ATOM     24  O   UNL     1      -2.451  13.379  21.122  0.00  0.00    +0.000 OA
ATOM     25  C   UNL     1      -4.199  12.442  19.978  0.00  0.00    +0.000 A 
ATOM     26  C   UNL     1      -5.207  12.896  20.858  0.00  0.00    +0.000 A 
ATOM     27  C   UNL     1      -6.547  12.529  20.648  0.00  0.00    +0.000 A 
ATOM     28  C   UNL     1      -6.900  11.708  19.584  0.00  0.00    +0.000 A 
ATOM     29  C   UNL     1      -5.910  11.202  18.745  0.00  0.00    +0.000 A 
ATOM     30  C   UNL     1      -4.570  11.576  18.930  0.00  0.00    +0.000 A 
ATOM     31  N   UNL     1      -3.599  11.083  18.110  0.00  0.00    +0.000 N 
ATOM     32  C   UNL     1      -3.689   9.711  17.584  0.00  0.00    +0.000 C 
ATOM     33  C   UNL     1      -2.351  11.600  18.099  0.00  0.00    +0.000 A 
ATOM     34  O   UNL     1      -1.597  11.303  17.175  0.00  0.00    +0.000 OA
ENDBRANCH  21  22
ENDBRANCH  18  21
ENDBRANCH   1  18
TORSDOF 10
ENDMDL
MODEL 7
REMARK VINA RESULT:      -7.1      4.524      7.457
REMARK  Name = 
REMARK  12 active torsions:
REMARK  status: ('A' for Active; 'I' for Inactive)
REMARK    1  A    between atoms: C_1  and  N_2
REMARK    2  A    between atoms: N_2  and  C_3
REMARK    3  A    between atoms: N_2  and  C_16
REMARK    4  A    between atoms: C_3  and  C_4
REMARK    5  A    between atoms: N_6  and  C_7
REMARK    6  A    between atoms: C_10  and  C_11
REMARK    7  A    between atoms: C_11  and  C_12
REMARK    8  A    between atoms: C_16  and  C_17
REMARK    9  A    between atoms: C_17  and  O_18
REMARK   10  A    between atoms: C_17  and  C_19
REMARK   11  A    between atoms: C_19  and  N_20
REMARK   12  A    between atoms: N_29  and  C_30
REMARK                            x       y       z     vdW  Elec       q    Type
REMARK                         _______ _______ _______ _____ _____    ______ ____
ROOT
ATOM      1  C   UNL     1       7.139   5.009  17.806  0.00  0.00    +0.000 C 
ENDROOT
BRANCH   1   3
ATOM      2  C   UNL     1       8.218   6.264  19.560  0.00  0.00    +0.000 C 
ATOM      3  N   UNL     1       7.351   6.374  18.376  0.00  0.00    +0.000 NA
BRANCH   3   4
ATOM      4  C   UNL     1       7.899   7.353  17.402  0.00  0.00    +0.000 C 
BRANCH   4   5
ATOM      5  C   UNL     1       8.091   8.725  17.987  0.00  0.00    +0.000 C 
ATOM      6  O   UNL     1       7.246   9.586  17.782  0.00  0.00    +0.000 OA
ATOM      7  N   UNL     1       9.175   8.990  18.760  0.00  0.00    +0.000 N 
ATOM      8  H   UNL     1       9.860   8.247  18.964  0.00  0.00    +0.000 HD
BRANCH   7   9
ATOM      9  C   UNL     1       9.373  10.261  19.349  0.00  0.00    +0.000 A 
ATOM     10  C   UNL     1       9.034  10.470  20.691  0.00  0.00    +0.000 A 
ATOM     11  C   UNL     1       9.233  11.722  21.272  0.00  0.00    +0.000 A 
ATOM     12  C   UNL     1       9.781  12.774  20.516  0.00  0.00    +0.000 A 
ATOM     13  C   UNL     1      10.111  12.561  19.170  0.00  0.00    +0.000 A 
ATOM     14  C   UNL     1       9.904  11.309  18.588  0.00  0.00    +0.000 A 
BRANCH  12  15
ATOM     15  C   UNL     1      10.005  14.109  21.155  0.00  0.00    +0.000 C 
BRANCH  15  16
ATOM     16  C   UNL     1       8.905  14.378  22.171  0.00  0.00    +0.000 C 
ATOM     17  N   UNL     1       7.994  14.601  23.013  0.00  0.00    +0.000 NA
ENDBRANCH  15  16
ENDBRANCH  12  15
ENDBRANCH   7   9
ENDBRANCH   4   5
ENDBRANCH   3   4
ENDBRANCH   1   3
BRANCH   1  18
ATOM     18  C   UNL     1       6.592   5.061  16.375  0.00  0.00    +0.000 C 
BRANCH  18  19
ATOM     19  O   UNL     1       7.565   4.758  15.408  0.00  0.00    +0.000 OA
ATOM     20  H   UNL     1       7.096   4.487  14.583  0.00  0.00    +0.000 HD
ENDBRANCH  18  19
BRANCH  18  21
ATOM     21  C   UNL     1       5.290   4.238  16.049  0.00  0.00    +0.000 C 
BRANCH  21  22
ATOM     22  N   UNL     1       4.246   4.634  17.034  0.00  0.00    +0.000 N 
ATOM     23  C   UNL     1       3.909   5.956  17.323  0.00  0.00    +0.000 A 
ATOM     24  O   UNL     1       4.371   6.867  16.636  0.00  0.00    +0.000 OA
ATOM     25  C   UNL     1       3.084   6.250  18.425  0.00  0.00    +0.000 A 
ATOM     26  C   UNL     1       2.658   7.558  18.754  0.00  0.00    +0.000 A 
ATOM     27  C   UNL     1       1.849   7.774  19.883  0.00  0.00    +0.000 A 
ATOM     28  C   UNL     1       1.467   6.716  20.697  0.00  0.00    +0.000 A 
ATOM     29  C   UNL     1       1.929   5.431  20.422  0.00  0.00    +0.000 A 
ATOM     30  C   UNL     1       2.721   5.196  19.287  0.00  0.00    +0.000 A 
ATOM     31  N   UNL     1       3.175   3.939  19.014  0.00  0.00    +0.000 N 
ATOM     32  C   UNL     1       3.543   3.023  20.106  0.00  0.00    +0.000 C 
ATOM     33  C   UNL     1       3.725   3.628  17.820  0.00  0.00    +0.000 A 
ATOM     34  O   UNL     1       3.878   2.443  17.531  0.00  0.00    +0.000 OA
ENDBRANCH  21  22
ENDBRANCH  18  21
ENDBRANCH   1  18
TORSDOF 10
ENDMDL
MODEL 8
REMARK VINA RESULT:      -7.1      2.649      5.471
REMARK  Name = 
REMARK  12 active torsions:
REMARK  status: ('A' for Active; 'I' for Inactive)
REMARK    1  A    between atoms: C_1  and  N_2
REMARK    2  A    between atoms: N_2  and  C_3
REMARK    3  A    between atoms: N_2  and  C_16
REMARK    4  A    between atoms: C_3  and  C_4
REMARK    5  A    between atoms: N_6  and  C_7
REMARK    6  A    between atoms: C_10  and  C_11
REMARK    7  A    between atoms: C_11  and  C_12
REMARK    8  A    between atoms: C_16  and  C_17
REMARK    9  A    between atoms: C_17  and  O_18
REMARK   10  A    between atoms: C_17  and  C_19
REMARK   11  A    between atoms: C_19  and  N_20
REMARK   12  A    between atoms: N_29  and  C_30
REMARK                            x       y       z     vdW  Elec       q    Type
REMARK                         _______ _______ _______ _____ _____    ______ ____
ROOT
ATOM      1  C   UNL     1       0.350  10.294  18.968  0.00  0.00    +0.000 C 
ENDROOT
BRANCH   1   3
ATOM      2  C   UNL     1       0.508  12.699  19.044  0.00  0.00    +0.000 C 
ATOM      3  N   UNL     1       1.072  11.450  19.581  0.00  0.00    +0.000 NA
BRANCH   3   4
ATOM      4  C   UNL     1       1.052  11.449  21.066  0.00  0.00    +0.000 C 
BRANCH   4   5
ATOM      5  C   UNL     1      -0.098  12.228  21.643  0.00  0.00    +0.000 C 
ATOM      6  O   UNL     1       0.109  13.333  22.125  0.00  0.00    +0.000 OA
ATOM      7  N   UNL     1      -1.357  11.720  21.595  0.00  0.00    +0.000 N 
ATOM      8  H   UNL     1      -1.530  10.808  21.147  0.00  0.00    +0.000 HD
BRANCH   7   9
ATOM      9  C   UNL     1      -2.465  12.438  22.101  0.00  0.00    +0.000 A 
ATOM     10  C   UNL     1      -2.855  12.272  23.436  0.00  0.00    +0.000 A 
ATOM     11  C   UNL     1      -3.945  12.983  23.935  0.00  0.00    +0.000 A 
ATOM     12  C   UNL     1      -4.649  13.874  23.106  0.00  0.00    +0.000 A 
ATOM     13  C   UNL     1      -4.259  14.031  21.768  0.00  0.00    +0.000 A 
ATOM     14  C   UNL     1      -3.172  13.312  21.268  0.00  0.00    +0.000 A 
BRANCH  12  15
ATOM     15  C   UNL     1      -5.809  14.644  23.658  0.00  0.00    +0.000 C 
BRANCH  15  16
ATOM     16  C   UNL     1      -6.956  13.693  23.958  0.00  0.00    +0.000 C 
ATOM     17  N   UNL     1      -7.907  12.903  24.207  0.00  0.00    +0.000 NA
ENDBRANCH  15  16
ENDBRANCH  12  15
ENDBRANCH   7   9
ENDBRANCH   4   5
ENDBRANCH   3   4
ENDBRANCH   1   3
BRANCH   1  18
ATOM     18  C   UNL     1       1.314   9.265  18.366  0.00  0.00    +0.000 C 
BRANCH  18  19
ATOM     19  O   UNL     1       1.910   9.710  17.174  0.00  0.00    +0.000 OA
ATOM     20  H   UNL     1       2.091   8.917  16.613  0.00  0.00    +0.000 HD
ENDBRANCH  18  19
BRANCH  18  21
ATOM     21  C   UNL     1       2.436   8.667  19.294  0.00  0.00    +0.000 C 
BRANCH  21  22
ATOM     22  N   UNL     1       2.400   7.185  19.149  0.00  0.00    +0.000 N 
ATOM     23  C   UNL     1       1.778   6.329  20.057  0.00  0.00    +0.000 A 
ATOM     24  O   UNL     1       1.082   6.797  20.958  0.00  0.00    +0.000 OA
ATOM     25  C   UNL     1       1.987   4.939  19.973  0.00  0.00    +0.000 A 
ATOM     26  C   UNL     1       1.355   4.003  20.824  0.00  0.00    +0.000 A 
ATOM     27  C   UNL     1       1.628   2.631  20.691  0.00  0.00    +0.000 A 
ATOM     28  C   UNL     1       2.528   2.175  19.737  0.00  0.00    +0.000 A 
ATOM     29  C   UNL     1       3.205   3.089  18.933  0.00  0.00    +0.000 A 
ATOM     30  C   UNL     1       2.927   4.461  19.040  0.00  0.00    +0.000 A 
ATOM     31  N   UNL     1       3.589   5.359  18.254  0.00  0.00    +0.000 N 
ATOM     32  C   UNL     1       4.997   5.138  17.888  0.00  0.00    +0.000 C 
ATOM     33  C   UNL     1       3.183   6.644  18.152  0.00  0.00    +0.000 A 
ATOM     34  O   UNL     1       3.643   7.337  17.247  0.00  0.00    +0.000 OA
ENDBRANCH  21  22
ENDBRANCH  18  21
ENDBRANCH   1  18
TORSDOF 10
ENDMDL
MODEL 9
REMARK VINA RESULT:      -7.0      1.384      2.668
REMARK  Name = 
REMARK  12 active torsions:
REMARK  status: ('A' for Active; 'I' for Inactive)
REMARK    1  A    between atoms: C_1  and  N_2
REMARK    2  A    between atoms: N_2  and  C_3
REMARK    3  A    between atoms: N_2  and  C_16
REMARK    4  A    between atoms: C_3  and  C_4
REMARK    5  A    between atoms: N_6  and  C_7
REMARK    6  A    between atoms: C_10  and  C_11
REMARK    7  A    between atoms: C_11  and  C_12
REMARK    8  A    between atoms: C_16  and  C_17
REMARK    9  A    between atoms: C_17  and  O_18
REMARK   10  A    between atoms: C_17  and  C_19
REMARK   11  A    between atoms: C_19  and  N_20
REMARK   12  A    between atoms: N_29  and  C_30
REMARK                            x       y       z     vdW  Elec       q    Type
REMARK                         _______ _______ _______ _____ _____    ______ ____
ROOT
ATOM      1  C   UNL     1       1.710   3.917  18.747  0.00  0.00    +0.000 C 
ENDROOT
BRANCH   1   3
ATOM      2  C   UNL     1       1.810   4.171  21.144  0.00  0.00    +0.000 C 
ATOM      3  N   UNL     1       1.629   4.894  19.875  0.00  0.00    +0.000 NA
BRANCH   3   4
ATOM      4  C   UNL     1       2.590   6.022  19.760  0.00  0.00    +0.000 C 
BRANCH   4   5
ATOM      5  C   UNL     1       1.961   7.363  20.022  0.00  0.00    +0.000 C 
ATOM      6  O   UNL     1       1.868   8.169  19.106  0.00  0.00    +0.000 OA
ATOM      7  N   UNL     1       1.473   7.658  21.254  0.00  0.00    +0.000 N 
ATOM      8  H   UNL     1       1.515   6.956  22.009  0.00  0.00    +0.000 HD
BRANCH   7   9
ATOM      9  C   UNL     1       0.850   8.898  21.527  0.00  0.00    +0.000 A 
ATOM     10  C   UNL     1       0.966   9.954  20.616  0.00  0.00    +0.000 A 
ATOM     11  C   UNL     1       0.349  11.175  20.885  0.00  0.00    +0.000 A 
ATOM     12  C   UNL     1      -0.400  11.346  22.063  0.00  0.00    +0.000 A 
ATOM     13  C   UNL     1      -0.507  10.287  22.976  0.00  0.00    +0.000 A 
ATOM     14  C   UNL     1       0.119   9.068  22.709  0.00  0.00    +0.000 A 
BRANCH  12  15
ATOM     15  C   UNL     1      -1.072  12.657  22.332  0.00  0.00    +0.000 C 
BRANCH  15  16
ATOM     16  C   UNL     1      -2.491  12.623  21.787  0.00  0.00    +0.000 C 
ATOM     17  N   UNL     1      -3.667  12.594  21.335  0.00  0.00    +0.000 NA
ENDBRANCH  15  16
ENDBRANCH  12  15
ENDBRANCH   7   9
ENDBRANCH   4   5
ENDBRANCH   3   4
ENDBRANCH   1   3
BRANCH   1  18
ATOM     18  C   UNL     1       3.017   3.117  18.770  0.00  0.00    +0.000 C 
BRANCH  18  19
ATOM     19  O   UNL     1       2.880   1.868  19.399  0.00  0.00    +0.000 OA
ATOM     20  H   UNL     1       2.062   1.897  19.952  0.00  0.00    +0.000 HD
ENDBRANCH  18  19
BRANCH  18  21
ATOM     21  C   UNL     1       3.785   2.911  17.412  0.00  0.00    +0.000 C 
BRANCH  21  22
ATOM     22  N   UNL     1       4.908   3.888  17.375  0.00  0.00    +0.000 N 
ATOM     23  C   UNL     1       5.683   4.226  18.485  0.00  0.00    +0.000 A 
ATOM     24  O   UNL     1       5.558   3.590  19.531  0.00  0.00    +0.000 OA
ATOM     25  C   UNL     1       6.566   5.320  18.423  0.00  0.00    +0.000 A 
ATOM     26  C   UNL     1       7.420   5.695  19.485  0.00  0.00    +0.000 A 
ATOM     27  C   UNL     1       8.262   6.812  19.355  0.00  0.00    +0.000 A 
ATOM     28  C   UNL     1       8.261   7.571  18.192  0.00  0.00    +0.000 A 
ATOM     29  C   UNL     1       7.382   7.251  17.160  0.00  0.00    +0.000 A 
ATOM     30  C   UNL     1       6.550   6.126  17.267  0.00  0.00    +0.000 A 
ATOM     31  N   UNL     1       5.687   5.811  16.258  0.00  0.00    +0.000 N 
ATOM     32  C   UNL     1       5.034   6.870  15.473  0.00  0.00    +0.000 C 
ATOM     33  C   UNL     1       5.055   4.617  16.215  0.00  0.00    +0.000 A 
ATOM     34  O   UNL     1       4.501   4.281  15.170  0.00  0.00    +0.000 OA
ENDBRANCH  21  22
ENDBRANCH  18  21
ENDBRANCH   1  18
TORSDOF 10
ENDMDL
