MODEL 1
REMARK VINA RESULT:      -7.6      0.000      0.000
REMARK  Name = 
REMARK  9 active torsions:
REMARK  status: ('A' for Active; 'I' for Inactive)
REMARK    1  A    between atoms: N_3  and  C_4
REMARK    2  A    between atoms: N_12  and  S_13
REMARK    3  A    between atoms: S_13  and  C_16
REMARK    4  A    between atoms: C_19  and  C_20
REMARK    5  A    between atoms: C_20  and  C_21
REMARK    6  A    between atoms: C_21  and  N_22
REMARK    7  A    between atoms: C_23  and  C_25
REMARK    8  A    between atoms: C_25  and  C_26
REMARK    9  A    between atoms: C_26  and  C_27
REMARK                            x       y       z     vdW  Elec       q    Type
REMARK                         _______ _______ _______ _____ _____    ______ ____
ROOT
ATOM      1  C   UNL     1       1.184   8.933  20.119  0.00  0.00    +0.000 A 
ATOM      2  C   UNL     1       1.326   9.547  18.874  0.00  0.00    +0.000 A 
ATOM      3  C   UNL     1       2.106   8.942  17.888  0.00  0.00    +0.000 A 
ATOM      4  C   UNL     1       2.785   7.739  18.134  0.00  0.00    +0.000 A 
ATOM      5  C   UNL     1       2.599   7.114  19.380  0.00  0.00    +0.000 A 
ATOM      6  C   UNL     1       1.810   7.713  20.375  0.00  0.00    +0.000 A 
ENDROOT
BRANCH   1   7
ATOM      7  S   UNL     1       0.346   9.819  21.432  0.00  0.00    +0.000 S 
ATOM      8  O   UNL     1       1.327  10.011  22.486  0.00  0.00    +0.000 OA
ATOM      9  O   UNL     1      -0.861   9.071  21.715  0.00  0.00    +0.000 OA
BRANCH   7  15
ATOM     10  N   UNL     1       2.051  12.389  21.184  0.00  0.00    +0.000 NA
ATOM     11  C   UNL     1       0.880  12.430  20.692  0.00  0.00    +0.000 C 
ATOM     12  N   UNL     1       0.232  13.447  20.007  0.00  0.00    +0.000 N 
ATOM     13  C   UNL     1      -1.030  12.884  19.439  0.00  0.00    +0.000 C 
ATOM     14  C   UNL     1      -1.297  11.593  20.228  0.00  0.00    +0.000 C 
ATOM     15  N   UNL     1       0.031  11.325  20.779  0.00  0.00    +0.000 N 
ATOM     16  H   UNL     1       2.557  13.228  20.928  0.00  0.00    +0.000 HD
BRANCH  12  17
ATOM     17  C   UNL     1       0.096  14.829  20.536  0.00  0.00    +0.000 C 
ATOM     18  C   UNL     1       1.407  15.607  20.722  0.00  0.00    +0.000 C 
ATOM     19  C   UNL     1       2.038  16.081  19.413  0.00  0.00    +0.000 C 
ATOM     20  C   UNL     1       1.074  16.912  18.581  0.00  0.00    +0.000 C 
ATOM     21  C   UNL     1      -0.261  16.207  18.375  0.00  0.00    +0.000 C 
ATOM     22  C   UNL     1      -0.866  15.685  19.679  0.00  0.00    +0.000 C 
ENDBRANCH  12  17
ENDBRANCH   7  15
ENDBRANCH   1   7
BRANCH   4  23
ATOM     23  C   UNL     1       3.675   7.104  17.078  0.00  0.00    +0.000 C 
BRANCH  23  24
ATOM     24  C   UNL     1       4.826   6.257  17.649  0.00  0.00    +0.000 C 
BRANCH  24  25
ATOM     25  N   UNL     1       4.405   4.950  18.116  0.00  0.00    +0.000 N 
ATOM     26  C   UNL     1       5.204   4.199  18.949  0.00  0.00    +0.000 C 
ATOM     27  O   UNL     1       6.328   4.543  19.298  0.00  0.00    +0.000 OA
ATOM     28  H   UNL     1       3.457   4.651  17.931  0.00  0.00    +0.000 HD
BRANCH  26  29
ATOM     29  C   UNL     1       4.577   2.906  19.425  0.00  0.00    +0.000 C 
BRANCH  29  30
ATOM     30  C   UNL     1       3.470   2.394  18.507  0.00  0.00    +0.000 C 
BRANCH  30  31
ATOM     31  C   UNL     1       2.104   2.485  19.177  0.00  0.00    +0.000 C 
ATOM     32  C   UNL     1       2.043   2.944  20.659  0.00  0.00    +0.000 C 
ATOM     33  C   UNL     1       0.762   3.720  20.291  0.00  0.00    +0.000 C 
ATOM     34  C   UNL     1       1.283   3.756  18.840  0.00  0.00    +0.000 C 
ENDBRANCH  30  31
ENDBRANCH  29  30
ENDBRANCH  26  29
ENDBRANCH  24  25
ENDBRANCH  23  24
ENDBRANCH   4  23
TORSDOF 9
ENDMDL
MODEL 2
REMARK VINA RESULT:      -7.6      3.265      9.229
REMARK  Name = 
REMARK  9 active torsions:
REMARK  status: ('A' for Active; 'I' for Inactive)
REMARK    1  A    between atoms: N_3  and  C_4
REMARK    2  A    between atoms: N_12  and  S_13
REMARK    3  A    between atoms: S_13  and  C_16
REMARK    4  A    between atoms: C_19  and  C_20
REMARK    5  A    between atoms: C_20  and  C_21
REMARK    6  A    between atoms: C_21  and  N_22
REMARK    7  A    between atoms: C_23  and  C_25
REMARK    8  A    between atoms: C_25  and  C_26
REMARK    9  A    between atoms: C_26  and  C_27
REMARK                            x       y       z     vdW  Elec       q    Type
REMARK                         _______ _______ _______ _____ _____    ______ ____
ROOT
ATOM      1  C   UNL     1       2.006   6.557  19.791  0.00  0.00    +0.000 A 
ATOM      2  C   UNL     1       2.258   7.031  18.504  0.00  0.00    +0.000 A 
ATOM      3  C   UNL     1       2.005   8.369  18.196  0.00  0.00    +0.000 A 
ATOM      4  C   UNL     1       1.466   9.245  19.150  0.00  0.00    +0.000 A 
ATOM      5  C   UNL     1       1.256   8.761  20.453  0.00  0.00    +0.000 A 
ATOM      6  C   UNL     1       1.514   7.418  20.773  0.00  0.00    +0.000 A 
ENDROOT
BRANCH   1   7
ATOM      7  S   UNL     1       2.148   4.799  20.112  0.00  0.00    +0.000 S 
ATOM      8  O   UNL     1       0.848   4.224  19.811  0.00  0.00    +0.000 OA
ATOM      9  O   UNL     1       2.685   4.676  21.450  0.00  0.00    +0.000 OA
BRANCH   7  15
ATOM     10  N   UNL     1       5.187   5.197  19.690  0.00  0.00    +0.000 NA
ATOM     11  C   UNL     1       4.583   4.466  18.843  0.00  0.00    +0.000 C 
ATOM     12  N   UNL     1       5.076   3.762  17.755  0.00  0.00    +0.000 N 
ATOM     13  C   UNL     1       3.984   2.875  17.250  0.00  0.00    +0.000 C 
ATOM     14  C   UNL     1       2.684   3.451  17.834  0.00  0.00    +0.000 C 
ATOM     15  N   UNL     1       3.207   4.250  18.941  0.00  0.00    +0.000 N 
ATOM     16  H   UNL     1       6.187   5.145  19.531  0.00  0.00    +0.000 HD
BRANCH  12  17
ATOM     17  C   UNL     1       5.895   4.387  16.684  0.00  0.00    +0.000 C 
ATOM     18  C   UNL     1       5.380   5.727  16.141  0.00  0.00    +0.000 C 
ATOM     19  C   UNL     1       5.585   6.903  17.097  0.00  0.00    +0.000 C 
ATOM     20  C   UNL     1       7.039   7.055  17.514  0.00  0.00    +0.000 C 
ATOM     21  C   UNL     1       7.623   5.751  18.044  0.00  0.00    +0.000 C 
ATOM     22  C   UNL     1       7.371   4.564  17.113  0.00  0.00    +0.000 C 
ENDBRANCH  12  17
ENDBRANCH   7  15
ENDBRANCH   1   7
BRANCH   4  23
ATOM     23  C   UNL     1       1.144  10.689  18.802  0.00  0.00    +0.000 C 
BRANCH  23  24
ATOM     24  C   UNL     1      -0.141  11.225  19.460  0.00  0.00    +0.000 C 
BRANCH  24  25
ATOM     25  N   UNL     1      -1.340  10.532  19.034  0.00  0.00    +0.000 N 
ATOM     26  C   UNL     1      -2.095  10.996  17.980  0.00  0.00    +0.000 C 
ATOM     27  O   UNL     1      -1.849  12.036  17.378  0.00  0.00    +0.000 OA
ATOM     28  H   UNL     1      -1.546   9.627  19.435  0.00  0.00    +0.000 HD
BRANCH  26  29
ATOM     29  C   UNL     1      -3.258  10.105  17.597  0.00  0.00    +0.000 C 
BRANCH  29  30
ATOM     30  C   UNL     1      -4.513  10.881  17.205  0.00  0.00    +0.000 C 
BRANCH  30  31
ATOM     31  C   UNL     1      -5.495  10.975  18.366  0.00  0.00    +0.000 C 
ATOM     32  C   UNL     1      -5.307  12.122  19.396  0.00  0.00    +0.000 C 
ATOM     33  C   UNL     1      -6.844  12.237  19.441  0.00  0.00    +0.000 C 
ATOM     34  C   UNL     1      -6.863  11.621  18.027  0.00  0.00    +0.000 C 
ENDBRANCH  30  31
ENDBRANCH  29  30
ENDBRANCH  26  29
ENDBRANCH  24  25
ENDBRANCH  23  24
ENDBRANCH   4  23
TORSDOF 9
ENDMDL
MODEL 3
REMARK VINA RESULT:      -7.4      2.644      3.667
REMARK  Name = 
REMARK  9 active torsions:
REMARK  status: ('A' for Active; 'I' for Inactive)
REMARK    1  A    between atoms: N_3  and  C_4
REMARK    2  A    between atoms: N_12  and  S_13
REMARK    3  A    between atoms: S_13  and  C_16
REMARK    4  A    between atoms: C_19  and  C_20
REMARK    5  A    between atoms: C_20  and  C_21
REMARK    6  A    between atoms: C_21  and  N_22
REMARK    7  A    between atoms: C_23  and  C_25
REMARK    8  A    between atoms: C_25  and  C_26
REMARK    9  A    between atoms: C_26  and  C_27
REMARK                            x       y       z     vdW  Elec       q    Type
REMARK                         _______ _______ _______ _____ _____    ______ ____
ROOT
ATOM      1  C   UNL     1       0.943   9.737  19.539  0.00  0.00    +0.000 A 
ATOM      2  C   UNL     1       1.471   9.913  18.260  0.00  0.00    +0.000 A 
ATOM      3  C   UNL     1       2.262   8.913  17.693  0.00  0.00    +0.000 A 
ATOM      4  C   UNL     1       2.570   7.741  18.401  0.00  0.00    +0.000 A 
ATOM      5  C   UNL     1       1.996   7.563  19.672  0.00  0.00    +0.000 A 
ATOM      6  C   UNL     1       1.193   8.561  20.246  0.00  0.00    +0.000 A 
ENDROOT
BRANCH   1   7
ATOM      7  S   UNL     1       0.099  11.109  20.325  0.00  0.00    +0.000 S 
ATOM      8  O   UNL     1       0.860  12.301  19.991  0.00  0.00    +0.000 OA
ATOM      9  O   UNL     1      -0.065  10.739  21.714  0.00  0.00    +0.000 OA
BRANCH   7  15
ATOM     10  N   UNL     1      -2.425  12.840  20.780  0.00  0.00    +0.000 NA
ATOM     11  C   UNL     1      -2.444  12.054  19.782  0.00  0.00    +0.000 C 
ATOM     12  N   UNL     1      -3.414  11.864  18.810  0.00  0.00    +0.000 N 
ATOM     13  C   UNL     1      -2.825  11.007  17.736  0.00  0.00    +0.000 C 
ATOM     14  C   UNL     1      -1.599  10.334  18.373  0.00  0.00    +0.000 C 
ATOM     15  N   UNL     1      -1.358  11.218  19.512  0.00  0.00    +0.000 N 
ATOM     16  H   UNL     1      -3.237  13.445  20.752  0.00  0.00    +0.000 HD
BRANCH  12  17
ATOM     17  C   UNL     1      -4.833  11.555  19.124  0.00  0.00    +0.000 C 
ATOM     18  C   UNL     1      -5.556  12.567  20.024  0.00  0.00    +0.000 C 
ATOM     19  C   UNL     1      -5.911  13.878  19.321  0.00  0.00    +0.000 C 
ATOM     20  C   UNL     1      -6.731  13.649  18.061  0.00  0.00    +0.000 C 
ATOM     21  C   UNL     1      -6.080  12.635  17.130  0.00  0.00    +0.000 C 
ATOM     22  C   UNL     1      -5.676  11.344  17.844  0.00  0.00    +0.000 C 
ENDBRANCH  12  17
ENDBRANCH   7  15
ENDBRANCH   1   7
BRANCH   4  23
ATOM     23  C   UNL     1       3.472   6.672  17.805  0.00  0.00    +0.000 C 
BRANCH  23  24
ATOM     24  C   UNL     1       4.566   6.164  18.762  0.00  0.00    +0.000 C 
BRANCH  24  25
ATOM     25  N   UNL     1       4.284   4.855  19.317  0.00  0.00    +0.000 N 
ATOM     26  C   UNL     1       4.520   3.708  18.592  0.00  0.00    +0.000 C 
ATOM     27  O   UNL     1       4.917   3.711  17.431  0.00  0.00    +0.000 OA
ATOM     28  H   UNL     1       4.036   4.785  20.294  0.00  0.00    +0.000 HD
BRANCH  26  29
ATOM     29  C   UNL     1       4.268   2.421  19.349  0.00  0.00    +0.000 C 
BRANCH  29  30
ATOM     30  C   UNL     1       3.088   1.619  18.807  0.00  0.00    +0.000 C 
BRANCH  30  31
ATOM     31  C   UNL     1       1.768   2.103  19.394  0.00  0.00    +0.000 C 
ATOM     32  C   UNL     1       1.801   2.850  20.755  0.00  0.00    +0.000 C 
ATOM     33  C   UNL     1       0.698   3.770  20.196  0.00  0.00    +0.000 C 
ATOM     34  C   UNL     1       1.213   3.417  18.785  0.00  0.00    +0.000 C 
ENDBRANCH  30  31
ENDBRANCH  29  30
ENDBRANCH  26  29
ENDBRANCH  24  25
ENDBRANCH  23  24
ENDBRANCH   4  23
TORSDOF 9
ENDMDL
MODEL 4
REMARK VINA RESULT:      -7.4      0.742      1.187
REMARK  Name = 
REMARK  9 active torsions:
REMARK  status: ('A' for Active; 'I' for Inactive)
REMARK    1  A    between atoms: N_3  and  C_4
REMARK    2  A    between atoms: N_12  and  S_13
REMARK    3  A    between atoms: S_13  and  C_16
REMARK    4  A    between atoms: C_19  and  C_20
REMARK    5  A    between atoms: C_20  and  C_21
REMARK    6  A    between atoms: C_21  and  N_22
REMARK    7  A    between atoms: C_23  and  C_25
REMARK    8  A    between atoms: C_25  and  C_26
REMARK    9  A    between atoms: C_26  and  C_27
REMARK                            x       y       z     vdW  Elec       q    Type
REMARK                         _______ _______ _______ _____ _____    ______ ____
ROOT
ATOM      1  C   UNL     1       1.197   9.394  19.812  0.00  0.00    +0.000 A 
ATOM      2  C   UNL     1       1.668   8.152  20.236  0.00  0.00    +0.000 A 
ATOM      3  C   UNL     1       2.443   7.373  19.375  0.00  0.00    +0.000 A 
ATOM      4  C   UNL     1       2.731   7.799  18.070  0.00  0.00    +0.000 A 
ATOM      5  C   UNL     1       2.282   9.072  17.673  0.00  0.00    +0.000 A 
ATOM      6  C   UNL     1       1.507   9.864  18.535  0.00  0.00    +0.000 A 
ENDROOT
BRANCH   1   7
ATOM      7  S   UNL     1       0.043  10.286  20.853  0.00  0.00    +0.000 S 
ATOM      8  O   UNL     1       0.653  10.357  22.170  0.00  0.00    +0.000 OA
ATOM      9  O   UNL     1      -1.234   9.623  20.699  0.00  0.00    +0.000 OA
BRANCH   7  15
ATOM     10  N   UNL     1       1.945  12.695  21.240  0.00  0.00    +0.000 NA
ATOM     11  C   UNL     1       0.964  12.863  20.449  0.00  0.00    +0.000 C 
ATOM     12  N   UNL     1       0.614  13.959  19.677  0.00  0.00    +0.000 N 
ATOM     13  C   UNL     1      -0.480  13.537  18.750  0.00  0.00    +0.000 C 
ATOM     14  C   UNL     1      -1.056  12.247  19.356  0.00  0.00    +0.000 C 
ATOM     15  N   UNL     1       0.041  11.838  20.232  0.00  0.00    +0.000 N 
ATOM     16  H   UNL     1       2.567  13.494  21.184  0.00  0.00    +0.000 HD
BRANCH  12  17
ATOM     17  C   UNL     1       0.445  15.327  20.231  0.00  0.00    +0.000 C 
ATOM     18  C   UNL     1       1.695  16.219  20.208  0.00  0.00    +0.000 C 
ATOM     19  C   UNL     1       2.061  16.738  18.817  0.00  0.00    +0.000 C 
ATOM     20  C   UNL     1       0.905  17.475  18.160  0.00  0.00    +0.000 C 
ATOM     21  C   UNL     1      -0.378  16.654  18.168  0.00  0.00    +0.000 C 
ATOM     22  C   UNL     1      -0.715  16.089  19.548  0.00  0.00    +0.000 C 
ENDBRANCH  12  17
ENDBRANCH   7  15
ENDBRANCH   1   7
BRANCH   4  23
ATOM     23  C   UNL     1       3.533   6.931  17.114  0.00  0.00    +0.000 C 
BRANCH  23  24
ATOM     24  C   UNL     1       4.425   5.885  17.809  0.00  0.00    +0.000 C 
BRANCH  24  25
ATOM     25  N   UNL     1       3.898   4.537  17.734  0.00  0.00    +0.000 N 
ATOM     26  C   UNL     1       4.424   3.522  18.502  0.00  0.00    +0.000 C 
ATOM     27  O   UNL     1       5.391   3.667  19.242  0.00  0.00    +0.000 OA
ATOM     28  H   UNL     1       3.050   4.376  17.207  0.00  0.00    +0.000 HD
BRANCH  26  29
ATOM     29  C   UNL     1       3.698   2.199  18.381  0.00  0.00    +0.000 C 
BRANCH  29  30
ATOM     30  C   UNL     1       2.209   2.350  18.081  0.00  0.00    +0.000 C 
BRANCH  30  31
ATOM     31  C   UNL     1       1.388   2.435  19.362  0.00  0.00    +0.000 C 
ATOM     32  C   UNL     1       2.119   2.228  20.716  0.00  0.00    +0.000 C 
ATOM     33  C   UNL     1       1.215   3.337  21.291  0.00  0.00    +0.000 C 
ATOM     34  C   UNL     1       1.070   3.871  19.851  0.00  0.00    +0.000 C 
ENDBRANCH  30  31
ENDBRANCH  29  30
ENDBRANCH  26  29
ENDBRANCH  24  25
ENDBRANCH  23  24
ENDBRANCH   4  23
TORSDOF 9
ENDMDL
MODEL 5
REMARK VINA RESULT:      -7.3      3.506      9.693
REMARK  Name = 
REMARK  9 active torsions:
REMARK  status: ('A' for Active; 'I' for Inactive)
REMARK    1  A    between atoms: N_3  and  C_4
REMARK    2  A    between atoms: N_12  and  S_13
REMARK    3  A    between atoms: S_13  and  C_16
REMARK    4  A    between atoms: C_19  and  C_20
REMARK    5  A    between atoms: C_20  and  C_21
REMARK    6  A    between atoms: C_21  and  N_22
REMARK    7  A    between atoms: C_23  and  C_25
REMARK    8  A    between atoms: C_25  and  C_26
REMARK    9  A    between atoms: C_26  and  C_27
REMARK                            x       y       z     vdW  Elec       q    Type
REMARK                         _______ _______ _______ _____ _____    ______ ____
ROOT
ATOM      1  C   UNL     1      -0.757  11.102  19.252  0.00  0.00    +0.000 A 
ATOM      2  C   UNL     1      -1.626  11.977  19.903  0.00  0.00    +0.000 A 
ATOM      3  C   UNL     1      -2.923  12.153  19.420  0.00  0.00    +0.000 A 
ATOM      4  C   UNL     1      -3.365  11.491  18.265  0.00  0.00    +0.000 A 
ATOM      5  C   UNL     1      -2.489  10.582  17.645  0.00  0.00    +0.000 A 
ATOM      6  C   UNL     1      -1.185  10.395  18.128  0.00  0.00    +0.000 A 
ENDROOT
BRANCH   1   7
ATOM      7  S   UNL     1       0.959  11.041  19.766  0.00  0.00    +0.000 S 
ATOM      8  O   UNL     1       0.951  11.061  21.219  0.00  0.00    +0.000 OA
ATOM      9  O   UNL     1       1.633  12.101  19.046  0.00  0.00    +0.000 OA
BRANCH   7  15
ATOM     10  N   UNL     1       0.742   8.261  21.106  0.00  0.00    +0.000 NA
ATOM     11  C   UNL     1       1.311   8.305  19.971  0.00  0.00    +0.000 C 
ATOM     12  N   UNL     1       1.830   7.285  19.189  0.00  0.00    +0.000 N 
ATOM     13  C   UNL     1       2.157   7.856  17.847  0.00  0.00    +0.000 C 
ATOM     14  C   UNL     1       2.221   9.378  18.053  0.00  0.00    +0.000 C 
ATOM     15  N   UNL     1       1.475   9.520  19.302  0.00  0.00    +0.000 N 
ATOM     16  H   UNL     1       0.608   7.295  21.382  0.00  0.00    +0.000 HD
BRANCH  12  17
ATOM     17  C   UNL     1       2.825   6.300  19.688  0.00  0.00    +0.000 C 
ATOM     18  C   UNL     1       2.297   5.265  20.693  0.00  0.00    +0.000 C 
ATOM     19  C   UNL     1       1.419   4.183  20.064  0.00  0.00    +0.000 C 
ATOM     20  C   UNL     1       2.123   3.464  18.924  0.00  0.00    +0.000 C 
ATOM     21  C   UNL     1       2.692   4.436  17.898  0.00  0.00    +0.000 C 
ATOM     22  C   UNL     1       3.527   5.550  18.532  0.00  0.00    +0.000 C 
ENDBRANCH  12  17
ENDBRANCH   7  15
ENDBRANCH   1   7
BRANCH   4  23
ATOM     23  C   UNL     1      -4.761  11.719  17.709  0.00  0.00    +0.000 C 
BRANCH  23  24
ATOM     24  C   UNL     1      -5.896  11.294  18.659  0.00  0.00    +0.000 C 
BRANCH  24  25
ATOM     25  N   UNL     1      -6.211  12.291  19.664  0.00  0.00    +0.000 N 
ATOM     26  C   UNL     1      -6.752  11.932  20.878  0.00  0.00    +0.000 C 
ATOM     27  O   UNL     1      -7.055  10.780  21.170  0.00  0.00    +0.000 OA
ATOM     28  H   UNL     1      -5.907  13.243  19.515  0.00  0.00    +0.000 HD
BRANCH  26  29
ATOM     29  C   UNL     1      -6.929  13.078  21.852  0.00  0.00    +0.000 C 
BRANCH  29  30
ATOM     30  C   UNL     1      -6.044  12.964  23.091  0.00  0.00    +0.000 C 
BRANCH  30  31
ATOM     31  C   UNL     1      -4.568  12.904  22.717  0.00  0.00    +0.000 C 
ATOM     32  C   UNL     1      -3.795  14.242  22.562  0.00  0.00    +0.000 C 
ATOM     33  C   UNL     1      -2.591  13.540  23.221  0.00  0.00    +0.000 C 
ATOM     34  C   UNL     1      -3.601  12.581  23.885  0.00  0.00    +0.000 C 
ENDBRANCH  30  31
ENDBRANCH  29  30
ENDBRANCH  26  29
ENDBRANCH  24  25
ENDBRANCH  23  24
ENDBRANCH   4  23
TORSDOF 9
ENDMDL
MODEL 6
REMARK VINA RESULT:      -7.3      6.198     10.915
REMARK  Name = 
REMARK  9 active torsions:
REMARK  status: ('A' for Active; 'I' for Inactive)
REMARK    1  A    between atoms: N_3  and  C_4
REMARK    2  A    between atoms: N_12  and  S_13
REMARK    3  A    between atoms: S_13  and  C_16
REMARK    4  A    between atoms: C_19  and  C_20
REMARK    5  A    between atoms: C_20  and  C_21
REMARK    6  A    between atoms: C_21  and  N_22
REMARK    7  A    between atoms: C_23  and  C_25
REMARK    8  A    between atoms: C_25  and  C_26
REMARK    9  A    between atoms: C_26  and  C_27
REMARK                            x       y       z     vdW  Elec       q    Type
REMARK                         _______ _______ _______ _____ _____    ______ ____
ROOT
ATOM      1  C   UNL     1       7.455   6.934  17.586  0.00  0.00    +0.000 A 
ATOM      2  C   UNL     1       8.235   6.803  18.735  0.00  0.00    +0.000 A 
ATOM      3  C   UNL     1       8.819   7.932  19.310  0.00  0.00    +0.000 A 
ATOM      4  C   UNL     1       8.668   9.202  18.733  0.00  0.00    +0.000 A 
ATOM      5  C   UNL     1       7.847   9.322  17.598  0.00  0.00    +0.000 A 
ATOM      6  C   UNL     1       7.250   8.191  17.018  0.00  0.00    +0.000 A 
ENDROOT
BRANCH   1   7
ATOM      7  S   UNL     1       6.881   5.454  16.754  0.00  0.00    +0.000 S 
ATOM      8  O   UNL     1       7.730   4.370  17.216  0.00  0.00    +0.000 OA
ATOM      9  O   UNL     1       6.845   5.774  15.343  0.00  0.00    +0.000 OA
BRANCH   7  15
ATOM     10  N   UNL     1       5.850   3.578  18.988  0.00  0.00    +0.000 NA
ATOM     11  C   UNL     1       4.988   4.325  18.426  0.00  0.00    +0.000 C 
ATOM     12  N   UNL     1       3.634   4.476  18.678  0.00  0.00    +0.000 N 
ATOM     13  C   UNL     1       3.151   5.657  17.900  0.00  0.00    +0.000 C 
ATOM     14  C   UNL     1       4.218   5.902  16.820  0.00  0.00    +0.000 C 
ATOM     15  N   UNL     1       5.359   5.186  17.391  0.00  0.00    +0.000 N 
ATOM     16  H   UNL     1       5.429   3.113  19.784  0.00  0.00    +0.000 HD
BRANCH  12  17
ATOM     17  C   UNL     1       2.678   3.338  18.710  0.00  0.00    +0.000 C 
ATOM     18  C   UNL     1       3.020   2.203  19.686  0.00  0.00    +0.000 C 
ATOM     19  C   UNL     1       2.778   2.555  21.154  0.00  0.00    +0.000 C 
ATOM     20  C   UNL     1       1.353   3.021  21.404  0.00  0.00    +0.000 C 
ATOM     21  C   UNL     1       0.939   4.136  20.452  0.00  0.00    +0.000 C 
ATOM     22  C   UNL     1       1.230   3.807  18.988  0.00  0.00    +0.000 C 
ENDBRANCH  12  17
ENDBRANCH   7  15
ENDBRANCH   1   7
BRANCH   4  23
ATOM     23  C   UNL     1       9.344  10.426  19.329  0.00  0.00    +0.000 C 
BRANCH  23  24
ATOM     24  C   UNL     1      10.226  11.205  18.336  0.00  0.00    +0.000 C 
BRANCH  24  25
ATOM     25  N   UNL     1      10.549  12.547  18.782  0.00  0.00    +0.000 N 
ATOM     26  C   UNL     1       9.695  13.601  18.546  0.00  0.00    +0.000 C 
ATOM     27  O   UNL     1       8.654  13.498  17.905  0.00  0.00    +0.000 OA
ATOM     28  H   UNL     1      11.349  12.678  19.386  0.00  0.00    +0.000 HD
BRANCH  26  29
ATOM     29  C   UNL     1      10.130  14.914  19.161  0.00  0.00    +0.000 C 
BRANCH  29  30
ATOM     30  C   UNL     1       8.983  15.695  19.798  0.00  0.00    +0.000 C 
BRANCH  30  31
ATOM     31  C   UNL     1       9.396  16.303  21.132  0.00  0.00    +0.000 C 
ATOM     32  C   UNL     1       9.005  15.553  22.433  0.00  0.00    +0.000 C 
ATOM     33  C   UNL     1      10.379  15.964  22.999  0.00  0.00    +0.000 C 
ATOM     34  C   UNL     1      10.872  16.065  21.541  0.00  0.00    +0.000 C 
ENDBRANCH  30  31
ENDBRANCH  29  30
ENDBRANCH  26  29
ENDBRANCH  24  25
ENDBRANCH  23  24
ENDBRANCH   4  23
TORSDOF 9
ENDMDL
MODEL 7
REMARK VINA RESULT:      -7.2      3.145      9.059
REMARK  Name = 
REMARK  9 active torsions:
REMARK  status: ('A' for Active; 'I' for Inactive)
REMARK    1  A    between atoms: N_3  and  C_4
REMARK    2  A    between atoms: N_12  and  S_13
REMARK    3  A    between atoms: S_13  and  C_16
REMARK    4  A    between atoms: C_19  and  C_20
REMARK    5  A    between atoms: C_20  and  C_21
REMARK    6  A    between atoms: C_21  and  N_22
REMARK    7  A    between atoms: C_23  and  C_25
REMARK    8  A    between atoms: C_25  and  C_26
REMARK    9  A    between atoms: C_26  and  C_27
REMARK                            x       y       z     vdW  Elec       q    Type
REMARK                         _______ _______ _______ _____ _____    ______ ____
ROOT
ATOM      1  C   UNL     1       1.778   6.555  19.568  0.00  0.00    +0.000 A 
ATOM      2  C   UNL     1       1.367   7.478  20.528  0.00  0.00    +0.000 A 
ATOM      3  C   UNL     1       1.260   8.828  20.192  0.00  0.00    +0.000 A 
ATOM      4  C   UNL     1       1.593   9.286  18.908  0.00  0.00    +0.000 A 
ATOM      5  C   UNL     1       1.967   8.336  17.941  0.00  0.00    +0.000 A 
ATOM      6  C   UNL     1       2.071   6.975  18.270  0.00  0.00    +0.000 A 
ENDROOT
BRANCH   1   7
ATOM      7  S   UNL     1       2.100   4.865  20.070  0.00  0.00    +0.000 S 
ATOM      8  O   UNL     1       0.860   4.136  19.869  0.00  0.00    +0.000 OA
ATOM      9  O   UNL     1       2.670   4.941  21.398  0.00  0.00    +0.000 OA
BRANCH   7  15
ATOM     10  N   UNL     1       5.140   5.296  19.688  0.00  0.00    +0.000 NA
ATOM     11  C   UNL     1       4.563   4.530  18.854  0.00  0.00    +0.000 C 
ATOM     12  N   UNL     1       5.085   3.802  17.797  0.00  0.00    +0.000 N 
ATOM     13  C   UNL     1       4.015   2.883  17.300  0.00  0.00    +0.000 C 
ATOM     14  C   UNL     1       2.697   3.456  17.844  0.00  0.00    +0.000 C 
ATOM     15  N   UNL     1       3.188   4.296  18.935  0.00  0.00    +0.000 N 
ATOM     16  H   UNL     1       6.143   5.254  19.549  0.00  0.00    +0.000 HD
BRANCH  12  17
ATOM     17  C   UNL     1       5.914   4.406  16.721  0.00  0.00    +0.000 C 
ATOM     18  C   UNL     1       5.401   5.734  16.147  0.00  0.00    +0.000 C 
ATOM     19  C   UNL     1       5.595   6.929  17.081  0.00  0.00    +0.000 C 
ATOM     20  C   UNL     1       7.045   7.092  17.509  0.00  0.00    +0.000 C 
ATOM     21  C   UNL     1       7.626   5.801  18.070  0.00  0.00    +0.000 C 
ATOM     22  C   UNL     1       7.385   4.595  17.161  0.00  0.00    +0.000 C 
ENDBRANCH  12  17
ENDBRANCH   7  15
ENDBRANCH   1   7
BRANCH   4  23
ATOM     23  C   UNL     1       1.525  10.762  18.554  0.00  0.00    +0.000 C 
BRANCH  23  24
ATOM     24  C   UNL     1       0.164  11.420  18.848  0.00  0.00    +0.000 C 
BRANCH  24  25
ATOM     25  N   UNL     1      -0.752  11.377  17.726  0.00  0.00    +0.000 N 
ATOM     26  C   UNL     1      -1.765  10.446  17.667  0.00  0.00    +0.000 C 
ATOM     27  O   UNL     1      -1.925   9.567  18.507  0.00  0.00    +0.000 OA
ATOM     28  H   UNL     1      -0.723  12.126  17.046  0.00  0.00    +0.000 HD
BRANCH  26  29
ATOM     29  C   UNL     1      -2.693  10.599  16.481  0.00  0.00    +0.000 C 
BRANCH  29  30
ATOM     30  C   UNL     1      -3.899  11.491  16.765  0.00  0.00    +0.000 C 
BRANCH  30  31
ATOM     31  C   UNL     1      -4.585  11.102  18.068  0.00  0.00    +0.000 C 
ATOM     32  C   UNL     1      -4.652  12.155  19.206  0.00  0.00    +0.000 C 
ATOM     33  C   UNL     1      -6.071  11.633  19.509  0.00  0.00    +0.000 C 
ATOM     34  C   UNL     1      -6.135  11.157  18.044  0.00  0.00    +0.000 C 
ENDBRANCH  30  31
ENDBRANCH  29  30
ENDBRANCH  26  29
ENDBRANCH  24  25
ENDBRANCH  23  24
ENDBRANCH   4  23
TORSDOF 9
ENDMDL
MODEL 8
REMARK VINA RESULT:      -7.2      5.968     10.102
REMARK  Name = 
REMARK  9 active torsions:
REMARK  status: ('A' for Active; 'I' for Inactive)
REMARK    1  A    between atoms: N_3  and  C_4
REMARK    2  A    between atoms: N_12  and  S_13
REMARK    3  A    between atoms: S_13  and  C_16
REMARK    4  A    between atoms: C_19  and  C_20
REMARK    5  A    between atoms: C_20  and  C_21
REMARK    6  A    between atoms: C_21  and  N_22
REMARK    7  A    between atoms: C_23  and  C_25
REMARK    8  A    between atoms: C_25  and  C_26
REMARK    9  A    between atoms: C_26  and  C_27
REMARK                            x       y       z     vdW  Elec       q    Type
REMARK                         _______ _______ _______ _____ _____    ______ ____
ROOT
ATOM      1  C   UNL     1       6.794   6.785  17.333  0.00  0.00    +0.000 A 
ATOM      2  C   UNL     1       6.769   8.112  16.903  0.00  0.00    +0.000 A 
ATOM      3  C   UNL     1       7.599   9.054  17.510  0.00  0.00    +0.000 A 
ATOM      4  C   UNL     1       8.440   8.702  18.577  0.00  0.00    +0.000 A 
ATOM      5  C   UNL     1       8.483   7.352  18.971  0.00  0.00    +0.000 A 
ATOM      6  C   UNL     1       7.655   6.397  18.360  0.00  0.00    +0.000 A 
ENDROOT
BRANCH   1   7
ATOM      7  S   UNL     1       5.582   5.638  16.679  0.00  0.00    +0.000 S 
ATOM      8  O   UNL     1       6.318   4.449  16.285  0.00  0.00    +0.000 OA
ATOM      9  O   UNL     1       4.831   6.370  15.682  0.00  0.00    +0.000 OA
BRANCH   7  15
ATOM     10  N   UNL     1       5.982   3.566  18.943  0.00  0.00    +0.000 NA
ATOM     11  C   UNL     1       4.928   4.275  18.996  0.00  0.00    +0.000 C 
ATOM     12  N   UNL     1       3.919   4.308  19.945  0.00  0.00    +0.000 N 
ATOM     13  C   UNL     1       3.052   5.490  19.653  0.00  0.00    +0.000 C 
ATOM     14  C   UNL     1       3.361   5.875  18.197  0.00  0.00    +0.000 C 
ATOM     15  N   UNL     1       4.653   5.219  18.005  0.00  0.00    +0.000 N 
ATOM     16  H   UNL     1       6.072   3.027  19.796  0.00  0.00    +0.000 HD
BRANCH  12  17
ATOM     17  C   UNL     1       3.170   3.100  20.382  0.00  0.00    +0.000 C 
ATOM     18  C   UNL     1       1.777   3.353  20.975  0.00  0.00    +0.000 C 
ATOM     19  C   UNL     1       0.721   3.735  19.936  0.00  0.00    +0.000 C 
ATOM     20  C   UNL     1       0.614   2.703  18.824  0.00  0.00    +0.000 C 
ATOM     21  C   UNL     1       1.969   2.387  18.203  0.00  0.00    +0.000 C 
ATOM     22  C   UNL     1       3.039   2.058  19.245  0.00  0.00    +0.000 C 
ENDBRANCH  12  17
ENDBRANCH   7  15
ENDBRANCH   1   7
BRANCH   4  23
ATOM     23  C   UNL     1       9.309   9.736  19.272  0.00  0.00    +0.000 C 
BRANCH  23  24
ATOM     24  C   UNL     1       9.424  11.074  18.519  0.00  0.00    +0.000 C 
BRANCH  24  25
ATOM     25  N   UNL     1       9.135  12.229  19.346  0.00  0.00    +0.000 N 
ATOM     26  C   UNL     1      10.148  12.985  19.893  0.00  0.00    +0.000 C 
ATOM     27  O   UNL     1      11.337  12.710  19.774  0.00  0.00    +0.000 OA
ATOM     28  H   UNL     1       8.179  12.554  19.410  0.00  0.00    +0.000 HD
BRANCH  26  29
ATOM     29  C   UNL     1       9.681  14.213  20.647  0.00  0.00    +0.000 C 
BRANCH  29  30
ATOM     30  C   UNL     1       9.620  14.009  22.159  0.00  0.00    +0.000 C 
BRANCH  30  31
ATOM     31  C   UNL     1       8.320  13.335  22.578  0.00  0.00    +0.000 C 
ATOM     32  C   UNL     1       8.302  11.788  22.702  0.00  0.00    +0.000 C 
ATOM     33  C   UNL     1       7.398  11.969  23.938  0.00  0.00    +0.000 C 
ATOM     34  C   UNL     1       8.013  13.374  24.098  0.00  0.00    +0.000 C 
ENDBRANCH  30  31
ENDBRANCH  29  30
ENDBRANCH  26  29
ENDBRANCH  24  25
ENDBRANCH  23  24
ENDBRANCH   4  23
TORSDOF 9
ENDMDL
MODEL 9
REMARK VINA RESULT:      -7.2      6.275     10.892
REMARK  Name = 
REMARK  9 active torsions:
REMARK  status: ('A' for Active; 'I' for Inactive)
REMARK    1  A    between atoms: N_3  and  C_4
REMARK    2  A    between atoms: N_12  and  S_13
REMARK    3  A    between atoms: S_13  and  C_16
REMARK    4  A    between atoms: C_19  and  C_20
REMARK    5  A    between atoms: C_20  and  C_21
REMARK    6  A    between atoms: C_21  and  N_22
REMARK    7  A    between atoms: C_23  and  C_25
REMARK    8  A    between atoms: C_25  and  C_26
REMARK    9  A    between atoms: C_26  and  C_27
REMARK                            x       y       z     vdW  Elec       q    Type
REMARK                         _______ _______ _______ _____ _____    ______ ____
ROOT
ATOM      1  C   UNL     1       6.871   6.798  17.337  0.00  0.00    +0.000 A 
ATOM      2  C   UNL     1       6.741   8.118  16.906  0.00  0.00    +0.000 A 
ATOM      3  C   UNL     1       7.501   9.121  17.508  0.00  0.00    +0.000 A 
ATOM      4  C   UNL     1       8.374   8.836  18.569  0.00  0.00    +0.000 A 
ATOM      5  C   UNL     1       8.522   7.494  18.963  0.00  0.00    +0.000 A 
ATOM      6  C   UNL     1       7.766   6.478  18.358  0.00  0.00    +0.000 A 
ENDROOT
BRANCH   1   7
ATOM      7  S   UNL     1       5.747   5.560  16.692  0.00  0.00    +0.000 S 
ATOM      8  O   UNL     1       6.550   4.379  16.426  0.00  0.00    +0.000 OA
ATOM      9  O   UNL     1       5.033   6.192  15.603  0.00  0.00    +0.000 OA
BRANCH   7  15
ATOM     10  N   UNL     1       6.055   3.617  19.080  0.00  0.00    +0.000 NA
ATOM     11  C   UNL     1       4.988   4.306  19.038  0.00  0.00    +0.000 C 
ATOM     12  N   UNL     1       3.926   4.367  19.927  0.00  0.00    +0.000 N 
ATOM     13  C   UNL     1       3.057   5.515  19.525  0.00  0.00    +0.000 C 
ATOM     14  C   UNL     1       3.440   5.831  18.071  0.00  0.00    +0.000 C 
ATOM     15  N   UNL     1       4.752   5.191  17.984  0.00  0.00    +0.000 N 
ATOM     16  H   UNL     1       6.107   3.124  19.964  0.00  0.00    +0.000 HD
BRANCH  12  17
ATOM     17  C   UNL     1       3.176   3.169  20.385  0.00  0.00    +0.000 C 
ATOM     18  C   UNL     1       1.776   3.434  20.958  0.00  0.00    +0.000 C 
ATOM     19  C   UNL     1       0.730   3.787  19.899  0.00  0.00    +0.000 C 
ATOM     20  C   UNL     1       0.637   2.729  18.811  0.00  0.00    +0.000 C 
ATOM     21  C   UNL     1       1.998   2.401  18.212  0.00  0.00    +0.000 C 
ATOM     22  C   UNL     1       3.058   2.100  19.273  0.00  0.00    +0.000 C 
ENDBRANCH  12  17
ENDBRANCH   7  15
ENDBRANCH   1   7
BRANCH   4  23
ATOM     23  C   UNL     1       9.165   9.935  19.258  0.00  0.00    +0.000 C 
BRANCH  23  24
ATOM     24  C   UNL     1      10.035  10.777  18.307  0.00  0.00    +0.000 C 
BRANCH  24  25
ATOM     25  N   UNL     1      10.275  12.125  18.786  0.00  0.00    +0.000 N 
ATOM     26  C   UNL     1      11.344  12.411  19.605  0.00  0.00    +0.000 C 
ATOM     27  O   UNL     1      12.117  11.559  20.030  0.00  0.00    +0.000 OA
ATOM     28  H   UNL     1       9.723  12.881  18.404  0.00  0.00    +0.000 HD
BRANCH  26  29
ATOM     29  C   UNL     1      11.510  13.879  19.934  0.00  0.00    +0.000 C 
BRANCH  29  30
ATOM     30  C   UNL     1      10.385  14.755  19.388  0.00  0.00    +0.000 C 
BRANCH  30  31
ATOM     31  C   UNL     1      10.932  15.978  18.664  0.00  0.00    +0.000 C 
ATOM     32  C   UNL     1      10.827  16.023  17.116  0.00  0.00    +0.000 C 
ATOM     33  C   UNL     1      10.517  17.527  17.251  0.00  0.00    +0.000 C 
ATOM     34  C   UNL     1      10.010  17.224  18.676  0.00  0.00    +0.000 C 
ENDBRANCH  30  31
ENDBRANCH  29  30
ENDBRANCH  26  29
ENDBRANCH  24  25
ENDBRANCH  23  24
ENDBRANCH   4  23
TORSDOF 9
ENDMDL
