MODEL 1
REMARK VINA RESULT:      -6.9      0.000      0.000
REMARK  Name = 
REMARK  3 active torsions:
REMARK  status: ('A' for Active; 'I' for Inactive)
REMARK    1  A    between atoms: C_1  and  C_2
REMARK    2  A    between atoms: N_11  and  S_12
REMARK    3  A    between atoms: S_12  and  C_13
REMARK                            x       y       z     vdW  Elec       q    Type
REMARK                         _______ _______ _______ _____ _____    ______ ____
ROOT
ATOM      1  C   UNL     1      -0.622  13.008  20.737  0.00  0.00    +0.000 C 
ATOM      2  C   UNL     1      -0.156  11.620  21.070  0.00  0.00    +0.000 A 
ATOM      3  C   UNL     1      -0.383  11.078  22.344  0.00  0.00    +0.000 A 
ATOM      4  C   UNL     1       0.031   9.783  22.676  0.00  0.00    +0.000 A 
ATOM      5  C   UNL     1       0.672   9.062  21.671  0.00  0.00    +0.000 A 
ATOM      6  N   UNL     1       1.190   7.797  21.633  0.00  0.00    +0.000 N 
ATOM      7  C   UNL     1       1.649   7.543  20.364  0.00  0.00    +0.000 A 
ATOM      8  N   UNL     1       2.100   6.319  20.007  0.00  0.00    +0.000 N 
ATOM      9  C   UNL     1       1.826   5.108  20.780  0.00  0.00    +0.000 C 
ATOM     10  C   UNL     1       1.450   3.932  19.860  0.00  0.00    +0.000 C 
ATOM     11  N   UNL     1       2.436   3.716  18.759  0.00  0.00    +0.000 NA
ATOM     12  C   UNL     1       2.584   4.982  17.962  0.00  0.00    +0.000 C 
ATOM     13  C   UNL     1       2.979   6.190  18.832  0.00  0.00    +0.000 C 
ATOM     14  N   UNL     1       1.553   8.621  19.620  0.00  0.00    +0.000 NA
ATOM     15  C   UNL     1       0.919   9.558  20.400  0.00  0.00    +0.000 A 
ATOM     16  C   UNL     1       0.504  10.861  20.087  0.00  0.00    +0.000 A 
ATOM     17  H   UNL     1       1.217   7.153  22.404  0.00  0.00    +0.000 HD
ENDROOT
BRANCH  11  18
ATOM     18  S   UNL     1       3.885   2.931  19.162  0.00  0.00    +0.000 S 
ATOM     19  C   UNL     1       3.774   1.441  18.187  0.00  0.00    +0.000 C 
ATOM     20  O   UNL     1       4.977   3.715  18.627  0.00  0.00    +0.000 OA
ATOM     21  O   UNL     1       3.842   2.565  20.558  0.00  0.00    +0.000 OA
ENDBRANCH  11  18
TORSDOF 1
ENDMDL
MODEL 2
REMARK VINA RESULT:      -6.8      1.123      1.124
REMARK  Name = 
REMARK  3 active torsions:
REMARK  status: ('A' for Active; 'I' for Inactive)
REMARK    1  A    between atoms: C_1  and  C_2
REMARK    2  A    between atoms: N_11  and  S_12
REMARK    3  A    between atoms: S_12  and  C_13
REMARK                            x       y       z     vdW  Elec       q    Type
REMARK                         _______ _______ _______ _____ _____    ______ ____
ROOT
ATOM      1  C   UNL     1      -1.858  12.802  21.310  0.00  0.00    +0.000 C 
ATOM      2  C   UNL     1      -1.031  11.568  21.525  0.00  0.00    +0.000 A 
ATOM      3  C   UNL     1      -0.881  11.025  22.810  0.00  0.00    +0.000 A 
ATOM      4  C   UNL     1      -0.126   9.869  23.035  0.00  0.00    +0.000 A 
ATOM      5  C   UNL     1       0.461   9.284  21.914  0.00  0.00    +0.000 A 
ATOM      6  N   UNL     1       1.238   8.171  21.758  0.00  0.00    +0.000 N 
ATOM      7  C   UNL     1       1.493   7.992  20.421  0.00  0.00    +0.000 A 
ATOM      8  N   UNL     1       2.137   6.893  19.964  0.00  0.00    +0.000 N 
ATOM      9  C   UNL     1       2.300   5.674  20.756  0.00  0.00    +0.000 C 
ATOM     10  C   UNL     1       2.036   4.418  19.906  0.00  0.00    +0.000 C 
ATOM     11  N   UNL     1       2.818   4.401  18.633  0.00  0.00    +0.000 NA
ATOM     12  C   UNL     1       2.516   5.645  17.843  0.00  0.00    +0.000 C 
ATOM     13  C   UNL     1       2.782   6.935  18.640  0.00  0.00    +0.000 C 
ATOM     14  N   UNL     1       1.013   8.998  19.726  0.00  0.00    +0.000 NA
ATOM     15  C   UNL     1       0.340   9.787  20.628  0.00  0.00    +0.000 A 
ATOM     16  C   UNL     1      -0.414  10.952  20.421  0.00  0.00    +0.000 A 
ATOM     17  H   UNL     1       1.558   7.572  22.499  0.00  0.00    +0.000 HD
ENDROOT
BRANCH  11  18
ATOM     18  S   UNL     1       4.457   3.980  18.738  0.00  0.00    +0.000 S 
ATOM     19  C   UNL     1       4.395   2.533  19.780  0.00  0.00    +0.000 C 
ATOM     20  O   UNL     1       4.888   3.547  17.426  0.00  0.00    +0.000 OA
ATOM     21  O   UNL     1       5.160   5.021  19.449  0.00  0.00    +0.000 OA
ENDBRANCH  11  18
TORSDOF 1
ENDMDL
MODEL 3
REMARK VINA RESULT:      -6.7      1.023      1.023
REMARK  Name = 
REMARK  3 active torsions:
REMARK  status: ('A' for Active; 'I' for Inactive)
REMARK    1  A    between atoms: C_1  and  C_2
REMARK    2  A    between atoms: N_11  and  S_12
REMARK    3  A    between atoms: S_12  and  C_13
REMARK                            x       y       z     vdW  Elec       q    Type
REMARK                         _______ _______ _______ _____ _____    ______ ____
ROOT
ATOM      1  C   UNL     1      -1.754  12.773  20.985  0.00  0.00    +0.000 C 
ATOM      2  C   UNL     1      -0.926  11.551  21.261  0.00  0.00    +0.000 A 
ATOM      3  C   UNL     1      -0.796  11.059  22.568  0.00  0.00    +0.000 A 
ATOM      4  C   UNL     1      -0.040   9.915  22.850  0.00  0.00    +0.000 A 
ATOM      5  C   UNL     1       0.567   9.290  21.763  0.00  0.00    +0.000 A 
ATOM      6  N   UNL     1       1.349   8.175  21.662  0.00  0.00    +0.000 N 
ATOM      7  C   UNL     1       1.627   7.945  20.337  0.00  0.00    +0.000 A 
ATOM      8  N   UNL     1       2.282   6.832  19.933  0.00  0.00    +0.000 N 
ATOM      9  C   UNL     1       2.436   5.645  20.775  0.00  0.00    +0.000 C 
ATOM     10  C   UNL     1       2.190   4.356  19.970  0.00  0.00    +0.000 C 
ATOM     11  N   UNL     1       2.993   4.293  18.712  0.00  0.00    +0.000 NA
ATOM     12  C   UNL     1       2.700   5.503  17.869  0.00  0.00    +0.000 C 
ATOM     13  C   UNL     1       2.948   6.825  18.620  0.00  0.00    +0.000 C 
ATOM     14  N   UNL     1       1.155   8.922  19.596  0.00  0.00    +0.000 NA
ATOM     15  C   UNL     1       0.465   9.743  20.456  0.00  0.00    +0.000 A 
ATOM     16  C   UNL     1      -0.290  10.895  20.192  0.00  0.00    +0.000 A 
ATOM     17  H   UNL     1       1.660   7.606  22.431  0.00  0.00    +0.000 HD
ENDROOT
BRANCH  11  18
ATOM     18  S   UNL     1       4.631   3.882  18.859  0.00  0.00    +0.000 S 
ATOM     19  C   UNL     1       5.120   3.713  17.151  0.00  0.00    +0.000 C 
ATOM     20  O   UNL     1       5.330   5.031  19.395  0.00  0.00    +0.000 OA
ATOM     21  O   UNL     1       4.730   2.588  19.490  0.00  0.00    +0.000 OA
ENDBRANCH  11  18
TORSDOF 1
ENDMDL
MODEL 4
REMARK VINA RESULT:      -6.7      4.067      7.733
REMARK  Name = 
REMARK  3 active torsions:
REMARK  status: ('A' for Active; 'I' for Inactive)
REMARK    1  A    between atoms: C_1  and  C_2
REMARK    2  A    between atoms: N_11  and  S_12
REMARK    3  A    between atoms: S_12  and  C_13
REMARK                            x       y       z     vdW  Elec       q    Type
REMARK                         _______ _______ _______ _____ _____    ______ ____
ROOT
ATOM      1  C   UNL     1       3.820   1.698  18.888  0.00  0.00    +0.000 C 
ATOM      2  C   UNL     1       3.657   3.168  18.632  0.00  0.00    +0.000 A 
ATOM      3  C   UNL     1       4.189   3.752  17.473  0.00  0.00    +0.000 A 
ATOM      4  C   UNL     1       4.040   5.117  17.204  0.00  0.00    +0.000 A 
ATOM      5  C   UNL     1       3.329   5.860  18.145  0.00  0.00    +0.000 A 
ATOM      6  N   UNL     1       2.986   7.181  18.206  0.00  0.00    +0.000 N 
ATOM      7  C   UNL     1       2.208   7.388  19.318  0.00  0.00    +0.000 A 
ATOM      8  N   UNL     1       1.622   8.582  19.561  0.00  0.00    +0.000 N 
ATOM      9  C   UNL     1       1.463   9.617  18.539  0.00  0.00    +0.000 C 
ATOM     10  C   UNL     1       0.063  10.255  18.606  0.00  0.00    +0.000 C 
ATOM     11  N   UNL     1      -0.299  10.722  19.978  0.00  0.00    +0.000 NA
ATOM     12  C   UNL     1      -0.198   9.573  20.942  0.00  0.00    +0.000 C 
ATOM     13  C   UNL     1       1.191   8.908  20.931  0.00  0.00    +0.000 C 
ATOM     14  N   UNL     1       2.131   6.287  20.031  0.00  0.00    +0.000 NA
ATOM     15  C   UNL     1       2.787   5.323  19.303  0.00  0.00    +0.000 A 
ATOM     16  C   UNL     1       2.952   3.955  19.560  0.00  0.00    +0.000 A 
ATOM     17  H   UNL     1       3.248   7.885  17.537  0.00  0.00    +0.000 HD
ENDROOT
BRANCH  11  18
ATOM     18  S   UNL     1       0.385  12.182  20.503  0.00  0.00    +0.000 S 
ATOM     19  C   UNL     1      -0.802  13.375  19.911  0.00  0.00    +0.000 C 
ATOM     20  O   UNL     1       0.331  12.202  21.950  0.00  0.00    +0.000 OA
ATOM     21  O   UNL     1       1.629  12.391  19.801  0.00  0.00    +0.000 OA
ENDBRANCH  11  18
TORSDOF 1
ENDMDL
MODEL 5
REMARK VINA RESULT:      -6.6      8.304     10.393
REMARK  Name = 
REMARK  3 active torsions:
REMARK  status: ('A' for Active; 'I' for Inactive)
REMARK    1  A    between atoms: C_1  and  C_2
REMARK    2  A    between atoms: N_11  and  S_12
REMARK    3  A    between atoms: S_12  and  C_13
REMARK                            x       y       z     vdW  Elec       q    Type
REMARK                         _______ _______ _______ _____ _____    ______ ____
ROOT
ATOM      1  C   UNL     1       6.356   4.125  15.848  0.00  0.00    +0.000 C 
ATOM      2  C   UNL     1       6.958   5.114  16.804  0.00  0.00    +0.000 A 
ATOM      3  C   UNL     1       7.463   4.691  18.043  0.00  0.00    +0.000 A 
ATOM      4  C   UNL     1       8.040   5.591  18.946  0.00  0.00    +0.000 A 
ATOM      5  C   UNL     1       8.093   6.924  18.544  0.00  0.00    +0.000 A 
ATOM      6  N   UNL     1       8.583   8.048  19.147  0.00  0.00    +0.000 N 
ATOM      7  C   UNL     1       8.455   9.108  18.283  0.00  0.00    +0.000 A 
ATOM      8  N   UNL     1       8.974  10.323  18.571  0.00  0.00    +0.000 N 
ATOM      9  C   UNL     1       9.983  10.536  19.608  0.00  0.00    +0.000 C 
ATOM     10  C   UNL     1      11.086  11.496  19.124  0.00  0.00    +0.000 C 
ATOM     11  N   UNL     1      10.543  12.769  18.561  0.00  0.00    +0.000 NA
ATOM     12  C   UNL     1       9.589  12.455  17.442  0.00  0.00    +0.000 C 
ATOM     13  C   UNL     1       8.452  11.513  17.876  0.00  0.00    +0.000 C 
ATOM     14  N   UNL     1       7.805   8.739  17.202  0.00  0.00    +0.000 NA
ATOM     15  C   UNL     1       7.605   7.385  17.330  0.00  0.00    +0.000 A 
ATOM     16  C   UNL     1       7.023   6.471  16.440  0.00  0.00    +0.000 A 
ATOM     17  H   UNL     1       8.985   8.090  20.068  0.00  0.00    +0.000 HD
ENDROOT
BRANCH  11  18
ATOM     18  S   UNL     1      10.016  13.941  19.666  0.00  0.00    +0.000 S 
ATOM     19  C   UNL     1      10.329  15.453  18.771  0.00  0.00    +0.000 C 
ATOM     20  O   UNL     1       8.581  13.809  19.802  0.00  0.00    +0.000 OA
ATOM     21  O   UNL     1      10.881  13.911  20.822  0.00  0.00    +0.000 OA
ENDBRANCH  11  18
TORSDOF 1
ENDMDL
MODEL 6
REMARK VINA RESULT:      -6.4      2.221      3.214
REMARK  Name = 
REMARK  3 active torsions:
REMARK  status: ('A' for Active; 'I' for Inactive)
REMARK    1  A    between atoms: C_1  and  C_2
REMARK    2  A    between atoms: N_11  and  S_12
REMARK    3  A    between atoms: S_12  and  C_13
REMARK                            x       y       z     vdW  Elec       q    Type
REMARK                         _______ _______ _______ _____ _____    ______ ____
ROOT
ATOM      1  C   UNL     1      -1.103  10.610  23.096  0.00  0.00    +0.000 C 
ATOM      2  C   UNL     1      -0.384  10.198  21.844  0.00  0.00    +0.000 A 
ATOM      3  C   UNL     1      -0.435  11.003  20.696  0.00  0.00    +0.000 A 
ATOM      4  C   UNL     1       0.237  10.648  19.521  0.00  0.00    +0.000 A 
ATOM      5  C   UNL     1       0.963   9.459  19.557  0.00  0.00    +0.000 A 
ATOM      6  N   UNL     1       1.730   8.821  18.624  0.00  0.00    +0.000 N 
ATOM      7  C   UNL     1       2.293   7.707  19.198  0.00  0.00    +0.000 A 
ATOM      8  N   UNL     1       3.203   6.954  18.538  0.00  0.00    +0.000 N 
ATOM      9  C   UNL     1       3.916   7.420  17.349  0.00  0.00    +0.000 C 
ATOM     10  C   UNL     1       5.408   7.044  17.411  0.00  0.00    +0.000 C 
ATOM     11  N   UNL     1       5.632   5.596  17.702  0.00  0.00    +0.000 NA
ATOM     12  C   UNL     1       4.942   5.229  18.987  0.00  0.00    +0.000 C 
ATOM     13  C   UNL     1       3.440   5.567  18.973  0.00  0.00    +0.000 C 
ATOM     14  N   UNL     1       1.834   7.541  20.417  0.00  0.00    +0.000 NA
ATOM     15  C   UNL     1       1.039   8.634  20.669  0.00  0.00    +0.000 A 
ATOM     16  C   UNL     1       0.353   9.001  21.836  0.00  0.00    +0.000 A 
ATOM     17  H   UNL     1       1.872   9.124  17.676  0.00  0.00    +0.000 HD
ENDROOT
BRANCH  11  18
ATOM     18  S   UNL     1       5.417   4.508  16.419  0.00  0.00    +0.000 S 
ATOM     19  C   UNL     1       7.103   4.101  16.000  0.00  0.00    +0.000 C 
ATOM     20  O   UNL     1       4.804   3.309  16.952  0.00  0.00    +0.000 OA
ATOM     21  O   UNL     1       4.830   5.214  15.305  0.00  0.00    +0.000 OA
ENDBRANCH  11  18
TORSDOF 1
ENDMDL
MODEL 7
REMARK VINA RESULT:      -6.4      4.162      7.476
REMARK  Name = 
REMARK  3 active torsions:
REMARK  status: ('A' for Active; 'I' for Inactive)
REMARK    1  A    between atoms: C_1  and  C_2
REMARK    2  A    between atoms: N_11  and  S_12
REMARK    3  A    between atoms: S_12  and  C_13
REMARK                            x       y       z     vdW  Elec       q    Type
REMARK                         _______ _______ _______ _____ _____    ______ ____
ROOT
ATOM      1  C   UNL     1       5.464   3.992  16.286  0.00  0.00    +0.000 C 
ATOM      2  C   UNL     1       4.576   4.511  17.379  0.00  0.00    +0.000 A 
ATOM      3  C   UNL     1       4.262   3.706  18.484  0.00  0.00    +0.000 A 
ATOM      4  C   UNL     1       3.447   4.170  19.523  0.00  0.00    +0.000 A 
ATOM      5  C   UNL     1       2.973   5.475  19.402  0.00  0.00    +0.000 A 
ATOM      6  N   UNL     1       2.182   6.244  20.208  0.00  0.00    +0.000 N 
ATOM      7  C   UNL     1       2.075   7.498  19.659  0.00  0.00    +0.000 A 
ATOM      8  N   UNL     1       1.451   8.506  20.311  0.00  0.00    +0.000 N 
ATOM      9  C   UNL     1       1.157   8.471  21.744  0.00  0.00    +0.000 C 
ATOM     10  C   UNL     1       1.474   9.822  22.411  0.00  0.00    +0.000 C 
ATOM     11  N   UNL     1       0.843  10.980  21.710  0.00  0.00    +0.000 NA
ATOM     12  C   UNL     1       1.275  10.990  20.270  0.00  0.00    +0.000 C 
ATOM     13  C   UNL     1       0.964   9.667  19.546  0.00  0.00    +0.000 C 
ATOM     14  N   UNL     1       2.666   7.535  18.486  0.00  0.00    +0.000 NA
ATOM     15  C   UNL     1       3.257   6.304  18.328  0.00  0.00    +0.000 A 
ATOM     16  C   UNL     1       4.069   5.820  17.292  0.00  0.00    +0.000 A 
ATOM     17  H   UNL     1       1.758   5.946  21.070  0.00  0.00    +0.000 HD
ENDROOT
BRANCH  11  18
ATOM     18  S   UNL     1      -0.811  11.240  21.980  0.00  0.00    +0.000 S 
ATOM     19  C   UNL     1      -0.826  12.936  22.534  0.00  0.00    +0.000 C 
ATOM     20  O   UNL     1      -1.481  11.200  20.698  0.00  0.00    +0.000 OA
ATOM     21  O   UNL     1      -1.240  10.401  23.073  0.00  0.00    +0.000 OA
ENDBRANCH  11  18
TORSDOF 1
ENDMDL
MODEL 8
REMARK VINA RESULT:      -6.4      2.624      3.309
REMARK  Name = 
REMARK  3 active torsions:
REMARK  status: ('A' for Active; 'I' for Inactive)
REMARK    1  A    between atoms: C_1  and  C_2
REMARK    2  A    between atoms: N_11  and  S_12
REMARK    3  A    between atoms: S_12  and  C_13
REMARK                            x       y       z     vdW  Elec       q    Type
REMARK                         _______ _______ _______ _____ _____    ______ ____
ROOT
ATOM      1  C   UNL     1      -1.852  11.375  18.613  0.00  0.00    +0.000 C 
ATOM      2  C   UNL     1      -0.745  10.430  18.982  0.00  0.00    +0.000 A 
ATOM      3  C   UNL     1      -0.652   9.916  20.284  0.00  0.00    +0.000 A 
ATOM      4  C   UNL     1       0.363   9.024  20.651  0.00  0.00    +0.000 A 
ATOM      5  C   UNL     1       1.267   8.670  19.650  0.00  0.00    +0.000 A 
ATOM      6  N   UNL     1       2.350   7.837  19.643  0.00  0.00    +0.000 N 
ATOM      7  C   UNL     1       2.857   7.780  18.368  0.00  0.00    +0.000 A 
ATOM      8  N   UNL     1       3.858   6.931  18.042  0.00  0.00    +0.000 N 
ATOM      9  C   UNL     1       4.242   5.789  18.873  0.00  0.00    +0.000 C 
ATOM     10  C   UNL     1       4.497   4.536  18.015  0.00  0.00    +0.000 C 
ATOM     11  N   UNL     1       5.443   4.786  16.886  0.00  0.00    +0.000 NA
ATOM     12  C   UNL     1       4.921   5.910  16.034  0.00  0.00    +0.000 C 
ATOM     13  C   UNL     1       4.667   7.198  16.839  0.00  0.00    +0.000 C 
ATOM     14  N   UNL     1       2.221   8.622  17.586  0.00  0.00    +0.000 NA
ATOM     15  C   UNL     1       1.212   9.154  18.352  0.00  0.00    +0.000 A 
ATOM     16  C   UNL     1       0.193  10.053  18.004  0.00  0.00    +0.000 A 
ATOM     17  H   UNL     1       2.708   7.335  20.437  0.00  0.00    +0.000 HD
ENDROOT
BRANCH  11  18
ATOM     18  S   UNL     1       7.095   4.858  17.262  0.00  0.00    +0.000 S 
ATOM     19  C   UNL     1       7.375   6.619  17.337  0.00  0.00    +0.000 C 
ATOM     20  O   UNL     1       7.267   4.337  18.602  0.00  0.00    +0.000 OA
ATOM     21  O   UNL     1       7.847   4.325  16.152  0.00  0.00    +0.000 OA
ENDBRANCH  11  18
TORSDOF 1
ENDMDL
MODEL 9
REMARK VINA RESULT:      -6.4      1.326      1.622
REMARK  Name = 
REMARK  3 active torsions:
REMARK  status: ('A' for Active; 'I' for Inactive)
REMARK    1  A    between atoms: C_1  and  C_2
REMARK    2  A    between atoms: N_11  and  S_12
REMARK    3  A    between atoms: S_12  and  C_13
REMARK                            x       y       z     vdW  Elec       q    Type
REMARK                         _______ _______ _______ _____ _____    ______ ____
ROOT
ATOM      1  C   UNL     1       0.441  13.144  18.493  0.00  0.00    +0.000 C 
ATOM      2  C   UNL     1       0.699  11.809  19.128  0.00  0.00    +0.000 A 
ATOM      3  C   UNL     1       0.261  11.545  20.435  0.00  0.00    +0.000 A 
ATOM      4  C   UNL     1       0.478  10.305  21.046  0.00  0.00    +0.000 A 
ATOM      5  C   UNL     1       1.143   9.346  20.283  0.00  0.00    +0.000 A 
ATOM      6  N   UNL     1       1.508   8.055  20.542  0.00  0.00    +0.000 N 
ATOM      7  C   UNL     1       2.079   7.520  19.414  0.00  0.00    +0.000 A 
ATOM      8  N   UNL     1       2.421   6.214  19.345  0.00  0.00    +0.000 N 
ATOM      9  C   UNL     1       1.917   5.205  20.277  0.00  0.00    +0.000 C 
ATOM     10  C   UNL     1       1.515   3.915  19.538  0.00  0.00    +0.000 C 
ATOM     11  N   UNL     1       2.591   3.400  18.639  0.00  0.00    +0.000 NA
ATOM     12  C   UNL     1       2.978   4.470  17.656  0.00  0.00    +0.000 C 
ATOM     13  C   UNL     1       3.409   5.779  18.343  0.00  0.00    +0.000 C 
ATOM     14  N   UNL     1       2.199   8.440  18.483  0.00  0.00    +0.000 NA
ATOM     15  C   UNL     1       1.593   9.565  18.989  0.00  0.00    +0.000 A 
ATOM     16  C   UNL     1       1.374  10.817  18.395  0.00  0.00    +0.000 A 
ATOM     17  H   UNL     1       1.368   7.571  21.412  0.00  0.00    +0.000 HD
ENDROOT
BRANCH  11  18
ATOM     18  S   UNL     1       3.879   2.573  19.369  0.00  0.00    +0.000 S 
ATOM     19  C   UNL     1       3.271   2.347  21.031  0.00  0.00    +0.000 C 
ATOM     20  O   UNL     1       3.967   1.263  18.760  0.00  0.00    +0.000 OA
ATOM     21  O   UNL     1       5.024   3.451  19.420  0.00  0.00    +0.000 OA
ENDBRANCH  11  18
TORSDOF 1
ENDMDL
