MODEL 1
REMARK VINA RESULT:      -8.7      0.000      0.000
REMARK  Name = 
REMARK  10 active torsions:
REMARK  status: ('A' for Active; 'I' for Inactive)
REMARK    1  A    between atoms: C_2  and  O_3
REMARK    2  A    between atoms: C_2  and  C_4
REMARK    3  A    between atoms: C_4  and  C_5
REMARK    4  A    between atoms: C_4  and  N_14
REMARK    5  A    between atoms: C_5  and  C_6
REMARK    6  A    between atoms: C_7  and  C_8
REMARK    7  A    between atoms: N_14  and  S_15
REMARK    8  A    between atoms: S_15  and  C_18
REMARK    9  A    between atoms: C_21  and  O_22
REMARK   10  A    between atoms: O_22  and  C_23
REMARK                            x       y       z     vdW  Elec       q    Type
REMARK                         _______ _______ _______ _____ _____    ______ ____
ROOT
ATOM      1  N   UNL     1       5.198   5.818  17.224  0.00  0.00    +0.000 NA
ATOM      2  H   UNL     1       5.458   4.921  16.782  0.00  0.00    +0.000 HD
ENDROOT
BRANCH   1   3
ATOM      3  S   UNL     1       3.963   5.280  18.267  0.00  0.00    +0.000 S 
ATOM      4  O   UNL     1       3.110   4.425  17.473  0.00  0.00    +0.000 OA
ATOM      5  O   UNL     1       4.662   4.769  19.424  0.00  0.00    +0.000 OA
BRANCH   3   6
ATOM      6  C   UNL     1       3.026   6.691  18.751  0.00  0.00    +0.000 A 
ATOM      7  C   UNL     1       2.409   6.732  20.004  0.00  0.00    +0.000 A 
ATOM      8  C   UNL     1       1.635   7.843  20.350  0.00  0.00    +0.000 A 
ATOM      9  C   UNL     1       1.525   8.918  19.467  0.00  0.00    +0.000 A 
ATOM     10  C   UNL     1       2.092   8.840  18.190  0.00  0.00    +0.000 A 
ATOM     11  C   UNL     1       2.870   7.741  17.841  0.00  0.00    +0.000 A 
BRANCH   9  12
ATOM     12  O   UNL     1       0.827  10.019  19.913  0.00  0.00    +0.000 OA
BRANCH  12  13
ATOM     13  C   UNL     1      -0.181  10.531  19.120  0.00  0.00    +0.000 A 
ATOM     14  C   UNL     1      -0.088  11.890  18.816  0.00  0.00    +0.000 A 
ATOM     15  C   UNL     1      -1.085  12.505  18.056  0.00  0.00    +0.000 A 
ATOM     16  C   UNL     1      -2.176  11.765  17.601  0.00  0.00    +0.000 A 
ATOM     17  C   UNL     1      -2.253  10.401  17.870  0.00  0.00    +0.000 A 
ATOM     18  C   UNL     1      -1.240   9.778  18.597  0.00  0.00    +0.000 A 
ENDBRANCH  12  13
ENDBRANCH   9  12
ENDBRANCH   3   6
ENDBRANCH   1   3
BRANCH   1  19
ATOM     19  C   UNL     1       6.474   6.387  17.841  0.00  0.00    +0.000 C 
BRANCH  19  21
ATOM     20  O   UNL     1       7.860   4.498  17.145  0.00  0.00    +0.000 OA
ATOM     21  C   UNL     1       7.443   5.213  18.043  0.00  0.00    +0.000 C 
BRANCH  21  22
ATOM     22  O   UNL     1       7.784   5.024  19.344  0.00  0.00    +0.000 OA
ATOM     23  H   UNL     1       8.763   4.957  19.422  0.00  0.00    +0.000 HD
ENDBRANCH  21  22
ENDBRANCH  19  21
BRANCH  19  24
ATOM     24  C   UNL     1       7.215   7.450  17.023  0.00  0.00    +0.000 C 
BRANCH  24  25
ATOM     25  C   UNL     1       7.970   8.402  17.859  0.00  0.00    +0.000 C 
ATOM     26  C   UNL     1       8.590   9.245  18.433  0.00  0.00    +0.000 C 
BRANCH  26  27
ATOM     27  C   UNL     1       9.342  10.356  18.935  0.00  0.00    +0.000 A 
ATOM     28  C   UNL     1      10.037  11.141  18.010  0.00  0.00    +0.000 A 
ATOM     29  C   UNL     1      10.755  12.256  18.431  0.00  0.00    +0.000 A 
ATOM     30  C   UNL     1      10.785  12.590  19.784  0.00  0.00    +0.000 A 
ATOM     31  C   UNL     1      10.100  11.805  20.713  0.00  0.00    +0.000 A 
ATOM     32  C   UNL     1       9.376  10.685  20.290  0.00  0.00    +0.000 A 
ENDBRANCH  26  27
ENDBRANCH  24  25
ENDBRANCH  19  24
ENDBRANCH   1  19
TORSDOF 10
ENDMDL
MODEL 2
REMARK VINA RESULT:      -8.6      0.901      1.642
REMARK  Name = 
REMARK  10 active torsions:
REMARK  status: ('A' for Active; 'I' for Inactive)
REMARK    1  A    between atoms: C_2  and  O_3
REMARK    2  A    between atoms: C_2  and  C_4
REMARK    3  A    between atoms: C_4  and  C_5
REMARK    4  A    between atoms: C_4  and  N_14
REMARK    5  A    between atoms: C_5  and  C_6
REMARK    6  A    between atoms: C_7  and  C_8
REMARK    7  A    between atoms: N_14  and  S_15
REMARK    8  A    between atoms: S_15  and  C_18
REMARK    9  A    between atoms: C_21  and  O_22
REMARK   10  A    between atoms: O_22  and  C_23
REMARK                            x       y       z     vdW  Elec       q    Type
REMARK                         _______ _______ _______ _____ _____    ______ ____
ROOT
ATOM      1  N   UNL     1       4.845   6.296  17.369  0.00  0.00    +0.000 NA
ATOM      2  H   UNL     1       4.787   5.467  16.755  0.00  0.00    +0.000 HD
ENDROOT
BRANCH   1   3
ATOM      3  S   UNL     1       3.612   5.919  18.483  0.00  0.00    +0.000 S 
ATOM      4  O   UNL     1       2.795   4.908  17.851  0.00  0.00    +0.000 OA
ATOM      5  O   UNL     1       4.310   5.647  19.719  0.00  0.00    +0.000 OA
BRANCH   3   6
ATOM      6  C   UNL     1       2.628   7.364  18.695  0.00  0.00    +0.000 A 
ATOM      7  C   UNL     1       2.554   8.323  17.681  0.00  0.00    +0.000 A 
ATOM      8  C   UNL     1       1.802   9.482  17.888  0.00  0.00    +0.000 A 
ATOM      9  C   UNL     1       1.096   9.651  19.080  0.00  0.00    +0.000 A 
ATOM     10  C   UNL     1       1.228   8.718  20.113  0.00  0.00    +0.000 A 
ATOM     11  C   UNL     1       1.968   7.557  19.913  0.00  0.00    +0.000 A 
BRANCH   9  12
ATOM     12  O   UNL     1       0.300  10.771  19.176  0.00  0.00    +0.000 OA
BRANCH  12  13
ATOM     13  C   UNL     1      -0.959  10.740  18.611  0.00  0.00    +0.000 A 
ATOM     14  C   UNL     1      -1.893  11.625  19.150  0.00  0.00    +0.000 A 
ATOM     15  C   UNL     1      -3.205  11.634  18.671  0.00  0.00    +0.000 A 
ATOM     16  C   UNL     1      -3.586  10.757  17.656  0.00  0.00    +0.000 A 
ATOM     17  C   UNL     1      -2.648   9.897  17.089  0.00  0.00    +0.000 A 
ATOM     18  C   UNL     1      -1.329   9.914  17.541  0.00  0.00    +0.000 A 
ENDBRANCH  12  13
ENDBRANCH   9  12
ENDBRANCH   3   6
ENDBRANCH   1   3
BRANCH   1  19
ATOM     19  C   UNL     1       6.285   6.363  17.875  0.00  0.00    +0.000 C 
BRANCH  19  21
ATOM     20  O   UNL     1       7.914   4.606  18.360  0.00  0.00    +0.000 OA
ATOM     21  C   UNL     1       6.803   4.920  17.961  0.00  0.00    +0.000 C 
BRANCH  21  22
ATOM     22  O   UNL     1       5.899   4.005  17.525  0.00  0.00    +0.000 OA
ATOM     23  H   UNL     1       5.085   4.058  18.074  0.00  0.00    +0.000 HD
ENDBRANCH  21  22
ENDBRANCH  19  21
BRANCH  19  24
ATOM     24  C   UNL     1       7.277   7.149  17.011  0.00  0.00    +0.000 C 
BRANCH  24  25
ATOM     25  C   UNL     1       8.020   8.173  17.770  0.00  0.00    +0.000 C 
ATOM     26  C   UNL     1       8.569   9.087  18.307  0.00  0.00    +0.000 C 
BRANCH  26  27
ATOM     27  C   UNL     1       9.131  10.306  18.807  0.00  0.00    +0.000 A 
ATOM     28  C   UNL     1       9.257  10.442  20.193  0.00  0.00    +0.000 A 
ATOM     29  C   UNL     1       9.830  11.586  20.739  0.00  0.00    +0.000 A 
ATOM     30  C   UNL     1      10.278  12.604  19.899  0.00  0.00    +0.000 A 
ATOM     31  C   UNL     1      10.148  12.478  18.515  0.00  0.00    +0.000 A 
ATOM     32  C   UNL     1       9.573  11.326  17.965  0.00  0.00    +0.000 A 
ENDBRANCH  26  27
ENDBRANCH  24  25
ENDBRANCH  19  24
ENDBRANCH   1  19
TORSDOF 10
ENDMDL
MODEL 3
REMARK VINA RESULT:      -8.5      3.880      6.527
REMARK  Name = 
REMARK  10 active torsions:
REMARK  status: ('A' for Active; 'I' for Inactive)
REMARK    1  A    between atoms: C_2  and  O_3
REMARK    2  A    between atoms: C_2  and  C_4
REMARK    3  A    between atoms: C_4  and  C_5
REMARK    4  A    between atoms: C_4  and  N_14
REMARK    5  A    between atoms: C_5  and  C_6
REMARK    6  A    between atoms: C_7  and  C_8
REMARK    7  A    between atoms: N_14  and  S_15
REMARK    8  A    between atoms: S_15  and  C_18
REMARK    9  A    between atoms: C_21  and  O_22
REMARK   10  A    between atoms: O_22  and  C_23
REMARK                            x       y       z     vdW  Elec       q    Type
REMARK                         _______ _______ _______ _____ _____    ______ ____
ROOT
ATOM      1  N   UNL     1       7.326   4.584  16.645  0.00  0.00    +0.000 NA
ATOM      2  H   UNL     1       8.205   4.732  16.123  0.00  0.00    +0.000 HD
ENDROOT
BRANCH   1   3
ATOM      3  S   UNL     1       7.320   5.990  17.608  0.00  0.00    +0.000 S 
ATOM      4  O   UNL     1       8.100   5.676  18.782  0.00  0.00    +0.000 OA
ATOM      5  O   UNL     1       7.721   7.048  16.707  0.00  0.00    +0.000 OA
BRANCH   3   6
ATOM      6  C   UNL     1       5.658   6.279  18.114  0.00  0.00    +0.000 A 
ATOM      7  C   UNL     1       5.182   5.740  19.312  0.00  0.00    +0.000 A 
ATOM      8  C   UNL     1       3.847   5.946  19.672  0.00  0.00    +0.000 A 
ATOM      9  C   UNL     1       3.019   6.726  18.863  0.00  0.00    +0.000 A 
ATOM     10  C   UNL     1       3.487   7.206  17.635  0.00  0.00    +0.000 A 
ATOM     11  C   UNL     1       4.816   7.012  17.272  0.00  0.00    +0.000 A 
BRANCH   9  12
ATOM     12  O   UNL     1       1.745   6.967  19.329  0.00  0.00    +0.000 OA
BRANCH  12  13
ATOM     13  C   UNL     1       1.455   8.211  19.851  0.00  0.00    +0.000 A 
ATOM     14  C   UNL     1       1.361   8.283  21.242  0.00  0.00    +0.000 A 
ATOM     15  C   UNL     1       1.028   9.491  21.858  0.00  0.00    +0.000 A 
ATOM     16  C   UNL     1       0.787  10.627  21.087  0.00  0.00    +0.000 A 
ATOM     17  C   UNL     1       0.916  10.570  19.702  0.00  0.00    +0.000 A 
ATOM     18  C   UNL     1       1.285   9.373  19.088  0.00  0.00    +0.000 A 
ENDBRANCH  12  13
ENDBRANCH   9  12
ENDBRANCH   3   6
ENDBRANCH   1   3
BRANCH   1  19
ATOM     19  C   UNL     1       6.223   4.413  15.602  0.00  0.00    +0.000 C 
BRANCH  19  21
ATOM     20  O   UNL     1       7.693   5.357  13.892  0.00  0.00    +0.000 OA
ATOM     21  C   UNL     1       6.889   4.499  14.221  0.00  0.00    +0.000 C 
BRANCH  21  22
ATOM     22  O   UNL     1       6.475   3.523  13.371  0.00  0.00    +0.000 OA
ATOM     23  H   UNL     1       6.223   3.921  12.508  0.00  0.00    +0.000 HD
ENDBRANCH  21  22
ENDBRANCH  19  21
BRANCH  19  24
ATOM     24  C   UNL     1       5.439   3.097  15.646  0.00  0.00    +0.000 C 
BRANCH  24  25
ATOM     25  C   UNL     1       4.368   3.095  16.660  0.00  0.00    +0.000 C 
ATOM     26  C   UNL     1       3.592   3.070  17.567  0.00  0.00    +0.000 C 
BRANCH  26  27
ATOM     27  C   UNL     1       2.828   2.993  18.776  0.00  0.00    +0.000 A 
ATOM     28  C   UNL     1       1.480   3.361  18.717  0.00  0.00    +0.000 A 
ATOM     29  C   UNL     1       0.676   3.273  19.848  0.00  0.00    +0.000 A 
ATOM     30  C   UNL     1       1.218   2.819  21.050  0.00  0.00    +0.000 A 
ATOM     31  C   UNL     1       2.565   2.459  21.117  0.00  0.00    +0.000 A 
ATOM     32  C   UNL     1       3.374   2.545  19.978  0.00  0.00    +0.000 A 
ENDBRANCH  26  27
ENDBRANCH  24  25
ENDBRANCH  19  24
ENDBRANCH   1  19
TORSDOF 10
ENDMDL
MODEL 4
REMARK VINA RESULT:      -8.5      3.841      6.538
REMARK  Name = 
REMARK  10 active torsions:
REMARK  status: ('A' for Active; 'I' for Inactive)
REMARK    1  A    between atoms: C_2  and  O_3
REMARK    2  A    between atoms: C_2  and  C_4
REMARK    3  A    between atoms: C_4  and  C_5
REMARK    4  A    between atoms: C_4  and  N_14
REMARK    5  A    between atoms: C_5  and  C_6
REMARK    6  A    between atoms: C_7  and  C_8
REMARK    7  A    between atoms: N_14  and  S_15
REMARK    8  A    between atoms: S_15  and  C_18
REMARK    9  A    between atoms: C_21  and  O_22
REMARK   10  A    between atoms: O_22  and  C_23
REMARK                            x       y       z     vdW  Elec       q    Type
REMARK                         _______ _______ _______ _____ _____    ______ ____
ROOT
ATOM      1  N   UNL     1       7.409   4.791  16.507  0.00  0.00    +0.000 NA
ATOM      2  H   UNL     1       8.263   5.008  15.968  0.00  0.00    +0.000 HD
ENDROOT
BRANCH   1   3
ATOM      3  S   UNL     1       7.378   6.133  17.556  0.00  0.00    +0.000 S 
ATOM      4  O   UNL     1       8.138   5.749  18.723  0.00  0.00    +0.000 OA
ATOM      5  O   UNL     1       7.791   7.247  16.731  0.00  0.00    +0.000 OA
BRANCH   3   6
ATOM      6  C   UNL     1       5.706   6.384  18.048  0.00  0.00    +0.000 A 
ATOM      7  C   UNL     1       5.243   5.869  19.262  0.00  0.00    +0.000 A 
ATOM      8  C   UNL     1       3.902   6.044  19.612  0.00  0.00    +0.000 A 
ATOM      9  C   UNL     1       3.051   6.769  18.776  0.00  0.00    +0.000 A 
ATOM     10  C   UNL     1       3.508   7.225  17.535  0.00  0.00    +0.000 A 
ATOM     11  C   UNL     1       4.843   7.062  17.181  0.00  0.00    +0.000 A 
BRANCH   9  12
ATOM     12  O   UNL     1       1.769   6.983  19.230  0.00  0.00    +0.000 OA
BRANCH  12  13
ATOM     13  C   UNL     1       1.463   8.203  19.801  0.00  0.00    +0.000 A 
ATOM     14  C   UNL     1       1.397   8.226  21.195  0.00  0.00    +0.000 A 
ATOM     15  C   UNL     1       1.052   9.404  21.859  0.00  0.00    +0.000 A 
ATOM     16  C   UNL     1       0.769  10.561  21.132  0.00  0.00    +0.000 A 
ATOM     17  C   UNL     1       0.870  10.552  19.743  0.00  0.00    +0.000 A 
ATOM     18  C   UNL     1       1.251   9.386  19.082  0.00  0.00    +0.000 A 
ENDBRANCH  12  13
ENDBRANCH   9  12
ENDBRANCH   3   6
ENDBRANCH   1   3
BRANCH   1  19
ATOM     19  C   UNL     1       6.279   4.638  15.490  0.00  0.00    +0.000 C 
BRANCH  19  21
ATOM     20  O   UNL     1       6.574   3.991  13.151  0.00  0.00    +0.000 OA
ATOM     21  C   UNL     1       6.915   4.689  14.094  0.00  0.00    +0.000 C 
BRANCH  21  22
ATOM     22  O   UNL     1       7.930   5.588  14.007  0.00  0.00    +0.000 OA
ATOM     23  H   UNL     1       8.570   5.434  14.738  0.00  0.00    +0.000 HD
ENDBRANCH  21  22
ENDBRANCH  19  21
BRANCH  19  24
ATOM     24  C   UNL     1       5.460   3.344  15.567  0.00  0.00    +0.000 C 
BRANCH  24  25
ATOM     25  C   UNL     1       4.406   3.388  16.598  0.00  0.00    +0.000 C 
ATOM     26  C   UNL     1       3.612   3.326  17.488  0.00  0.00    +0.000 C 
BRANCH  26  27
ATOM     27  C   UNL     1       2.773   3.088  18.624  0.00  0.00    +0.000 A 
ATOM     28  C   UNL     1       3.392   2.717  19.822  0.00  0.00    +0.000 A 
ATOM     29  C   UNL     1       2.635   2.508  20.970  0.00  0.00    +0.000 A 
ATOM     30  C   UNL     1       1.251   2.665  20.925  0.00  0.00    +0.000 A 
ATOM     31  C   UNL     1       0.627   3.026  19.730  0.00  0.00    +0.000 A 
ATOM     32  C   UNL     1       1.388   3.238  18.575  0.00  0.00    +0.000 A 
ENDBRANCH  26  27
ENDBRANCH  24  25
ENDBRANCH  19  24
ENDBRANCH   1  19
TORSDOF 10
ENDMDL
MODEL 5
REMARK VINA RESULT:      -8.4      1.350      2.169
REMARK  Name = 
REMARK  10 active torsions:
REMARK  status: ('A' for Active; 'I' for Inactive)
REMARK    1  A    between atoms: C_2  and  O_3
REMARK    2  A    between atoms: C_2  and  C_4
REMARK    3  A    between atoms: C_4  and  C_5
REMARK    4  A    between atoms: C_4  and  N_14
REMARK    5  A    between atoms: C_5  and  C_6
REMARK    6  A    between atoms: C_7  and  C_8
REMARK    7  A    between atoms: N_14  and  S_15
REMARK    8  A    between atoms: S_15  and  C_18
REMARK    9  A    between atoms: C_21  and  O_22
REMARK   10  A    between atoms: O_22  and  C_23
REMARK                            x       y       z     vdW  Elec       q    Type
REMARK                         _______ _______ _______ _____ _____    ______ ____
ROOT
ATOM      1  N   UNL     1       5.263   5.938  17.213  0.00  0.00    +0.000 NA
ATOM      2  H   UNL     1       5.448   5.016  16.786  0.00  0.00    +0.000 HD
ENDROOT
BRANCH   1   3
ATOM      3  S   UNL     1       4.005   5.517  18.281  0.00  0.00    +0.000 S 
ATOM      4  O   UNL     1       3.205   4.530  17.593  0.00  0.00    +0.000 OA
ATOM      5  O   UNL     1       4.675   5.198  19.523  0.00  0.00    +0.000 OA
BRANCH   3   6
ATOM      6  C   UNL     1       3.014   6.952  18.527  0.00  0.00    +0.000 A 
ATOM      7  C   UNL     1       2.928   7.929  17.531  0.00  0.00    +0.000 A 
ATOM      8  C   UNL     1       2.170   9.079  17.765  0.00  0.00    +0.000 A 
ATOM      9  C   UNL     1       1.469   9.221  18.964  0.00  0.00    +0.000 A 
ATOM     10  C   UNL     1       1.613   8.269  19.979  0.00  0.00    +0.000 A 
ATOM     11  C   UNL     1       2.359   7.116  19.752  0.00  0.00    +0.000 A 
BRANCH   9  12
ATOM     12  O   UNL     1       0.667  10.334  19.086  0.00  0.00    +0.000 OA
BRANCH  12  13
ATOM     13  C   UNL     1       1.263  11.560  19.304  0.00  0.00    +0.000 A 
ATOM     14  C   UNL     1       1.102  12.099  20.581  0.00  0.00    +0.000 A 
ATOM     15  C   UNL     1       1.633  13.355  20.881  0.00  0.00    +0.000 A 
ATOM     16  C   UNL     1       2.322  14.075  19.906  0.00  0.00    +0.000 A 
ATOM     17  C   UNL     1       2.517  13.525  18.641  0.00  0.00    +0.000 A 
ATOM     18  C   UNL     1       2.019  12.255  18.352  0.00  0.00    +0.000 A 
ENDBRANCH  12  13
ENDBRANCH   9  12
ENDBRANCH   3   6
ENDBRANCH   1   3
BRANCH   1  19
ATOM     19  C   UNL     1       6.588   6.418  17.803  0.00  0.00    +0.000 C 
BRANCH  19  21
ATOM     20  O   UNL     1       8.014   4.819  18.981  0.00  0.00    +0.000 OA
ATOM     21  C   UNL     1       7.497   5.188  17.937  0.00  0.00    +0.000 C 
BRANCH  21  22
ATOM     22  O   UNL     1       7.695   4.544  16.757  0.00  0.00    +0.000 OA
ATOM     23  H   UNL     1       7.059   4.881  16.087  0.00  0.00    +0.000 HD
ENDBRANCH  21  22
ENDBRANCH  19  21
BRANCH  19  24
ATOM     24  C   UNL     1       7.359   7.464  16.991  0.00  0.00    +0.000 C 
BRANCH  24  25
ATOM     25  C   UNL     1       7.988   8.500  17.832  0.00  0.00    +0.000 C 
ATOM     26  C   UNL     1       8.568   9.369  18.411  0.00  0.00    +0.000 C 
BRANCH  26  27
ATOM     27  C   UNL     1       9.372  10.436  18.927  0.00  0.00    +0.000 A 
ATOM     28  C   UNL     1      10.110  11.193  18.012  0.00  0.00    +0.000 A 
ATOM     29  C   UNL     1      10.880  12.267  18.447  0.00  0.00    +0.000 A 
ATOM     30  C   UNL     1      10.920  12.587  19.803  0.00  0.00    +0.000 A 
ATOM     31  C   UNL     1      10.192  11.829  20.722  0.00  0.00    +0.000 A 
ATOM     32  C   UNL     1       9.415  10.751  20.284  0.00  0.00    +0.000 A 
ENDBRANCH  26  27
ENDBRANCH  24  25
ENDBRANCH  19  24
ENDBRANCH   1  19
TORSDOF 10
ENDMDL
MODEL 6
REMARK VINA RESULT:      -8.0      1.438      2.428
REMARK  Name = 
REMARK  10 active torsions:
REMARK  status: ('A' for Active; 'I' for Inactive)
REMARK    1  A    between atoms: C_2  and  O_3
REMARK    2  A    between atoms: C_2  and  C_4
REMARK    3  A    between atoms: C_4  and  C_5
REMARK    4  A    between atoms: C_4  and  N_14
REMARK    5  A    between atoms: C_5  and  C_6
REMARK    6  A    between atoms: C_7  and  C_8
REMARK    7  A    between atoms: N_14  and  S_15
REMARK    8  A    between atoms: S_15  and  C_18
REMARK    9  A    between atoms: C_21  and  O_22
REMARK   10  A    between atoms: O_22  and  C_23
REMARK                            x       y       z     vdW  Elec       q    Type
REMARK                         _______ _______ _______ _____ _____    ______ ____
ROOT
ATOM      1  N   UNL     1       5.526   4.729  17.466  0.00  0.00    +0.000 NA
ATOM      2  H   UNL     1       6.033   3.843  17.617  0.00  0.00    +0.000 HD
ENDROOT
BRANCH   1   3
ATOM      3  S   UNL     1       4.066   4.369  18.266  0.00  0.00    +0.000 S 
ATOM      4  O   UNL     1       3.261   3.629  17.321  0.00  0.00    +0.000 OA
ATOM      5  O   UNL     1       4.476   3.776  19.520  0.00  0.00    +0.000 OA
BRANCH   3   6
ATOM      6  C   UNL     1       3.253   5.895  18.602  0.00  0.00    +0.000 A 
ATOM      7  C   UNL     1       3.274   6.927  17.660  0.00  0.00    +0.000 A 
ATOM      8  C   UNL     1       2.659   8.144  17.966  0.00  0.00    +0.000 A 
ATOM      9  C   UNL     1       1.991   8.303  19.182  0.00  0.00    +0.000 A 
ATOM     10  C   UNL     1       2.032   7.287  20.142  0.00  0.00    +0.000 A 
ATOM     11  C   UNL     1       2.634   6.069  19.844  0.00  0.00    +0.000 A 
BRANCH   9  12
ATOM     12  O   UNL     1       1.327   9.494  19.374  0.00  0.00    +0.000 OA
BRANCH  12  13
ATOM     13  C   UNL     1       0.694   9.712  20.582  0.00  0.00    +0.000 A 
ATOM     14  C   UNL     1      -0.316  10.674  20.576  0.00  0.00    +0.000 A 
ATOM     15  C   UNL     1      -0.983  10.994  21.761  0.00  0.00    +0.000 A 
ATOM     16  C   UNL     1      -0.638  10.356  22.953  0.00  0.00    +0.000 A 
ATOM     17  C   UNL     1       0.344   9.368  22.955  0.00  0.00    +0.000 A 
ATOM     18  C   UNL     1       0.983   9.022  21.766  0.00  0.00    +0.000 A 
ENDBRANCH  12  13
ENDBRANCH   9  12
ENDBRANCH   3   6
ENDBRANCH   1   3
BRANCH   1  19
ATOM     19  C   UNL     1       6.410   5.840  18.032  0.00  0.00    +0.000 C 
BRANCH  19  21
ATOM     20  O   UNL     1       8.036   5.350  19.790  0.00  0.00    +0.000 OA
ATOM     21  C   UNL     1       7.645   5.166  18.648  0.00  0.00    +0.000 C 
BRANCH  21  22
ATOM     22  O   UNL     1       8.288   4.343  17.780  0.00  0.00    +0.000 OA
ATOM     23  H   UNL     1       8.107   4.631  16.857  0.00  0.00    +0.000 HD
ENDBRANCH  21  22
ENDBRANCH  19  21
BRANCH  19  24
ATOM     24  C   UNL     1       6.916   6.887  17.034  0.00  0.00    +0.000 C 
BRANCH  24  25
ATOM     25  C   UNL     1       7.759   7.922  17.660  0.00  0.00    +0.000 C 
ATOM     26  C   UNL     1       8.348   8.842  18.142  0.00  0.00    +0.000 C 
BRANCH  26  27
ATOM     27  C   UNL     1       8.888  10.063  18.663  0.00  0.00    +0.000 A 
ATOM     28  C   UNL     1       9.175  10.114  20.031  0.00  0.00    +0.000 A 
ATOM     29  C   UNL     1       9.736  11.258  20.589  0.00  0.00    +0.000 A 
ATOM     30  C   UNL     1      10.008  12.361  19.783  0.00  0.00    +0.000 A 
ATOM     31  C   UNL     1       9.715  12.319  18.419  0.00  0.00    +0.000 A 
ATOM     32  C   UNL     1       9.153  11.167  17.855  0.00  0.00    +0.000 A 
ENDBRANCH  26  27
ENDBRANCH  24  25
ENDBRANCH  19  24
ENDBRANCH   1  19
TORSDOF 10
ENDMDL
MODEL 7
REMARK VINA RESULT:      -8.0      3.927      8.689
REMARK  Name = 
REMARK  10 active torsions:
REMARK  status: ('A' for Active; 'I' for Inactive)
REMARK    1  A    between atoms: C_2  and  O_3
REMARK    2  A    between atoms: C_2  and  C_4
REMARK    3  A    between atoms: C_4  and  C_5
REMARK    4  A    between atoms: C_4  and  N_14
REMARK    5  A    between atoms: C_5  and  C_6
REMARK    6  A    between atoms: C_7  and  C_8
REMARK    7  A    between atoms: N_14  and  S_15
REMARK    8  A    between atoms: S_15  and  C_18
REMARK    9  A    between atoms: C_21  and  O_22
REMARK   10  A    between atoms: O_22  and  C_23
REMARK                            x       y       z     vdW  Elec       q    Type
REMARK                         _______ _______ _______ _____ _____    ______ ____
ROOT
ATOM      1  N   UNL     1       4.252   5.714  19.234  0.00  0.00    +0.000 NA
ATOM      2  H   UNL     1       3.739   5.212  19.976  0.00  0.00    +0.000 HD
ENDROOT
BRANCH   1   3
ATOM      3  S   UNL     1       5.590   4.676  19.053  0.00  0.00    +0.000 S 
ATOM      4  O   UNL     1       6.672   5.281  19.795  0.00  0.00    +0.000 OA
ATOM      5  O   UNL     1       5.085   3.367  19.406  0.00  0.00    +0.000 OA
BRANCH   3   6
ATOM      6  C   UNL     1       6.031   4.670  17.348  0.00  0.00    +0.000 A 
ATOM      7  C   UNL     1       5.520   3.692  16.490  0.00  0.00    +0.000 A 
ATOM      8  C   UNL     1       5.917   3.682  15.150  0.00  0.00    +0.000 A 
ATOM      9  C   UNL     1       6.777   4.671  14.670  0.00  0.00    +0.000 A 
ATOM     10  C   UNL     1       7.333   5.605  15.550  0.00  0.00    +0.000 A 
ATOM     11  C   UNL     1       6.937   5.628  16.883  0.00  0.00    +0.000 A 
BRANCH   9  12
ATOM     12  O   UNL     1       7.049   4.655  13.320  0.00  0.00    +0.000 OA
BRANCH  12  13
ATOM     13  C   UNL     1       6.397   3.734  12.524  0.00  0.00    +0.000 A 
ATOM     14  C   UNL     1       5.049   3.991  12.272  0.00  0.00    +0.000 A 
ATOM     15  C   UNL     1       4.296   3.093  11.512  0.00  0.00    +0.000 A 
ATOM     16  C   UNL     1       4.889   1.935  11.007  0.00  0.00    +0.000 A 
ATOM     17  C   UNL     1       6.243   1.694  11.224  0.00  0.00    +0.000 A 
ATOM     18  C   UNL     1       7.003   2.609  11.950  0.00  0.00    +0.000 A 
ENDBRANCH  12  13
ENDBRANCH   9  12
ENDBRANCH   3   6
ENDBRANCH   1   3
BRANCH   1  19
ATOM     19  C   UNL     1       3.285   5.864  18.060  0.00  0.00    +0.000 C 
BRANCH  19  21
ATOM     20  O   UNL     1       1.280   4.591  17.480  0.00  0.00    +0.000 OA
ATOM     21  C   UNL     1       2.106   4.915  18.320  0.00  0.00    +0.000 C 
BRANCH  21  22
ATOM     22  O   UNL     1       2.052   4.477  19.605  0.00  0.00    +0.000 OA
ATOM     23  H   UNL     1       1.179   4.708  19.996  0.00  0.00    +0.000 HD
ENDBRANCH  21  22
ENDBRANCH  19  21
BRANCH  19  24
ATOM     24  C   UNL     1       2.700   7.262  17.831  0.00  0.00    +0.000 C 
BRANCH  24  25
ATOM     25  C   UNL     1       2.089   7.839  19.043  0.00  0.00    +0.000 C 
ATOM     26  C   UNL     1       1.524   8.378  19.947  0.00  0.00    +0.000 C 
BRANCH  26  27
ATOM     27  C   UNL     1       0.747   9.136  20.881  0.00  0.00    +0.000 A 
ATOM     28  C   UNL     1       0.819   8.774  22.230  0.00  0.00    +0.000 A 
ATOM     29  C   UNL     1       0.118   9.496  23.190  0.00  0.00    +0.000 A 
ATOM     30  C   UNL     1      -0.665  10.583  22.806  0.00  0.00    +0.000 A 
ATOM     31  C   UNL     1      -0.748  10.943  21.460  0.00  0.00    +0.000 A 
ATOM     32  C   UNL     1      -0.041  10.219  20.493  0.00  0.00    +0.000 A 
ENDBRANCH  26  27
ENDBRANCH  24  25
ENDBRANCH  19  24
ENDBRANCH   1  19
TORSDOF 10
ENDMDL
MODEL 8
REMARK VINA RESULT:      -8.0      3.974      6.685
REMARK  Name = 
REMARK  10 active torsions:
REMARK  status: ('A' for Active; 'I' for Inactive)
REMARK    1  A    between atoms: C_2  and  O_3
REMARK    2  A    between atoms: C_2  and  C_4
REMARK    3  A    between atoms: C_4  and  C_5
REMARK    4  A    between atoms: C_4  and  N_14
REMARK    5  A    between atoms: C_5  and  C_6
REMARK    6  A    between atoms: C_7  and  C_8
REMARK    7  A    between atoms: N_14  and  S_15
REMARK    8  A    between atoms: S_15  and  C_18
REMARK    9  A    between atoms: C_21  and  O_22
REMARK   10  A    between atoms: O_22  and  C_23
REMARK                            x       y       z     vdW  Elec       q    Type
REMARK                         _______ _______ _______ _____ _____    ______ ____
ROOT
ATOM      1  N   UNL     1       6.701   5.597  15.084  0.00  0.00    +0.000 NA
ATOM      2  H   UNL     1       6.285   6.503  14.814  0.00  0.00    +0.000 HD
ENDROOT
BRANCH   1   3
ATOM      3  S   UNL     1       7.096   5.931  16.707  0.00  0.00    +0.000 S 
ATOM      4  O   UNL     1       7.726   4.738  17.222  0.00  0.00    +0.000 OA
ATOM      5  O   UNL     1       7.809   7.188  16.656  0.00  0.00    +0.000 OA
BRANCH   3   6
ATOM      6  C   UNL     1       5.586   6.174  17.582  0.00  0.00    +0.000 A 
ATOM      7  C   UNL     1       4.533   6.876  16.990  0.00  0.00    +0.000 A 
ATOM      8  C   UNL     1       3.360   7.093  17.719  0.00  0.00    +0.000 A 
ATOM      9  C   UNL     1       3.232   6.569  19.006  0.00  0.00    +0.000 A 
ATOM     10  C   UNL     1       4.315   5.924  19.613  0.00  0.00    +0.000 A 
ATOM     11  C   UNL     1       5.483   5.696  18.892  0.00  0.00    +0.000 A 
BRANCH   9  12
ATOM     12  O   UNL     1       2.014   6.739  19.627  0.00  0.00    +0.000 OA
BRANCH  12  13
ATOM     13  C   UNL     1       1.613   8.017  19.960  0.00  0.00    +0.000 A 
ATOM     14  C   UNL     1       1.355   8.244  21.312  0.00  0.00    +0.000 A 
ATOM     15  C   UNL     1       0.903   9.495  21.737  0.00  0.00    +0.000 A 
ATOM     16  C   UNL     1       0.704  10.519  20.812  0.00  0.00    +0.000 A 
ATOM     17  C   UNL     1       0.996  10.309  19.466  0.00  0.00    +0.000 A 
ATOM     18  C   UNL     1       1.483   9.072  19.047  0.00  0.00    +0.000 A 
ENDBRANCH  12  13
ENDBRANCH   9  12
ENDBRANCH   3   6
ENDBRANCH   1   3
BRANCH   1  19
ATOM     19  C   UNL     1       5.644   4.531  14.798  0.00  0.00    +0.000 C 
BRANCH  19  21
ATOM     20  O   UNL     1       5.013   3.477  12.685  0.00  0.00    +0.000 OA
ATOM     21  C   UNL     1       5.853   4.063  13.351  0.00  0.00    +0.000 C 
BRANCH  21  22
ATOM     22  O   UNL     1       7.092   4.349  12.874  0.00  0.00    +0.000 OA
ATOM     23  H   UNL     1       7.150   4.091  11.927  0.00  0.00    +0.000 HD
ENDBRANCH  21  22
ENDBRANCH  19  21
BRANCH  19  24
ATOM     24  C   UNL     1       5.674   3.282  15.686  0.00  0.00    +0.000 C 
BRANCH  24  25
ATOM     25  C   UNL     1       4.517   3.192  16.596  0.00  0.00    +0.000 C 
ATOM     26  C   UNL     1       3.664   3.110  17.428  0.00  0.00    +0.000 C 
BRANCH  26  27
ATOM     27  C   UNL     1       2.800   2.992  18.564  0.00  0.00    +0.000 A 
ATOM     28  C   UNL     1       3.382   2.668  19.793  0.00  0.00    +0.000 A 
ATOM     29  C   UNL     1       2.601   2.576  20.940  0.00  0.00    +0.000 A 
ATOM     30  C   UNL     1       1.228   2.804  20.863  0.00  0.00    +0.000 A 
ATOM     31  C   UNL     1       0.639   3.119  19.637  0.00  0.00    +0.000 A 
ATOM     32  C   UNL     1       1.426   3.214  18.483  0.00  0.00    +0.000 A 
ENDBRANCH  26  27
ENDBRANCH  24  25
ENDBRANCH  19  24
ENDBRANCH   1  19
TORSDOF 10
ENDMDL
MODEL 9
REMARK VINA RESULT:      -7.9      3.861      6.385
REMARK  Name = 
REMARK  10 active torsions:
REMARK  status: ('A' for Active; 'I' for Inactive)
REMARK    1  A    between atoms: C_2  and  O_3
REMARK    2  A    between atoms: C_2  and  C_4
REMARK    3  A    between atoms: C_4  and  C_5
REMARK    4  A    between atoms: C_4  and  N_14
REMARK    5  A    between atoms: C_5  and  C_6
REMARK    6  A    between atoms: C_7  and  C_8
REMARK    7  A    between atoms: N_14  and  S_15
REMARK    8  A    between atoms: S_15  and  C_18
REMARK    9  A    between atoms: C_21  and  O_22
REMARK   10  A    between atoms: O_22  and  C_23
REMARK                            x       y       z     vdW  Elec       q    Type
REMARK                         _______ _______ _______ _____ _____    ______ ____
ROOT
ATOM      1  N   UNL     1       7.099   4.446  16.992  0.00  0.00    +0.000 NA
ATOM      2  H   UNL     1       7.970   4.888  16.657  0.00  0.00    +0.000 HD
ENDROOT
BRANCH   1   3
ATOM      3  S   UNL     1       6.852   5.337  18.422  0.00  0.00    +0.000 S 
ATOM      4  O   UNL     1       6.719   4.366  19.483  0.00  0.00    +0.000 OA
ATOM      5  O   UNL     1       7.921   6.311  18.432  0.00  0.00    +0.000 OA
BRANCH   3   6
ATOM      6  C   UNL     1       5.317   6.185  18.260  0.00  0.00    +0.000 A 
ATOM      7  C   UNL     1       5.116   7.087  17.211  0.00  0.00    +0.000 A 
ATOM      8  C   UNL     1       3.906   7.780  17.127  0.00  0.00    +0.000 A 
ATOM      9  C   UNL     1       2.894   7.533  18.057  0.00  0.00    +0.000 A 
ATOM     10  C   UNL     1       3.129   6.679  19.140  0.00  0.00    +0.000 A 
ATOM     11  C   UNL     1       4.328   5.978  19.227  0.00  0.00    +0.000 A 
BRANCH   9  12
ATOM     12  O   UNL     1       1.695   8.181  17.857  0.00  0.00    +0.000 OA
BRANCH  12  13
ATOM     13  C   UNL     1       1.427   9.321  18.588  0.00  0.00    +0.000 A 
ATOM     14  C   UNL     1       1.824  10.526  18.007  0.00  0.00    +0.000 A 
ATOM     15  C   UNL     1       1.634  11.728  18.692  0.00  0.00    +0.000 A 
ATOM     16  C   UNL     1       1.050  11.727  19.959  0.00  0.00    +0.000 A 
ATOM     17  C   UNL     1       0.618  10.530  20.526  0.00  0.00    +0.000 A 
ATOM     18  C   UNL     1       0.774   9.335  19.826  0.00  0.00    +0.000 A 
ENDBRANCH  12  13
ENDBRANCH   9  12
ENDBRANCH   3   6
ENDBRANCH   1   3
BRANCH   1  19
ATOM     19  C   UNL     1       6.078   4.584  15.863  0.00  0.00    +0.000 C 
BRANCH  19  21
ATOM     20  O   UNL     1       7.806   5.423  14.353  0.00  0.00    +0.000 OA
ATOM     21  C   UNL     1       6.865   4.670  14.548  0.00  0.00    +0.000 C 
BRANCH  21  22
ATOM     22  O   UNL     1       6.394   3.827  13.592  0.00  0.00    +0.000 OA
ATOM     23  H   UNL     1       6.554   4.214  12.702  0.00  0.00    +0.000 HD
ENDBRANCH  21  22
ENDBRANCH  19  21
BRANCH  19  24
ATOM     24  C   UNL     1       5.067   3.442  15.713  0.00  0.00    +0.000 C 
BRANCH  24  25
ATOM     25  C   UNL     1       4.376   3.111  16.973  0.00  0.00    +0.000 C 
ATOM     26  C   UNL     1       3.735   2.935  17.965  0.00  0.00    +0.000 C 
BRANCH  26  27
ATOM     27  C   UNL     1       2.848   2.887  19.089  0.00  0.00    +0.000 A 
ATOM     28  C   UNL     1       3.401   2.605  20.342  0.00  0.00    +0.000 A 
ATOM     29  C   UNL     1       2.597   2.581  21.476  0.00  0.00    +0.000 A 
ATOM     30  C   UNL     1       1.231   2.834  21.364  0.00  0.00    +0.000 A 
ATOM     31  C   UNL     1       0.672   3.108  20.114  0.00  0.00    +0.000 A 
ATOM     32  C   UNL     1       1.480   3.135  18.972  0.00  0.00    +0.000 A 
ENDBRANCH  26  27
ENDBRANCH  24  25
ENDBRANCH  19  24
ENDBRANCH   1  19
TORSDOF 10
ENDMDL
