MODEL 1
REMARK VINA RESULT:      -8.2      0.000      0.000
REMARK  Name = 
REMARK  7 active torsions:
REMARK  status: ('A' for Active; 'I' for Inactive)
REMARK    1  A    between atoms: C_1  and  C_2
REMARK    2  A    between atoms: C_2  and  C_3
REMARK    3  A    between atoms: C_3  and  N_4
REMARK    4  A    between atoms: C_5  and  C_7
REMARK    5  A    between atoms: C_9  and  N_10
REMARK    6  A    between atoms: C_13  and  N_14
REMARK    7  A    between atoms: C_22  and  C_23
REMARK                            x       y       z     vdW  Elec       q    Type
REMARK                         _______ _______ _______ _____ _____    ______ ____
ROOT
ATOM      1  C   UNL     1       4.403   4.923  18.990  0.00  0.00    +0.000 A 
ATOM      2  C   UNL     1       3.713   6.135  18.955  0.00  0.00    +0.000 A 
ATOM      3  C   UNL     1       2.475   6.307  19.585  0.00  0.00    +0.000 A 
ATOM      4  C   UNL     1       1.902   5.194  20.202  0.00  0.00    +0.000 A 
ATOM      5  C   UNL     1       2.573   3.956  20.252  0.00  0.00    +0.000 A 
ATOM      6  C   UNL     1       3.835   3.827  19.641  0.00  0.00    +0.000 A 
ENDROOT
BRANCH   3   7
ATOM      7  N   UNL     1       1.902   7.566  19.576  0.00  0.00    +0.000 N 
ATOM      8  C   UNL     1       1.556   8.284  20.798  0.00  0.00    +0.000 C 
ATOM      9  C   UNL     1       0.325   9.138  20.474  0.00  0.00    +0.000 C 
ATOM     10  C   UNL     1       0.572  10.143  19.311  0.00  0.00    +0.000 C 
ATOM     11  C   UNL     1       1.137   9.334  18.111  0.00  0.00    +0.000 C 
ATOM     12  C   UNL     1       2.324   8.458  18.487  0.00  0.00    +0.000 C 
BRANCH  10  13
ATOM     13  N   UNL     1       1.425  11.294  19.715  0.00  0.00    +0.000 NA
ATOM     14  C   UNL     1       0.733  12.247  20.612  0.00  0.00    +0.000 C 
ATOM     15  C   UNL     1      -0.014  13.194  19.694  0.00  0.00    +0.000 C 
ATOM     16  C   UNL     1       0.958  13.387  18.552  0.00  0.00    +0.000 C 
ATOM     17  C   UNL     1       1.846  12.145  18.578  0.00  0.00    +0.000 C 
ENDBRANCH  10  13
ENDBRANCH   3   7
BRANCH   1  19
ATOM     18  N   UNL     1       5.876   4.868  17.042  0.00  0.00    +0.000 N 
ATOM     19  C   UNL     1       5.770   4.919  18.416  0.00  0.00    +0.000 C 
ATOM     20  O   UNL     1       6.743   4.970  19.160  0.00  0.00    +0.000 OA
ATOM     21  H   UNL     1       5.041   4.885  16.470  0.00  0.00    +0.000 HD
BRANCH  18  22
ATOM     22  C   UNL     1       7.163   4.739  16.400  0.00  0.00    +0.000 C 
BRANCH  22  24
ATOM     23  C   UNL     1       5.588   4.383  14.450  0.00  0.00    +0.000 C 
ATOM     24  C   UNL     1       7.031   4.596  14.885  0.00  0.00    +0.000 C 
ENDBRANCH  22  24
ENDBRANCH  18  22
ENDBRANCH   1  19
BRANCH   5  25
ATOM     25  C   UNL     1       1.973   2.793  21.004  0.00  0.00    +0.000 C 
ATOM     26  F   UNL     1       1.641   1.736  20.210  0.00  0.00    +0.000 F 
ATOM     27  F   UNL     1       2.814   2.298  21.952  0.00  0.00    +0.000 F 
ATOM     28  F   UNL     1       0.832   3.137  21.662  0.00  0.00    +0.000 F 
ENDBRANCH   5  25
TORSDOF 6
ENDMDL
MODEL 2
REMARK VINA RESULT:      -7.9      1.056      1.151
REMARK  Name = 
REMARK  7 active torsions:
REMARK  status: ('A' for Active; 'I' for Inactive)
REMARK    1  A    between atoms: C_1  and  C_2
REMARK    2  A    between atoms: C_2  and  C_3
REMARK    3  A    between atoms: C_3  and  N_4
REMARK    4  A    between atoms: C_5  and  C_7
REMARK    5  A    between atoms: C_9  and  N_10
REMARK    6  A    between atoms: C_13  and  N_14
REMARK    7  A    between atoms: C_22  and  C_23
REMARK                            x       y       z     vdW  Elec       q    Type
REMARK                         _______ _______ _______ _____ _____    ______ ____
ROOT
ATOM      1  C   UNL     1       3.863   5.204  18.013  0.00  0.00    +0.000 A 
ATOM      2  C   UNL     1       3.177   6.404  18.194  0.00  0.00    +0.000 A 
ATOM      3  C   UNL     1       2.303   6.611  19.268  0.00  0.00    +0.000 A 
ATOM      4  C   UNL     1       2.075   5.538  20.132  0.00  0.00    +0.000 A 
ATOM      5  C   UNL     1       2.751   4.312  19.974  0.00  0.00    +0.000 A 
ATOM      6  C   UNL     1       3.653   4.151  18.906  0.00  0.00    +0.000 A 
ENDROOT
BRANCH   3   7
ATOM      7  N   UNL     1       1.732   7.861  19.420  0.00  0.00    +0.000 N 
ATOM      8  C   UNL     1       1.542   8.488  20.725  0.00  0.00    +0.000 C 
ATOM      9  C   UNL     1       0.280   9.350  20.619  0.00  0.00    +0.000 C 
ATOM     10  C   UNL     1       0.377  10.438  19.510  0.00  0.00    +0.000 C 
ATOM     11  C   UNL     1       0.788   9.722  18.193  0.00  0.00    +0.000 C 
ATOM     12  C   UNL     1       2.013   8.832  18.354  0.00  0.00    +0.000 C 
BRANCH  10  13
ATOM     13  N   UNL     1       1.273  11.565  19.885  0.00  0.00    +0.000 NA
ATOM     14  C   UNL     1       0.632  12.544  20.791  0.00  0.00    +0.000 C 
ATOM     15  C   UNL     1      -0.109  13.507  19.885  0.00  0.00    +0.000 C 
ATOM     16  C   UNL     1       0.840  13.664  18.719  0.00  0.00    +0.000 C 
ATOM     17  C   UNL     1       1.692  12.397  18.732  0.00  0.00    +0.000 C 
ENDBRANCH  10  13
ENDBRANCH   3   7
BRANCH   1  19
ATOM     18  N   UNL     1       5.029   3.980  16.250  0.00  0.00    +0.000 N 
ATOM     19  C   UNL     1       4.871   5.170  16.926  0.00  0.00    +0.000 C 
ATOM     20  O   UNL     1       5.512   6.182  16.660  0.00  0.00    +0.000 OA
ATOM     21  H   UNL     1       4.436   3.191  16.471  0.00  0.00    +0.000 HD
BRANCH  18  22
ATOM     22  C   UNL     1       6.069   3.820  15.260  0.00  0.00    +0.000 C 
BRANCH  22  24
ATOM     23  C   UNL     1       6.243   3.473  12.759  0.00  0.00    +0.000 C 
ATOM     24  C   UNL     1       5.617   4.290  13.880  0.00  0.00    +0.000 C 
ENDBRANCH  22  24
ENDBRANCH  18  22
ENDBRANCH   1  19
BRANCH   5  25
ATOM     25  C   UNL     1       2.556   3.200  20.976  0.00  0.00    +0.000 C 
ATOM     26  F   UNL     1       1.496   2.389  20.699  0.00  0.00    +0.000 F 
ATOM     27  F   UNL     1       3.640   2.381  21.060  0.00  0.00    +0.000 F 
ATOM     28  F   UNL     1       2.346   3.670  22.236  0.00  0.00    +0.000 F 
ENDBRANCH   5  25
TORSDOF 6
ENDMDL
MODEL 3
REMARK VINA RESULT:      -7.9      1.308      1.805
REMARK  Name = 
REMARK  7 active torsions:
REMARK  status: ('A' for Active; 'I' for Inactive)
REMARK    1  A    between atoms: C_1  and  C_2
REMARK    2  A    between atoms: C_2  and  C_3
REMARK    3  A    between atoms: C_3  and  N_4
REMARK    4  A    between atoms: C_5  and  C_7
REMARK    5  A    between atoms: C_9  and  N_10
REMARK    6  A    between atoms: C_13  and  N_14
REMARK    7  A    between atoms: C_22  and  C_23
REMARK                            x       y       z     vdW  Elec       q    Type
REMARK                         _______ _______ _______ _____ _____    ______ ____
ROOT
ATOM      1  C   UNL     1       4.366   5.162  19.221  0.00  0.00    +0.000 A 
ATOM      2  C   UNL     1       3.621   6.340  19.224  0.00  0.00    +0.000 A 
ATOM      3  C   UNL     1       2.346   6.416  19.797  0.00  0.00    +0.000 A 
ATOM      4  C   UNL     1       1.797   5.240  20.312  0.00  0.00    +0.000 A 
ATOM      5  C   UNL     1       2.523   4.033  20.320  0.00  0.00    +0.000 A 
ATOM      6  C   UNL     1       3.819   4.001  19.771  0.00  0.00    +0.000 A 
ENDROOT
BRANCH   3   7
ATOM      7  N   UNL     1       1.714   7.645  19.835  0.00  0.00    +0.000 N 
ATOM      8  C   UNL     1       1.385   8.325  21.084  0.00  0.00    +0.000 C 
ATOM      9  C   UNL     1       0.103   9.124  20.827  0.00  0.00    +0.000 C 
ATOM     10  C   UNL     1       0.252  10.159  19.675  0.00  0.00    +0.000 C 
ATOM     11  C   UNL     1       0.804   9.399  18.437  0.00  0.00    +0.000 C 
ATOM     12  C   UNL     1       2.046   8.575  18.747  0.00  0.00    +0.000 C 
BRANCH  10  13
ATOM     13  N   UNL     1       1.065  11.343  20.065  0.00  0.00    +0.000 NA
ATOM     14  C   UNL     1       0.327  12.304  20.915  0.00  0.00    +0.000 C 
ATOM     15  C   UNL     1      -0.419  13.204  19.951  0.00  0.00    +0.000 C 
ATOM     16  C   UNL     1       0.576  13.388  18.828  0.00  0.00    +0.000 C 
ATOM     17  C   UNL     1       1.494  12.171  18.913  0.00  0.00    +0.000 C 
ENDBRANCH  10  13
ENDBRANCH   3   7
BRANCH   1  19
ATOM     18  N   UNL     1       6.147   6.455  18.161  0.00  0.00    +0.000 N 
ATOM     19  C   UNL     1       5.759   5.257  18.721  0.00  0.00    +0.000 C 
ATOM     20  O   UNL     1       6.510   4.292  18.826  0.00  0.00    +0.000 OA
ATOM     21  H   UNL     1       5.506   7.238  18.150  0.00  0.00    +0.000 HD
BRANCH  18  22
ATOM     22  C   UNL     1       7.442   6.600  17.540  0.00  0.00    +0.000 C 
BRANCH  22  24
ATOM     23  C   UNL     1       8.526   8.674  18.506  0.00  0.00    +0.000 C 
ATOM     24  C   UNL     1       7.803   8.066  17.312  0.00  0.00    +0.000 C 
ENDBRANCH  22  24
ENDBRANCH  18  22
ENDBRANCH   1  19
BRANCH   5  25
ATOM     25  C   UNL     1       1.943   2.798  20.966  0.00  0.00    +0.000 C 
ATOM     26  F   UNL     1       0.749   3.010  21.587  0.00  0.00    +0.000 F 
ATOM     27  F   UNL     1       1.725   1.797  20.069  0.00  0.00    +0.000 F 
ATOM     28  F   UNL     1       2.768   2.275  21.914  0.00  0.00    +0.000 F 
ENDBRANCH   5  25
TORSDOF 6
ENDMDL
MODEL 4
REMARK VINA RESULT:      -7.8      0.866      1.152
REMARK  Name = 
REMARK  7 active torsions:
REMARK  status: ('A' for Active; 'I' for Inactive)
REMARK    1  A    between atoms: C_1  and  C_2
REMARK    2  A    between atoms: C_2  and  C_3
REMARK    3  A    between atoms: C_3  and  N_4
REMARK    4  A    between atoms: C_5  and  C_7
REMARK    5  A    between atoms: C_9  and  N_10
REMARK    6  A    between atoms: C_13  and  N_14
REMARK    7  A    between atoms: C_22  and  C_23
REMARK                            x       y       z     vdW  Elec       q    Type
REMARK                         _______ _______ _______ _____ _____    ______ ____
ROOT
ATOM      1  C   UNL     1       4.168   5.564  18.592  0.00  0.00    +0.000 A 
ATOM      2  C   UNL     1       3.406   6.730  18.663  0.00  0.00    +0.000 A 
ATOM      3  C   UNL     1       2.287   6.841  19.497  0.00  0.00    +0.000 A 
ATOM      4  C   UNL     1       1.901   5.708  20.216  0.00  0.00    +0.000 A 
ATOM      5  C   UNL     1       2.647   4.515  20.163  0.00  0.00    +0.000 A 
ATOM      6  C   UNL     1       3.790   4.449  19.344  0.00  0.00    +0.000 A 
ENDROOT
BRANCH   3   7
ATOM      7  N   UNL     1       1.642   8.062  19.572  0.00  0.00    +0.000 N 
ATOM      8  C   UNL     1       1.356   8.725  20.841  0.00  0.00    +0.000 C 
ATOM      9  C   UNL     1       0.055   9.510  20.643  0.00  0.00    +0.000 C 
ATOM     10  C   UNL     1       0.144  10.559  19.496  0.00  0.00    +0.000 C 
ATOM     11  C   UNL     1       0.655   9.817  18.230  0.00  0.00    +0.000 C 
ATOM     12  C   UNL     1       1.919   9.006  18.481  0.00  0.00    +0.000 C 
BRANCH  10  13
ATOM     13  N   UNL     1       0.959  11.748  19.865  0.00  0.00    +0.000 NA
ATOM     14  C   UNL     1       0.261  12.668  20.791  0.00  0.00    +0.000 C 
ATOM     15  C   UNL     1      -0.568  13.579  19.908  0.00  0.00    +0.000 C 
ATOM     16  C   UNL     1       0.345  13.817  18.726  0.00  0.00    +0.000 C 
ATOM     17  C   UNL     1       1.291  12.618  18.712  0.00  0.00    +0.000 C 
ENDBRANCH  10  13
ENDBRANCH   3   7
BRANCH   1  19
ATOM     18  N   UNL     1       5.934   4.437  17.336  0.00  0.00    +0.000 N 
ATOM     19  C   UNL     1       5.412   5.630  17.789  0.00  0.00    +0.000 C 
ATOM     20  O   UNL     1       5.924   6.719  17.549  0.00  0.00    +0.000 OA
ATOM     21  H   UNL     1       5.443   3.571  17.514  0.00  0.00    +0.000 HD
BRANCH  18  22
ATOM     22  C   UNL     1       7.205   4.395  16.652  0.00  0.00    +0.000 C 
BRANCH  22  24
ATOM     23  C   UNL     1       5.950   3.948  14.499  0.00  0.00    +0.000 C 
ATOM     24  C   UNL     1       7.065   4.737  15.170  0.00  0.00    +0.000 C 
ENDBRANCH  22  24
ENDBRANCH  18  22
ENDBRANCH   1  19
BRANCH   5  25
ATOM     25  C   UNL     1       2.261   3.334  21.021  0.00  0.00    +0.000 C 
ATOM     26  F   UNL     1       2.354   3.573  22.359  0.00  0.00    +0.000 F 
ATOM     27  F   UNL     1       0.980   2.930  20.801  0.00  0.00    +0.000 F 
ATOM     28  F   UNL     1       3.042   2.245  20.781  0.00  0.00    +0.000 F 
ENDBRANCH   5  25
TORSDOF 6
ENDMDL
MODEL 5
REMARK VINA RESULT:      -7.8      2.348      7.477
REMARK  Name = 
REMARK  7 active torsions:
REMARK  status: ('A' for Active; 'I' for Inactive)
REMARK    1  A    between atoms: C_1  and  C_2
REMARK    2  A    between atoms: C_2  and  C_3
REMARK    3  A    between atoms: C_3  and  N_4
REMARK    4  A    between atoms: C_5  and  C_7
REMARK    5  A    between atoms: C_9  and  N_10
REMARK    6  A    between atoms: C_13  and  N_14
REMARK    7  A    between atoms: C_22  and  C_23
REMARK                            x       y       z     vdW  Elec       q    Type
REMARK                         _______ _______ _______ _____ _____    ______ ____
ROOT
ATOM      1  C   UNL     1       2.458   6.344  19.945  0.00  0.00    +0.000 A 
ATOM      2  C   UNL     1       3.421   6.161  18.953  0.00  0.00    +0.000 A 
ATOM      3  C   UNL     1       3.927   4.897  18.627  0.00  0.00    +0.000 A 
ATOM      4  C   UNL     1       3.487   3.810  19.384  0.00  0.00    +0.000 A 
ATOM      5  C   UNL     1       2.518   3.962  20.395  0.00  0.00    +0.000 A 
ATOM      6  C   UNL     1       2.001   5.242  20.671  0.00  0.00    +0.000 A 
ENDROOT
BRANCH   3   7
ATOM      7  N   UNL     1       4.813   4.796  17.570  0.00  0.00    +0.000 N 
ATOM      8  C   UNL     1       4.584   3.914  16.431  0.00  0.00    +0.000 C 
ATOM      9  C   UNL     1       5.963   3.456  15.944  0.00  0.00    +0.000 C 
ATOM     10  C   UNL     1       6.886   4.639  15.531  0.00  0.00    +0.000 C 
ATOM     11  C   UNL     1       6.915   5.641  16.719  0.00  0.00    +0.000 C 
ATOM     12  C   UNL     1       5.526   6.028  17.207  0.00  0.00    +0.000 C 
BRANCH  10  13
ATOM     13  N   UNL     1       6.490   5.254  14.236  0.00  0.00    +0.000 NA
ATOM     14  C   UNL     1       5.432   4.498  13.530  0.00  0.00    +0.000 C 
ATOM     15  C   UNL     1       6.159   3.431  12.737  0.00  0.00    +0.000 C 
ATOM     16  C   UNL     1       7.391   4.159  12.250  0.00  0.00    +0.000 C 
ATOM     17  C   UNL     1       7.589   5.303  13.243  0.00  0.00    +0.000 C 
ENDBRANCH  10  13
ENDBRANCH   3   7
BRANCH   1  19
ATOM     18  N   UNL     1       1.452   8.083  21.335  0.00  0.00    +0.000 N 
ATOM     19  C   UNL     1       1.897   7.710  20.085  0.00  0.00    +0.000 C 
ATOM     20  O   UNL     1       1.856   8.452  19.110  0.00  0.00    +0.000 OA
ATOM     21  H   UNL     1       1.561   7.453  22.119  0.00  0.00    +0.000 HD
BRANCH  18  22
ATOM     22  C   UNL     1       0.782   9.346  21.538  0.00  0.00    +0.000 C 
BRANCH  22  24
ATOM     23  C   UNL     1      -0.866  10.618  22.979  0.00  0.00    +0.000 C 
ATOM     24  C   UNL     1      -0.281   9.257  22.631  0.00  0.00    +0.000 C 
ENDBRANCH  22  24
ENDBRANCH  18  22
ENDBRANCH   1  19
BRANCH   5  25
ATOM     25  C   UNL     1       1.993   2.757  21.137  0.00  0.00    +0.000 C 
ATOM     26  F   UNL     1       0.944   3.032  21.962  0.00  0.00    +0.000 F 
ATOM     27  F   UNL     1       1.560   1.779  20.296  0.00  0.00    +0.000 F 
ATOM     28  F   UNL     1       2.943   2.180  21.922  0.00  0.00    +0.000 F 
ENDBRANCH   5  25
TORSDOF 6
ENDMDL
MODEL 6
REMARK VINA RESULT:      -7.7      0.950      1.733
REMARK  Name = 
REMARK  7 active torsions:
REMARK  status: ('A' for Active; 'I' for Inactive)
REMARK    1  A    between atoms: C_1  and  C_2
REMARK    2  A    between atoms: C_2  and  C_3
REMARK    3  A    between atoms: C_3  and  N_4
REMARK    4  A    between atoms: C_5  and  C_7
REMARK    5  A    between atoms: C_9  and  N_10
REMARK    6  A    between atoms: C_13  and  N_14
REMARK    7  A    between atoms: C_22  and  C_23
REMARK                            x       y       z     vdW  Elec       q    Type
REMARK                         _______ _______ _______ _____ _____    ______ ____
ROOT
ATOM      1  C   UNL     1       4.443   5.012  18.960  0.00  0.00    +0.000 A 
ATOM      2  C   UNL     1       3.759   6.228  18.952  0.00  0.00    +0.000 A 
ATOM      3  C   UNL     1       2.527   6.396  19.595  0.00  0.00    +0.000 A 
ATOM      4  C   UNL     1       1.952   5.274  20.196  0.00  0.00    +0.000 A 
ATOM      5  C   UNL     1       2.616   4.031  20.217  0.00  0.00    +0.000 A 
ATOM      6  C   UNL     1       3.873   3.907  19.595  0.00  0.00    +0.000 A 
ENDROOT
BRANCH   3   7
ATOM      7  N   UNL     1       1.961   7.657  19.613  0.00  0.00    +0.000 N 
ATOM      8  C   UNL     1       1.509   8.337  18.403  0.00  0.00    +0.000 C 
ATOM      9  C   UNL     1       1.712   9.837  18.639  0.00  0.00    +0.000 C 
ATOM     10  C   UNL     1       0.933  10.370  19.876  0.00  0.00    +0.000 C 
ATOM     11  C   UNL     1       1.307   9.465  21.083  0.00  0.00    +0.000 C 
ATOM     12  C   UNL     1       1.144   7.980  20.791  0.00  0.00    +0.000 C 
BRANCH  10  13
ATOM     13  N   UNL     1      -0.532  10.473  19.635  0.00  0.00    +0.000 NA
ATOM     14  C   UNL     1      -0.865  11.016  18.299  0.00  0.00    +0.000 C 
ATOM     15  C   UNL     1      -0.841  12.523  18.458  0.00  0.00    +0.000 C 
ATOM     16  C   UNL     1      -1.456  12.723  19.825  0.00  0.00    +0.000 C 
ATOM     17  C   UNL     1      -1.219  11.405  20.559  0.00  0.00    +0.000 C 
ENDBRANCH  10  13
ENDBRANCH   3   7
BRANCH   1  19
ATOM     18  N   UNL     1       5.904   5.159  17.008  0.00  0.00    +0.000 N 
ATOM     19  C   UNL     1       5.805   5.011  18.375  0.00  0.00    +0.000 C 
ATOM     20  O   UNL     1       6.782   4.892  19.107  0.00  0.00    +0.000 OA
ATOM     21  H   UNL     1       5.070   5.310  16.455  0.00  0.00    +0.000 HD
BRANCH  18  22
ATOM     22  C   UNL     1       7.178   5.049  16.338  0.00  0.00    +0.000 C 
BRANCH  22  24
ATOM     23  C   UNL     1       5.578   4.372  14.497  0.00  0.00    +0.000 C 
ATOM     24  C   UNL     1       7.016   4.718  14.856  0.00  0.00    +0.000 C 
ENDBRANCH  22  24
ENDBRANCH  18  22
ENDBRANCH   1  19
BRANCH   5  25
ATOM     25  C   UNL     1       2.016   2.858  20.953  0.00  0.00    +0.000 C 
ATOM     26  F   UNL     1       2.812   2.362  21.941  0.00  0.00    +0.000 F 
ATOM     27  F   UNL     1       0.832   3.169  21.548  0.00  0.00    +0.000 F 
ATOM     28  F   UNL     1       1.753   1.810  20.125  0.00  0.00    +0.000 F 
ENDBRANCH   5  25
TORSDOF 6
ENDMDL
MODEL 7
REMARK VINA RESULT:      -7.6      1.645      1.989
REMARK  Name = 
REMARK  7 active torsions:
REMARK  status: ('A' for Active; 'I' for Inactive)
REMARK    1  A    between atoms: C_1  and  C_2
REMARK    2  A    between atoms: C_2  and  C_3
REMARK    3  A    between atoms: C_3  and  N_4
REMARK    4  A    between atoms: C_5  and  C_7
REMARK    5  A    between atoms: C_9  and  N_10
REMARK    6  A    between atoms: C_13  and  N_14
REMARK    7  A    between atoms: C_22  and  C_23
REMARK                            x       y       z     vdW  Elec       q    Type
REMARK                         _______ _______ _______ _____ _____    ______ ____
ROOT
ATOM      1  C   UNL     1       3.737   5.876  18.805  0.00  0.00    +0.000 A 
ATOM      2  C   UNL     1       2.969   7.010  19.068  0.00  0.00    +0.000 A 
ATOM      3  C   UNL     1       1.918   7.001  19.993  0.00  0.00    +0.000 A 
ATOM      4  C   UNL     1       1.604   5.786  20.605  0.00  0.00    +0.000 A 
ATOM      5  C   UNL     1       2.359   4.623  20.357  0.00  0.00    +0.000 A 
ATOM      6  C   UNL     1       3.435   4.676  19.451  0.00  0.00    +0.000 A 
ENDROOT
BRANCH   3   7
ATOM      7  N   UNL     1       1.265   8.191  20.259  0.00  0.00    +0.000 N 
ATOM      8  C   UNL     1       1.152   8.745  21.604  0.00  0.00    +0.000 C 
ATOM      9  C   UNL     1      -0.180   9.501  21.658  0.00  0.00    +0.000 C 
ATOM     10  C   UNL     1      -0.278  10.637  20.599  0.00  0.00    +0.000 C 
ATOM     11  C   UNL     1       0.060  10.013  19.217  0.00  0.00    +0.000 C 
ATOM     12  C   UNL     1       1.363   9.225  19.219  0.00  0.00    +0.000 C 
BRANCH  10  13
ATOM     13  N   UNL     1       0.556  11.821  20.944  0.00  0.00    +0.000 NA
ATOM     14  C   UNL     1      -0.126  12.771  21.851  0.00  0.00    +0.000 C 
ATOM     15  C   UNL     1      -0.939  13.677  20.949  0.00  0.00    +0.000 C 
ATOM     16  C   UNL     1      -0.023  13.875  19.763  0.00  0.00    +0.000 C 
ATOM     17  C   UNL     1       0.903  12.661  19.774  0.00  0.00    +0.000 C 
ENDBRANCH  10  13
ENDBRANCH   3   7
BRANCH   1  19
ATOM     18  N   UNL     1       6.151   5.769  18.450  0.00  0.00    +0.000 N 
ATOM     19  C   UNL     1       4.912   6.060  17.920  0.00  0.00    +0.000 C 
ATOM     20  O   UNL     1       4.752   6.448  16.768  0.00  0.00    +0.000 OA
ATOM     21  H   UNL     1       6.225   5.398  19.389  0.00  0.00    +0.000 HD
BRANCH  18  22
ATOM     22  C   UNL     1       7.359   6.033  17.704  0.00  0.00    +0.000 C 
BRANCH  22  24
ATOM     23  C   UNL     1       7.764   8.531  17.627  0.00  0.00    +0.000 C 
ATOM     24  C   UNL     1       8.140   7.211  18.284  0.00  0.00    +0.000 C 
ENDBRANCH  22  24
ENDBRANCH  18  22
ENDBRANCH   1  19
BRANCH   5  25
ATOM     25  C   UNL     1       2.058   3.345  21.101  0.00  0.00    +0.000 C 
ATOM     26  F   UNL     1       2.782   2.273  20.672  0.00  0.00    +0.000 F 
ATOM     27  F   UNL     1       2.303   3.450  22.436  0.00  0.00    +0.000 F 
ATOM     28  F   UNL     1       0.751   2.979  20.991  0.00  0.00    +0.000 F 
ENDBRANCH   5  25
TORSDOF 6
ENDMDL
MODEL 8
REMARK VINA RESULT:      -7.6      1.975      2.827
REMARK  Name = 
REMARK  7 active torsions:
REMARK  status: ('A' for Active; 'I' for Inactive)
REMARK    1  A    between atoms: C_1  and  C_2
REMARK    2  A    between atoms: C_2  and  C_3
REMARK    3  A    between atoms: C_3  and  N_4
REMARK    4  A    between atoms: C_5  and  C_7
REMARK    5  A    between atoms: C_9  and  N_10
REMARK    6  A    between atoms: C_13  and  N_14
REMARK    7  A    between atoms: C_22  and  C_23
REMARK                            x       y       z     vdW  Elec       q    Type
REMARK                         _______ _______ _______ _____ _____    ______ ____
ROOT
ATOM      1  C   UNL     1       3.653   5.754  18.654  0.00  0.00    +0.000 A 
ATOM      2  C   UNL     1       3.050   6.935  19.086  0.00  0.00    +0.000 A 
ATOM      3  C   UNL     1       1.944   6.939  19.944  0.00  0.00    +0.000 A 
ATOM      4  C   UNL     1       1.403   5.704  20.308  0.00  0.00    +0.000 A 
ATOM      5  C   UNL     1       1.987   4.493  19.885  0.00  0.00    +0.000 A 
ATOM      6  C   UNL     1       3.123   4.526  19.054  0.00  0.00    +0.000 A 
ENDROOT
BRANCH   3   7
ATOM      7  N   UNL     1       1.464   8.155  20.394  0.00  0.00    +0.000 N 
ATOM      8  C   UNL     1       0.867   9.146  19.503  0.00  0.00    +0.000 C 
ATOM      9  C   UNL     1       1.194  10.522  20.093  0.00  0.00    +0.000 C 
ATOM     10  C   UNL     1       0.653  10.707  21.541  0.00  0.00    +0.000 C 
ATOM     11  C   UNL     1       1.159   9.502  22.382  0.00  0.00    +0.000 C 
ATOM     12  C   UNL     1       0.864   8.156  21.735  0.00  0.00    +0.000 C 
BRANCH  10  13
ATOM     13  N   UNL     1      -0.823  10.893  21.586  0.00  0.00    +0.000 NA
ATOM     14  C   UNL     1      -1.287  12.065  20.810  0.00  0.00    +0.000 C 
ATOM     15  C   UNL     1      -1.165  13.246  21.752  0.00  0.00    +0.000 C 
ATOM     16  C   UNL     1      -1.598  12.661  23.078  0.00  0.00    +0.000 C 
ATOM     17  C   UNL     1      -1.344  11.161  22.947  0.00  0.00    +0.000 C 
ENDBRANCH  10  13
ENDBRANCH   3   7
BRANCH   1  19
ATOM     18  N   UNL     1       6.081   5.541  18.501  0.00  0.00    +0.000 N 
ATOM     19  C   UNL     1       4.906   5.894  17.874  0.00  0.00    +0.000 C 
ATOM     20  O   UNL     1       4.860   6.300  16.717  0.00  0.00    +0.000 OA
ATOM     21  H   UNL     1       6.059   5.158  19.437  0.00  0.00    +0.000 HD
BRANCH  18  22
ATOM     22  C   UNL     1       7.358   5.758  17.862  0.00  0.00    +0.000 C 
BRANCH  22  24
ATOM     23  C   UNL     1       7.799   8.237  17.601  0.00  0.00    +0.000 C 
ATOM     24  C   UNL     1       8.073   6.986  18.422  0.00  0.00    +0.000 C 
ENDBRANCH  22  24
ENDBRANCH  18  22
ENDBRANCH   1  19
BRANCH   5  25
ATOM     25  C   UNL     1       1.438   3.172  20.367  0.00  0.00    +0.000 C 
ATOM     26  F   UNL     1       1.124   3.157  21.693  0.00  0.00    +0.000 F 
ATOM     27  F   UNL     1       0.303   2.811  19.710  0.00  0.00    +0.000 F 
ATOM     28  F   UNL     1       2.318   2.150  20.181  0.00  0.00    +0.000 F 
ENDBRANCH   5  25
TORSDOF 6
ENDMDL
MODEL 9
REMARK VINA RESULT:      -7.5      1.432      1.951
REMARK  Name = 
REMARK  7 active torsions:
REMARK  status: ('A' for Active; 'I' for Inactive)
REMARK    1  A    between atoms: C_1  and  C_2
REMARK    2  A    between atoms: C_2  and  C_3
REMARK    3  A    between atoms: C_3  and  N_4
REMARK    4  A    between atoms: C_5  and  C_7
REMARK    5  A    between atoms: C_9  and  N_10
REMARK    6  A    between atoms: C_13  and  N_14
REMARK    7  A    between atoms: C_22  and  C_23
REMARK                            x       y       z     vdW  Elec       q    Type
REMARK                         _______ _______ _______ _____ _____    ______ ____
ROOT
ATOM      1  C   UNL     1       3.304   6.061  18.554  0.00  0.00    +0.000 A 
ATOM      2  C   UNL     1       2.603   7.185  18.988  0.00  0.00    +0.000 A 
ATOM      3  C   UNL     1       1.747   7.151  20.096  0.00  0.00    +0.000 A 
ATOM      4  C   UNL     1       1.553   5.920  20.725  0.00  0.00    +0.000 A 
ATOM      5  C   UNL     1       2.244   4.765  20.308  0.00  0.00    +0.000 A 
ATOM      6  C   UNL     1       3.127   4.843  19.215  0.00  0.00    +0.000 A 
ENDROOT
BRANCH   3   7
ATOM      7  N   UNL     1       1.161   8.332  20.511  0.00  0.00    +0.000 N 
ATOM      8  C   UNL     1       1.291   8.842  21.873  0.00  0.00    +0.000 C 
ATOM      9  C   UNL     1      -0.005   9.597  22.186  0.00  0.00    +0.000 C 
ATOM     10  C   UNL     1      -0.282  10.767  21.199  0.00  0.00    +0.000 C 
ATOM     11  C   UNL     1      -0.198  10.189  19.759  0.00  0.00    +0.000 C 
ATOM     12  C   UNL     1       1.079   9.400  19.505  0.00  0.00    +0.000 C 
BRANCH  10  13
ATOM     13  N   UNL     1       0.609  11.937  21.428  0.00  0.00    +0.000 NA
ATOM     14  C   UNL     1      -0.095  13.101  22.013  0.00  0.00    +0.000 C 
ATOM     15  C   UNL     1      -0.685  13.850  20.835  0.00  0.00    +0.000 C 
ATOM     16  C   UNL     1       0.402  13.733  19.789  0.00  0.00    +0.000 C 
ATOM     17  C   UNL     1       1.194  12.489  20.183  0.00  0.00    +0.000 C 
ENDBRANCH  10  13
ENDBRANCH   3   7
BRANCH   1  19
ATOM     18  N   UNL     1       4.703   5.156  16.768  0.00  0.00    +0.000 N 
ATOM     19  C   UNL     1       4.290   6.270  17.467  0.00  0.00    +0.000 C 
ATOM     20  O   UNL     1       4.693   7.402  17.222  0.00  0.00    +0.000 OA
ATOM     21  H   UNL     1       4.297   4.252  16.973  0.00  0.00    +0.000 HD
BRANCH  18  22
ATOM     22  C   UNL     1       5.749   5.247  15.776  0.00  0.00    +0.000 C 
BRANCH  22  24
ATOM     23  C   UNL     1       7.490   4.646  17.512  0.00  0.00    +0.000 C 
ATOM     24  C   UNL     1       6.940   4.358  16.123  0.00  0.00    +0.000 C 
ENDBRANCH  22  24
ENDBRANCH  18  22
ENDBRANCH   1  19
BRANCH   5  25
ATOM     25  C   UNL     1       2.086   3.467  21.063  0.00  0.00    +0.000 C 
ATOM     26  F   UNL     1       2.373   3.565  22.392  0.00  0.00    +0.000 F 
ATOM     27  F   UNL     1       0.820   2.974  20.989  0.00  0.00    +0.000 F 
ATOM     28  F   UNL     1       2.896   2.486  20.579  0.00  0.00    +0.000 F 
ENDBRANCH   5  25
TORSDOF 6
ENDMDL
