MODEL 1
REMARK VINA RESULT:      -7.6      0.000      0.000
REMARK  Name = 
REMARK  3 active torsions:
REMARK  status: ('A' for Active; 'I' for Inactive)
REMARK    1  A    between atoms: C_1  and  O_2
REMARK    2  A    between atoms: O_2  and  C_3
REMARK    3  A    between atoms: C_6  and  C_7
REMARK                            x       y       z     vdW  Elec       q    Type
REMARK                         _______ _______ _______ _____ _____    ______ ____
ROOT
ATOM      1  C   UNL     1       4.012   3.844  17.721  0.00  0.00    +0.000 C 
ATOM      2  C   UNL     1       2.803   3.534  16.799  0.00  0.00    +0.000 C 
ATOM      3  C   UNL     1       1.674   4.432  17.274  0.00  0.00    +0.000 C 
ATOM      4  C   UNL     1       2.388   5.506  18.051  0.00  0.00    +0.000 C 
ATOM      5  O   UNL     1       1.940   6.615  18.301  0.00  0.00    +0.000 OA
ATOM      6  N   UNL     1       3.529   4.914  18.613  0.00  0.00    +0.000 N 
ATOM      7  C   UNL     1       3.245   4.286  19.859  0.00  0.00    +0.000 A 
ATOM      8  C   UNL     1       2.467   4.762  20.898  0.00  0.00    +0.000 A 
ATOM      9  C   UNL     1       2.077   3.851  21.879  0.00  0.00    +0.000 A 
ATOM     10  C   UNL     1       2.500   2.509  21.817  0.00  0.00    +0.000 A 
ATOM     11  C   UNL     1       3.320   2.065  20.774  0.00  0.00    +0.000 A 
ATOM     12  C   UNL     1       3.647   2.964  19.776  0.00  0.00    +0.000 A 
ATOM     13  N   UNL     1       4.343   2.669  18.575  0.00  0.00    +0.000 N 
ATOM     14  H   UNL     1       5.337   2.711  18.809  0.00  0.00    +0.000 HD
ENDROOT
BRANCH   1  18
ATOM     15  C   UNL     1       7.138   5.040  14.921  0.00  0.00    +0.000 A 
ATOM     16  C   UNL     1       7.167   5.511  16.239  0.00  0.00    +0.000 A 
ATOM     17  C   UNL     1       6.221   5.087  17.186  0.00  0.00    +0.000 A 
ATOM     18  C   UNL     1       5.211   4.188  16.824  0.00  0.00    +0.000 A 
ATOM     19  C   UNL     1       5.246   3.662  15.512  0.00  0.00    +0.000 A 
ATOM     20  C   UNL     1       6.183   4.095  14.567  0.00  0.00    +0.000 A 
BRANCH  15  22
ATOM     21  C   UNL     1       7.935   5.306  12.693  0.00  0.00    +0.000 C 
ATOM     22  O   UNL     1       8.058   5.604  14.080  0.00  0.00    +0.000 OA
ENDBRANCH  15  22
ENDBRANCH   1  18
TORSDOF 2
ENDMDL
MODEL 2
REMARK VINA RESULT:      -7.5      1.929      2.351
REMARK  Name = 
REMARK  3 active torsions:
REMARK  status: ('A' for Active; 'I' for Inactive)
REMARK    1  A    between atoms: C_1  and  O_2
REMARK    2  A    between atoms: O_2  and  C_3
REMARK    3  A    between atoms: C_6  and  C_7
REMARK                            x       y       z     vdW  Elec       q    Type
REMARK                         _______ _______ _______ _____ _____    ______ ____
ROOT
ATOM      1  C   UNL     1       4.355   4.041  18.426  0.00  0.00    +0.000 C 
ATOM      2  C   UNL     1       4.073   3.065  17.253  0.00  0.00    +0.000 C 
ATOM      3  C   UNL     1       2.575   3.129  17.008  0.00  0.00    +0.000 C 
ATOM      4  C   UNL     1       2.172   4.428  17.655  0.00  0.00    +0.000 C 
ATOM      5  O   UNL     1       1.159   5.061  17.399  0.00  0.00    +0.000 OA
ATOM      6  N   UNL     1       3.041   4.631  18.738  0.00  0.00    +0.000 N 
ATOM      7  C   UNL     1       2.587   3.973  19.916  0.00  0.00    +0.000 A 
ATOM      8  C   UNL     1       1.301   3.911  20.418  0.00  0.00    +0.000 A 
ATOM      9  C   UNL     1       1.038   2.959  21.403  0.00  0.00    +0.000 A 
ATOM     10  C   UNL     1       2.068   2.125  21.881  0.00  0.00    +0.000 A 
ATOM     11  C   UNL     1       3.370   2.237  21.382  0.00  0.00    +0.000 A 
ATOM     12  C   UNL     1       3.600   3.142  20.363  0.00  0.00    +0.000 A 
ATOM     13  N   UNL     1       4.809   3.300  19.636  0.00  0.00    +0.000 N 
ATOM     14  H   UNL     1       5.393   3.924  20.195  0.00  0.00    +0.000 HD
ENDROOT
BRANCH   1  18
ATOM     15  C   UNL     1       7.210   7.129  17.259  0.00  0.00    +0.000 A 
ATOM     16  C   UNL     1       7.519   6.256  18.310  0.00  0.00    +0.000 A 
ATOM     17  C   UNL     1       6.658   5.204  18.662  0.00  0.00    +0.000 A 
ATOM     18  C   UNL     1       5.454   5.014  17.972  0.00  0.00    +0.000 A 
ATOM     19  C   UNL     1       5.197   5.854  16.864  0.00  0.00    +0.000 A 
ATOM     20  C   UNL     1       6.053   6.909  16.523  0.00  0.00    +0.000 A 
BRANCH  15  22
ATOM     21  C   UNL     1       8.262   9.057  18.177  0.00  0.00    +0.000 C 
ATOM     22  O   UNL     1       8.088   8.163  17.082  0.00  0.00    +0.000 OA
ENDBRANCH  15  22
ENDBRANCH   1  18
TORSDOF 2
ENDMDL
MODEL 3
REMARK VINA RESULT:      -7.5      2.948      6.706
REMARK  Name = 
REMARK  3 active torsions:
REMARK  status: ('A' for Active; 'I' for Inactive)
REMARK    1  A    between atoms: C_1  and  O_2
REMARK    2  A    between atoms: O_2  and  C_3
REMARK    3  A    between atoms: C_6  and  C_7
REMARK                            x       y       z     vdW  Elec       q    Type
REMARK                         _______ _______ _______ _____ _____    ______ ____
ROOT
ATOM      1  C   UNL     1       3.036   6.445  18.431  0.00  0.00    +0.000 C 
ATOM      2  C   UNL     1       1.994   5.446  17.861  0.00  0.00    +0.000 C 
ATOM      3  C   UNL     1       2.491   4.062  18.238  0.00  0.00    +0.000 C 
ATOM      4  C   UNL     1       3.449   4.333  19.369  0.00  0.00    +0.000 C 
ATOM      5  O   UNL     1       3.801   3.518  20.208  0.00  0.00    +0.000 OA
ATOM      6  N   UNL     1       4.016   5.594  19.130  0.00  0.00    +0.000 N 
ATOM      7  C   UNL     1       5.148   5.515  18.270  0.00  0.00    +0.000 A 
ATOM      8  C   UNL     1       6.177   4.592  18.296  0.00  0.00    +0.000 A 
ATOM      9  C   UNL     1       7.005   4.519  17.175  0.00  0.00    +0.000 A 
ATOM     10  C   UNL     1       6.807   5.387  16.084  0.00  0.00    +0.000 A 
ATOM     11  C   UNL     1       5.781   6.338  16.103  0.00  0.00    +0.000 A 
ATOM     12  C   UNL     1       4.931   6.356  17.193  0.00  0.00    +0.000 A 
ATOM     13  N   UNL     1       3.758   7.144  17.331  0.00  0.00    +0.000 N 
ATOM     14  H   UNL     1       4.070   8.053  17.678  0.00  0.00    +0.000 HD
ENDROOT
BRANCH   1  18
ATOM     15  C   UNL     1       0.547   9.284  20.618  0.00  0.00    +0.000 A 
ATOM     16  C   UNL     1       1.013   8.130  21.258  0.00  0.00    +0.000 A 
ATOM     17  C   UNL     1       1.877   7.233  20.609  0.00  0.00    +0.000 A 
ATOM     18  C   UNL     1       2.282   7.471  19.290  0.00  0.00    +0.000 A 
ATOM     19  C   UNL     1       1.867   8.681  18.688  0.00  0.00    +0.000 A 
ATOM     20  C   UNL     1       0.996   9.567  19.334  0.00  0.00    +0.000 A 
BRANCH  15  22
ATOM     21  C   UNL     1      -0.441   9.770  22.729  0.00  0.00    +0.000 C 
ATOM     22  O   UNL     1      -0.360  10.020  21.330  0.00  0.00    +0.000 OA
ENDBRANCH  15  22
ENDBRANCH   1  18
TORSDOF 2
ENDMDL
MODEL 4
REMARK VINA RESULT:      -7.3      2.347      3.598
REMARK  Name = 
REMARK  3 active torsions:
REMARK  status: ('A' for Active; 'I' for Inactive)
REMARK    1  A    between atoms: C_1  and  O_2
REMARK    2  A    between atoms: O_2  and  C_3
REMARK    3  A    between atoms: C_6  and  C_7
REMARK                            x       y       z     vdW  Elec       q    Type
REMARK                         _______ _______ _______ _____ _____    ______ ____
ROOT
ATOM      1  C   UNL     1       5.480   5.697  17.007  0.00  0.00    +0.000 C 
ATOM      2  C   UNL     1       6.727   6.096  17.839  0.00  0.00    +0.000 C 
ATOM      3  C   UNL     1       6.530   5.475  19.211  0.00  0.00    +0.000 C 
ATOM      4  C   UNL     1       5.507   4.398  18.962  0.00  0.00    +0.000 C 
ATOM      5  O   UNL     1       5.317   3.424  19.674  0.00  0.00    +0.000 OA
ATOM      6  N   UNL     1       4.688   4.848  17.915  0.00  0.00    +0.000 N 
ATOM      7  C   UNL     1       3.622   5.666  18.386  0.00  0.00    +0.000 A 
ATOM      8  C   UNL     1       2.817   5.467  19.491  0.00  0.00    +0.000 A 
ATOM      9  C   UNL     1       2.054   6.547  19.936  0.00  0.00    +0.000 A 
ATOM     10  C   UNL     1       2.089   7.776  19.249  0.00  0.00    +0.000 A 
ATOM     11  C   UNL     1       2.884   7.937  18.110  0.00  0.00    +0.000 A 
ATOM     12  C   UNL     1       3.682   6.877  17.718  0.00  0.00    +0.000 A 
ATOM     13  N   UNL     1       4.653   6.894  16.683  0.00  0.00    +0.000 N 
ATOM     14  H   UNL     1       4.143   6.709  15.817  0.00  0.00    +0.000 HD
ENDROOT
BRANCH   1  18
ATOM     15  C   UNL     1       6.576   4.070  13.109  0.00  0.00    +0.000 A 
ATOM     16  C   UNL     1       7.491   4.859  13.816  0.00  0.00    +0.000 A 
ATOM     17  C   UNL     1       7.201   5.335  15.105  0.00  0.00    +0.000 A 
ATOM     18  C   UNL     1       5.972   5.041  15.708  0.00  0.00    +0.000 A 
ATOM     19  C   UNL     1       5.094   4.178  15.012  0.00  0.00    +0.000 A 
ATOM     20  C   UNL     1       5.382   3.714  13.723  0.00  0.00    +0.000 A 
BRANCH  15  22
ATOM     21  C   UNL     1       6.772   2.398  11.425  0.00  0.00    +0.000 C 
ATOM     22  O   UNL     1       6.946   3.751  11.831  0.00  0.00    +0.000 OA
ENDBRANCH  15  22
ENDBRANCH   1  18
TORSDOF 2
ENDMDL
MODEL 5
REMARK VINA RESULT:      -7.2      3.049      6.682
REMARK  Name = 
REMARK  3 active torsions:
REMARK  status: ('A' for Active; 'I' for Inactive)
REMARK    1  A    between atoms: C_1  and  O_2
REMARK    2  A    between atoms: O_2  and  C_3
REMARK    3  A    between atoms: C_6  and  C_7
REMARK                            x       y       z     vdW  Elec       q    Type
REMARK                         _______ _______ _______ _____ _____    ______ ____
ROOT
ATOM      1  C   UNL     1       3.011   6.519  18.418  0.00  0.00    +0.000 C 
ATOM      2  C   UNL     1       2.076   5.479  17.745  0.00  0.00    +0.000 C 
ATOM      3  C   UNL     1       2.550   4.119  18.224  0.00  0.00    +0.000 C 
ATOM      4  C   UNL     1       3.343   4.443  19.462  0.00  0.00    +0.000 C 
ATOM      5  O   UNL     1       3.600   3.660  20.364  0.00  0.00    +0.000 OA
ATOM      6  N   UNL     1       3.909   5.712  19.264  0.00  0.00    +0.000 N 
ATOM      7  C   UNL     1       5.146   5.640  18.563  0.00  0.00    +0.000 A 
ATOM      8  C   UNL     1       6.183   4.745  18.750  0.00  0.00    +0.000 A 
ATOM      9  C   UNL     1       7.153   4.665  17.751  0.00  0.00    +0.000 A 
ATOM     10  C   UNL     1       7.081   5.499  16.619  0.00  0.00    +0.000 A 
ATOM     11  C   UNL     1       6.041   6.424  16.475  0.00  0.00    +0.000 A 
ATOM     12  C   UNL     1       5.054   6.448  17.443  0.00  0.00    +0.000 A 
ATOM     13  N   UNL     1       3.856   7.208  17.403  0.00  0.00    +0.000 N 
ATOM     14  H   UNL     1       4.099   8.134  17.761  0.00  0.00    +0.000 HD
ENDROOT
BRANCH   1  18
ATOM     15  C   UNL     1       0.846   9.528  20.721  0.00  0.00    +0.000 A 
ATOM     16  C   UNL     1       1.095   9.739  19.359  0.00  0.00    +0.000 A 
ATOM     17  C   UNL     1       1.721   8.760  18.571  0.00  0.00    +0.000 A 
ATOM     18  C   UNL     1       2.127   7.547  19.140  0.00  0.00    +0.000 A 
ATOM     19  C   UNL     1       1.796   7.319  20.496  0.00  0.00    +0.000 A 
ATOM     20  C   UNL     1       1.181   8.302  21.281  0.00  0.00    +0.000 A 
BRANCH  15  22
ATOM     21  C   UNL     1      -0.417  10.318  22.578  0.00  0.00    +0.000 C 
ATOM     22  O   UNL     1       0.316  10.597  21.389  0.00  0.00    +0.000 OA
ENDBRANCH  15  22
ENDBRANCH   1  18
TORSDOF 2
ENDMDL
MODEL 6
REMARK VINA RESULT:      -7.2      2.206      3.480
REMARK  Name = 
REMARK  3 active torsions:
REMARK  status: ('A' for Active; 'I' for Inactive)
REMARK    1  A    between atoms: C_1  and  O_2
REMARK    2  A    between atoms: O_2  and  C_3
REMARK    3  A    between atoms: C_6  and  C_7
REMARK                            x       y       z     vdW  Elec       q    Type
REMARK                         _______ _______ _______ _____ _____    ______ ____
ROOT
ATOM      1  C   UNL     1       5.090   5.703  17.239  0.00  0.00    +0.000 C 
ATOM      2  C   UNL     1       6.390   6.064  18.006  0.00  0.00    +0.000 C 
ATOM      3  C   UNL     1       6.345   5.270  19.300  0.00  0.00    +0.000 C 
ATOM      4  C   UNL     1       5.351   4.178  19.005  0.00  0.00    +0.000 C 
ATOM      5  O   UNL     1       5.268   3.116  19.602  0.00  0.00    +0.000 OA
ATOM      6  N   UNL     1       4.421   4.707  18.097  0.00  0.00    +0.000 N 
ATOM      7  C   UNL     1       3.369   5.404  18.756  0.00  0.00    +0.000 A 
ATOM      8  C   UNL     1       2.676   5.028  19.892  0.00  0.00    +0.000 A 
ATOM      9  C   UNL     1       1.912   6.002  20.533  0.00  0.00    +0.000 A 
ATOM     10  C   UNL     1       1.832   7.307  20.006  0.00  0.00    +0.000 A 
ATOM     11  C   UNL     1       2.512   7.648  18.832  0.00  0.00    +0.000 A 
ATOM     12  C   UNL     1       3.315   6.688  18.244  0.00  0.00    +0.000 A 
ATOM     13  N   UNL     1       4.187   6.884  17.141  0.00  0.00    +0.000 N 
ATOM     14  H   UNL     1       3.609   6.779  16.305  0.00  0.00    +0.000 HD
ENDROOT
BRANCH   1  18
ATOM     15  C   UNL     1       6.484   4.089  13.432  0.00  0.00    +0.000 A 
ATOM     16  C   UNL     1       5.140   3.948  13.798  0.00  0.00    +0.000 A 
ATOM     17  C   UNL     1       4.641   4.520  14.979  0.00  0.00    +0.000 A 
ATOM     18  C   UNL     1       5.489   5.238  15.831  0.00  0.00    +0.000 A 
ATOM     19  C   UNL     1       6.823   5.438  15.406  0.00  0.00    +0.000 A 
ATOM     20  C   UNL     1       7.320   4.856  14.233  0.00  0.00    +0.000 A 
BRANCH  15  22
ATOM     21  C   UNL     1       5.920   2.476  11.774  0.00  0.00    +0.000 C 
ATOM     22  O   UNL     1       6.858   3.405  12.308  0.00  0.00    +0.000 OA
ENDBRANCH  15  22
ENDBRANCH   1  18
TORSDOF 2
ENDMDL
MODEL 7
REMARK VINA RESULT:      -7.0      2.685      6.405
REMARK  Name = 
REMARK  3 active torsions:
REMARK  status: ('A' for Active; 'I' for Inactive)
REMARK    1  A    between atoms: C_1  and  O_2
REMARK    2  A    between atoms: O_2  and  C_3
REMARK    3  A    between atoms: C_6  and  C_7
REMARK                            x       y       z     vdW  Elec       q    Type
REMARK                         _______ _______ _______ _____ _____    ______ ____
ROOT
ATOM      1  C   UNL     1       3.323   5.762  18.114  0.00  0.00    +0.000 C 
ATOM      2  C   UNL     1       2.438   4.542  17.744  0.00  0.00    +0.000 C 
ATOM      3  C   UNL     1       3.209   3.314  18.195  0.00  0.00    +0.000 C 
ATOM      4  C   UNL     1       4.190   3.868  19.195  0.00  0.00    +0.000 C 
ATOM      5  O   UNL     1       4.753   3.222  20.066  0.00  0.00    +0.000 OA
ATOM      6  N   UNL     1       4.496   5.174  18.787  0.00  0.00    +0.000 N 
ATOM      7  C   UNL     1       5.550   5.201  17.830  0.00  0.00    +0.000 A 
ATOM      8  C   UNL     1       6.728   4.479  17.837  0.00  0.00    +0.000 A 
ATOM      9  C   UNL     1       7.461   4.430  16.651  0.00  0.00    +0.000 A 
ATOM     10  C   UNL     1       7.020   5.128  15.510  0.00  0.00    +0.000 A 
ATOM     11  C   UNL     1       5.843   5.883  15.544  0.00  0.00    +0.000 A 
ATOM     12  C   UNL     1       5.095   5.871  16.707  0.00  0.00    +0.000 A 
ATOM     13  N   UNL     1       3.813   6.453  16.888  0.00  0.00    +0.000 N 
ATOM     14  H   UNL     1       3.981   7.435  17.117  0.00  0.00    +0.000 HD
ENDROOT
BRANCH   1  18
ATOM     15  C   UNL     1       1.223   8.524  20.760  0.00  0.00    +0.000 A 
ATOM     16  C   UNL     1       1.587   8.935  19.472  0.00  0.00    +0.000 A 
ATOM     17  C   UNL     1       2.195   8.049  18.568  0.00  0.00    +0.000 A 
ATOM     18  C   UNL     1       2.467   6.728  18.946  0.00  0.00    +0.000 A 
ATOM     19  C   UNL     1       2.020   6.309  20.220  0.00  0.00    +0.000 A 
ATOM     20  C   UNL     1       1.424   7.198  21.123  0.00  0.00    +0.000 A 
BRANCH  15  22
ATOM     21  C   UNL     1       0.656  10.821  21.020  0.00  0.00    +0.000 C 
ATOM     22  O   UNL     1       0.725   9.509  21.568  0.00  0.00    +0.000 OA
ENDBRANCH  15  22
ENDBRANCH   1  18
TORSDOF 2
ENDMDL
MODEL 8
REMARK VINA RESULT:      -6.9      2.556      6.468
REMARK  Name = 
REMARK  3 active torsions:
REMARK  status: ('A' for Active; 'I' for Inactive)
REMARK    1  A    between atoms: C_1  and  O_2
REMARK    2  A    between atoms: O_2  and  C_3
REMARK    3  A    between atoms: C_6  and  C_7
REMARK                            x       y       z     vdW  Elec       q    Type
REMARK                         _______ _______ _______ _____ _____    ______ ____
ROOT
ATOM      1  C   UNL     1       3.858   5.503  18.203  0.00  0.00    +0.000 C 
ATOM      2  C   UNL     1       3.727   4.186  19.013  0.00  0.00    +0.000 C 
ATOM      3  C   UNL     1       5.132   3.833  19.468  0.00  0.00    +0.000 C 
ATOM      4  C   UNL     1       5.874   5.139  19.349  0.00  0.00    +0.000 C 
ATOM      5  O   UNL     1       6.907   5.421  19.937  0.00  0.00    +0.000 OA
ATOM      6  N   UNL     1       5.290   5.845  18.287  0.00  0.00    +0.000 N 
ATOM      7  C   UNL     1       5.853   5.480  17.031  0.00  0.00    +0.000 A 
ATOM      8  C   UNL     1       7.184   5.281  16.718  0.00  0.00    +0.000 A 
ATOM      9  C   UNL     1       7.473   4.629  15.519  0.00  0.00    +0.000 A 
ATOM     10  C   UNL     1       6.435   4.230  14.655  0.00  0.00    +0.000 A 
ATOM     11  C   UNL     1       5.097   4.481  14.980  0.00  0.00    +0.000 A 
ATOM     12  C   UNL     1       4.824   5.072  16.200  0.00  0.00    +0.000 A 
ATOM     13  N   UNL     1       3.538   5.276  16.765  0.00  0.00    +0.000 N 
ATOM     14  H   UNL     1       3.194   6.153  16.370  0.00  0.00    +0.000 HD
ENDROOT
BRANCH   1  18
ATOM     15  C   UNL     1       1.363   8.477  20.197  0.00  0.00    +0.000 A 
ATOM     16  C   UNL     1       1.819   8.711  18.894  0.00  0.00    +0.000 A 
ATOM     17  C   UNL     1       2.560   7.744  18.195  0.00  0.00    +0.000 A 
ATOM     18  C   UNL     1       2.873   6.520  18.799  0.00  0.00    +0.000 A 
ATOM     19  C   UNL     1       2.336   6.270  20.083  0.00  0.00    +0.000 A 
ATOM     20  C   UNL     1       1.608   7.240  20.781  0.00  0.00    +0.000 A 
BRANCH  15  22
ATOM     21  C   UNL     1       0.537   9.458  22.203  0.00  0.00    +0.000 C 
ATOM     22  O   UNL     1       0.736   9.535  20.795  0.00  0.00    +0.000 OA
ENDBRANCH  15  22
ENDBRANCH   1  18
TORSDOF 2
ENDMDL
MODEL 9
REMARK VINA RESULT:      -6.9      1.859      2.644
REMARK  Name = 
REMARK  3 active torsions:
REMARK  status: ('A' for Active; 'I' for Inactive)
REMARK    1  A    between atoms: C_1  and  O_2
REMARK    2  A    between atoms: O_2  and  C_3
REMARK    3  A    between atoms: C_6  and  C_7
REMARK                            x       y       z     vdW  Elec       q    Type
REMARK                         _______ _______ _______ _____ _____    ______ ____
ROOT
ATOM      1  C   UNL     1       4.730   4.343  18.219  0.00  0.00    +0.000 C 
ATOM      2  C   UNL     1       5.600   3.640  19.295  0.00  0.00    +0.000 C 
ATOM      3  C   UNL     1       4.753   2.503  19.839  0.00  0.00    +0.000 C 
ATOM      4  C   UNL     1       3.714   2.300  18.767  0.00  0.00    +0.000 C 
ATOM      5  O   UNL     1       3.061   1.281  18.599  0.00  0.00    +0.000 OA
ATOM      6  N   UNL     1       3.488   3.551  18.175  0.00  0.00    +0.000 N 
ATOM      7  C   UNL     1       2.516   4.310  18.888  0.00  0.00    +0.000 A 
ATOM      8  C   UNL     1       1.316   3.876  19.420  0.00  0.00    +0.000 A 
ATOM      9  C   UNL     1       0.680   4.710  20.339  0.00  0.00    +0.000 A 
ATOM     10  C   UNL     1       1.236   5.961  20.671  0.00  0.00    +0.000 A 
ATOM     11  C   UNL     1       2.432   6.391  20.086  0.00  0.00    +0.000 A 
ATOM     12  C   UNL     1       3.082   5.527  19.225  0.00  0.00    +0.000 A 
ATOM     13  N   UNL     1       4.365   5.722  18.649  0.00  0.00    +0.000 N 
ATOM     14  H   UNL     1       4.213   6.291  17.814  0.00  0.00    +0.000 HD
ENDROOT
BRANCH   1  18
ATOM     15  C   UNL     1       6.825   4.875  14.427  0.00  0.00    +0.000 A 
ATOM     16  C   UNL     1       7.520   5.023  15.633  0.00  0.00    +0.000 A 
ATOM     17  C   UNL     1       6.897   4.785  16.869  0.00  0.00    +0.000 A 
ATOM     18  C   UNL     1       5.550   4.406  16.921  0.00  0.00    +0.000 A 
ATOM     19  C   UNL     1       4.887   4.184  15.691  0.00  0.00    +0.000 A 
ATOM     20  C   UNL     1       5.509   4.433  14.462  0.00  0.00    +0.000 A 
BRANCH  15  22
ATOM     21  C   UNL     1       7.280   4.465  12.126  0.00  0.00    +0.000 C 
ATOM     22  O   UNL     1       7.523   5.227  13.305  0.00  0.00    +0.000 OA
ENDBRANCH  15  22
ENDBRANCH   1  18
TORSDOF 2
ENDMDL
