MODEL 1
REMARK VINA RESULT:      -7.1      0.000      0.000
REMARK  Name = 
REMARK  9 active torsions:
REMARK  status: ('A' for Active; 'I' for Inactive)
REMARK    1  A    between atoms: C_1  and  O_2
REMARK    2  A    between atoms: O_2  and  C_3
REMARK    3  A    between atoms: C_6  and  C_7
REMARK    4  A    between atoms: C_8  and  C_9
REMARK    5  A    between atoms: C_11  and  O_12
REMARK    6  A    between atoms: O_12  and  C_13
REMARK    7  A    between atoms: C_15  and  O_16
REMARK    8  A    between atoms: O_16  and  C_17
REMARK    9  A    between atoms: C_18  and  N_19
REMARK                            x       y       z     vdW  Elec       q    Type
REMARK                         _______ _______ _______ _____ _____    ______ ____
ROOT
ATOM      1  C   UNL     1       3.763   4.415  18.076  0.00  0.00    +0.000 A 
ATOM      2  C   UNL     1       3.223   5.707  18.076  0.00  0.00    +0.000 A 
ATOM      3  C   UNL     1       2.555   6.192  19.195  0.00  0.00    +0.000 A 
ATOM      4  C   UNL     1       2.354   5.348  20.281  0.00  0.00    +0.000 A 
ATOM      5  C   UNL     1       2.894   4.050  20.309  0.00  0.00    +0.000 A 
ATOM      6  C   UNL     1       3.688   3.601  19.237  0.00  0.00    +0.000 A 
ENDROOT
BRANCH   6   7
ATOM      7  N   UNL     1       4.235   2.291  19.193  0.00  0.00    +0.000 N 
ATOM      8  H   UNL     1       4.036   1.891  18.280  0.00  0.00    +0.000 HD
ATOM      9  H   UNL     1       5.246   2.320  19.312  0.00  0.00    +0.000 HD
ENDBRANCH   6   7
BRANCH   1  11
ATOM     10  C   UNL     1       5.603   4.373  16.377  0.00  0.00    +0.000 C 
ATOM     11  C   UNL     1       4.412   3.959  16.837  0.00  0.00    +0.000 C 
BRANCH  10  15
ATOM     12  C   UNL     1       8.038   7.296  18.333  0.00  0.00    +0.000 A 
ATOM     13  C   UNL     1       7.366   7.616  17.150  0.00  0.00    +0.000 A 
ATOM     14  C   UNL     1       6.598   6.654  16.485  0.00  0.00    +0.000 A 
ATOM     15  C   UNL     1       6.502   5.356  16.993  0.00  0.00    +0.000 A 
ATOM     16  C   UNL     1       7.212   5.025  18.150  0.00  0.00    +0.000 A 
ATOM     17  C   UNL     1       7.980   5.990  18.817  0.00  0.00    +0.000 A 
BRANCH  12  19
ATOM     18  C   UNL     1       8.600   9.590  18.285  0.00  0.00    +0.000 C 
ATOM     19  O   UNL     1       8.741   8.318  18.911  0.00  0.00    +0.000 OA
ENDBRANCH  12  19
ENDBRANCH  10  15
ENDBRANCH   1  11
BRANCH   3  20
ATOM     20  O   UNL     1       2.107   7.481  19.101  0.00  0.00    +0.000 OA
ATOM     21  C   UNL     1       2.419   8.141  17.879  0.00  0.00    +0.000 C 
ENDBRANCH   3  20
BRANCH   5  22
ATOM     22  O   UNL     1       2.551   3.390  21.463  0.00  0.00    +0.000 OA
ATOM     23  C   UNL     1       1.401   2.562  21.481  0.00  0.00    +0.000 C 
ENDBRANCH   5  22
TORSDOF 6
ENDMDL
MODEL 2
REMARK VINA RESULT:      -6.9      0.855      1.350
REMARK  Name = 
REMARK  9 active torsions:
REMARK  status: ('A' for Active; 'I' for Inactive)
REMARK    1  A    between atoms: C_1  and  O_2
REMARK    2  A    between atoms: O_2  and  C_3
REMARK    3  A    between atoms: C_6  and  C_7
REMARK    4  A    between atoms: C_8  and  C_9
REMARK    5  A    between atoms: C_11  and  O_12
REMARK    6  A    between atoms: O_12  and  C_13
REMARK    7  A    between atoms: C_15  and  O_16
REMARK    8  A    between atoms: O_16  and  C_17
REMARK    9  A    between atoms: C_18  and  N_19
REMARK                            x       y       z     vdW  Elec       q    Type
REMARK                         _______ _______ _______ _____ _____    ______ ____
ROOT
ATOM      1  C   UNL     1       3.733   3.726  17.519  0.00  0.00    +0.000 A 
ATOM      2  C   UNL     1       3.283   5.051  17.576  0.00  0.00    +0.000 A 
ATOM      3  C   UNL     1       2.382   5.449  18.557  0.00  0.00    +0.000 A 
ATOM      4  C   UNL     1       1.866   4.495  19.427  0.00  0.00    +0.000 A 
ATOM      5  C   UNL     1       2.308   3.160  19.396  0.00  0.00    +0.000 A 
ATOM      6  C   UNL     1       3.321   2.781  18.495  0.00  0.00    +0.000 A 
ENDROOT
BRANCH   6   7
ATOM      7  N   UNL     1       3.787   1.443  18.395  0.00  0.00    +0.000 N 
ATOM      8  H   UNL     1       4.473   1.288  19.130  0.00  0.00    +0.000 HD
ATOM      9  H   UNL     1       3.022   0.785  18.532  0.00  0.00    +0.000 HD
ENDBRANCH   6   7
BRANCH   1  11
ATOM     10  C   UNL     1       5.829   3.959  16.168  0.00  0.00    +0.000 C 
ATOM     11  C   UNL     1       4.647   3.375  16.421  0.00  0.00    +0.000 C 
BRANCH  10  15
ATOM     12  C   UNL     1       7.846   7.156  18.169  0.00  0.00    +0.000 A 
ATOM     13  C   UNL     1       7.960   5.845  18.642  0.00  0.00    +0.000 A 
ATOM     14  C   UNL     1       7.274   4.800  18.014  0.00  0.00    +0.000 A 
ATOM     15  C   UNL     1       6.456   5.058  16.911  0.00  0.00    +0.000 A 
ATOM     16  C   UNL     1       6.306   6.375  16.469  0.00  0.00    +0.000 A 
ATOM     17  C   UNL     1       6.996   7.421  17.097  0.00  0.00    +0.000 A 
BRANCH  12  19
ATOM     18  C   UNL     1       8.490   9.423  18.336  0.00  0.00    +0.000 C 
ATOM     19  O   UNL     1       8.577   8.095  18.843  0.00  0.00    +0.000 OA
ENDBRANCH  12  19
ENDBRANCH  10  15
ENDBRANCH   1  11
BRANCH   3  20
ATOM     20  O   UNL     1       2.045   6.774  18.546  0.00  0.00    +0.000 OA
ATOM     21  C   UNL     1       3.024   7.641  17.984  0.00  0.00    +0.000 C 
ENDBRANCH   3  20
BRANCH   5  22
ATOM     22  O   UNL     1       1.648   2.392  20.323  0.00  0.00    +0.000 OA
ATOM     23  C   UNL     1       1.636   2.794  21.683  0.00  0.00    +0.000 C 
ENDBRANCH   5  22
TORSDOF 6
ENDMDL
MODEL 3
REMARK VINA RESULT:      -6.8      2.119      5.480
REMARK  Name = 
REMARK  9 active torsions:
REMARK  status: ('A' for Active; 'I' for Inactive)
REMARK    1  A    between atoms: C_1  and  O_2
REMARK    2  A    between atoms: O_2  and  C_3
REMARK    3  A    between atoms: C_6  and  C_7
REMARK    4  A    between atoms: C_8  and  C_9
REMARK    5  A    between atoms: C_11  and  O_12
REMARK    6  A    between atoms: O_12  and  C_13
REMARK    7  A    between atoms: C_15  and  O_16
REMARK    8  A    between atoms: O_16  and  C_17
REMARK    9  A    between atoms: C_18  and  N_19
REMARK                            x       y       z     vdW  Elec       q    Type
REMARK                         _______ _______ _______ _____ _____    ______ ____
ROOT
ATOM      1  C   UNL     1       4.551   3.773  17.173  0.00  0.00    +0.000 A 
ATOM      2  C   UNL     1       4.880   4.403  15.966  0.00  0.00    +0.000 A 
ATOM      3  C   UNL     1       6.061   5.126  15.847  0.00  0.00    +0.000 A 
ATOM      4  C   UNL     1       6.870   5.288  16.966  0.00  0.00    +0.000 A 
ATOM      5  C   UNL     1       6.567   4.658  18.187  0.00  0.00    +0.000 A 
ATOM      6  C   UNL     1       5.444   3.813  18.275  0.00  0.00    +0.000 A 
ENDROOT
BRANCH   6   7
ATOM      7  N   UNL     1       5.069   3.174  19.487  0.00  0.00    +0.000 N 
ATOM      8  H   UNL     1       5.597   3.594  20.247  0.00  0.00    +0.000 HD
ATOM      9  H   UNL     1       4.078   3.315  19.676  0.00  0.00    +0.000 HD
ENDBRANCH   6   7
BRANCH   1  11
ATOM     10  C   UNL     1       2.156   3.508  17.859  0.00  0.00    +0.000 C 
ATOM     11  C   UNL     1       3.260   3.070  17.232  0.00  0.00    +0.000 C 
BRANCH  10  15
ATOM     12  C   UNL     1       1.942   7.140  20.107  0.00  0.00    +0.000 A 
ATOM     13  C   UNL     1       1.610   5.920  20.705  0.00  0.00    +0.000 A 
ATOM     14  C   UNL     1       1.642   4.733  19.965  0.00  0.00    +0.000 A 
ATOM     15  C   UNL     1       1.998   4.756  18.614  0.00  0.00    +0.000 A 
ATOM     16  C   UNL     1       2.284   5.982  18.007  0.00  0.00    +0.000 A 
ATOM     17  C   UNL     1       2.254   7.170  18.749  0.00  0.00    +0.000 A 
BRANCH  12  19
ATOM     18  C   UNL     1       0.606   8.796  21.134  0.00  0.00    +0.000 C 
ATOM     19  O   UNL     1       1.899   8.233  20.928  0.00  0.00    +0.000 OA
ENDBRANCH  12  19
ENDBRANCH  10  15
ENDBRANCH   1  11
BRANCH   3  20
ATOM     20  O   UNL     1       6.302   5.662  14.612  0.00  0.00    +0.000 OA
ATOM     21  C   UNL     1       7.143   4.883  13.769  0.00  0.00    +0.000 C 
ENDBRANCH   3  20
BRANCH   5  22
ATOM     22  O   UNL     1       7.485   4.976  19.157  0.00  0.00    +0.000 OA
ATOM     23  C   UNL     1       8.111   6.247  19.138  0.00  0.00    +0.000 C 
ENDBRANCH   5  22
TORSDOF 6
ENDMDL
MODEL 4
REMARK VINA RESULT:      -6.7      1.026      1.496
REMARK  Name = 
REMARK  9 active torsions:
REMARK  status: ('A' for Active; 'I' for Inactive)
REMARK    1  A    between atoms: C_1  and  O_2
REMARK    2  A    between atoms: O_2  and  C_3
REMARK    3  A    between atoms: C_6  and  C_7
REMARK    4  A    between atoms: C_8  and  C_9
REMARK    5  A    between atoms: C_11  and  O_12
REMARK    6  A    between atoms: O_12  and  C_13
REMARK    7  A    between atoms: C_15  and  O_16
REMARK    8  A    between atoms: O_16  and  C_17
REMARK    9  A    between atoms: C_18  and  N_19
REMARK                            x       y       z     vdW  Elec       q    Type
REMARK                         _______ _______ _______ _____ _____    ______ ____
ROOT
ATOM      1  C   UNL     1       3.058   4.203  18.036  0.00  0.00    +0.000 A 
ATOM      2  C   UNL     1       2.999   5.578  18.301  0.00  0.00    +0.000 A 
ATOM      3  C   UNL     1       2.336   6.051  19.426  0.00  0.00    +0.000 A 
ATOM      4  C   UNL     1       1.656   5.151  20.239  0.00  0.00    +0.000 A 
ATOM      5  C   UNL     1       1.707   3.766  20.001  0.00  0.00    +0.000 A 
ATOM      6  C   UNL     1       2.490   3.269  18.941  0.00  0.00    +0.000 A 
ENDROOT
BRANCH   6   7
ATOM      7  N   UNL     1       2.557   1.885  18.631  0.00  0.00    +0.000 N 
ATOM      8  H   UNL     1       1.705   1.441  18.965  0.00  0.00    +0.000 HD
ATOM      9  H   UNL     1       2.613   1.744  17.624  0.00  0.00    +0.000 HD
ENDBRANCH   6   7
BRANCH   1  11
ATOM     10  C   UNL     1       4.930   4.229  16.373  0.00  0.00    +0.000 C 
ATOM     11  C   UNL     1       3.736   3.787  16.799  0.00  0.00    +0.000 C 
BRANCH  10  15
ATOM     12  C   UNL     1       7.638   7.053  18.101  0.00  0.00    +0.000 A 
ATOM     13  C   UNL     1       7.603   5.735  18.566  0.00  0.00    +0.000 A 
ATOM     14  C   UNL     1       6.694   4.815  18.031  0.00  0.00    +0.000 A 
ATOM     15  C   UNL     1       5.802   5.209  17.029  0.00  0.00    +0.000 A 
ATOM     16  C   UNL     1       5.807   6.539  16.600  0.00  0.00    +0.000 A 
ATOM     17  C   UNL     1       6.720   7.459  17.135  0.00  0.00    +0.000 A 
BRANCH  12  19
ATOM     18  C   UNL     1       8.485   9.244  18.356  0.00  0.00    +0.000 C 
ATOM     19  O   UNL     1       8.580   7.860  18.678  0.00  0.00    +0.000 OA
ENDBRANCH  12  19
ENDBRANCH  10  15
ENDBRANCH   1  11
BRANCH   3  20
ATOM     20  O   UNL     1       2.379   7.406  19.610  0.00  0.00    +0.000 OA
ATOM     21  C   UNL     1       1.611   7.892  20.704  0.00  0.00    +0.000 C 
ENDBRANCH   3  20
BRANCH   5  22
ATOM     22  O   UNL     1       0.947   3.073  20.909  0.00  0.00    +0.000 OA
ATOM     23  C   UNL     1       1.572   2.471  22.030  0.00  0.00    +0.000 C 
ENDBRANCH   5  22
TORSDOF 6
ENDMDL
MODEL 5
REMARK VINA RESULT:      -6.6      2.627      6.414
REMARK  Name = 
REMARK  9 active torsions:
REMARK  status: ('A' for Active; 'I' for Inactive)
REMARK    1  A    between atoms: C_1  and  O_2
REMARK    2  A    between atoms: O_2  and  C_3
REMARK    3  A    between atoms: C_6  and  C_7
REMARK    4  A    between atoms: C_8  and  C_9
REMARK    5  A    between atoms: C_11  and  O_12
REMARK    6  A    between atoms: O_12  and  C_13
REMARK    7  A    between atoms: C_15  and  O_16
REMARK    8  A    between atoms: O_16  and  C_17
REMARK    9  A    between atoms: C_18  and  N_19
REMARK                            x       y       z     vdW  Elec       q    Type
REMARK                         _______ _______ _______ _____ _____    ______ ____
ROOT
ATOM      1  C   UNL     1       5.050   6.692  17.375  0.00  0.00    +0.000 A 
ATOM      2  C   UNL     1       5.550   6.238  18.602  0.00  0.00    +0.000 A 
ATOM      3  C   UNL     1       6.632   5.367  18.643  0.00  0.00    +0.000 A 
ATOM      4  C   UNL     1       7.157   4.883  17.450  0.00  0.00    +0.000 A 
ATOM      5  C   UNL     1       6.678   5.330  16.205  0.00  0.00    +0.000 A 
ATOM      6  C   UNL     1       5.674   6.316  16.157  0.00  0.00    +0.000 A 
ENDROOT
BRANCH   6   7
ATOM      7  N   UNL     1       5.129   6.785  14.933  0.00  0.00    +0.000 N 
ATOM      8  H   UNL     1       4.172   6.447  14.857  0.00  0.00    +0.000 HD
ATOM      9  H   UNL     1       5.106   7.803  14.915  0.00  0.00    +0.000 HD
ENDBRANCH   6   7
BRANCH   1  11
ATOM     10  C   UNL     1       2.690   7.276  17.981  0.00  0.00    +0.000 C 
ATOM     11  C   UNL     1       3.872   7.572  17.416  0.00  0.00    +0.000 C 
BRANCH  10  15
ATOM     12  C   UNL     1       1.363   3.714  19.941  0.00  0.00    +0.000 A 
ATOM     13  C   UNL     1       1.774   4.820  20.692  0.00  0.00    +0.000 A 
ATOM     14  C   UNL     1       2.244   5.975  20.058  0.00  0.00    +0.000 A 
ATOM     15  C   UNL     1       2.318   6.031  18.663  0.00  0.00    +0.000 A 
ATOM     16  C   UNL     1       1.952   4.908  17.917  0.00  0.00    +0.000 A 
ATOM     17  C   UNL     1       1.479   3.752  18.553  0.00  0.00    +0.000 A 
BRANCH  12  19
ATOM     18  C   UNL     1       1.566   2.407  21.899  0.00  0.00    +0.000 C 
ATOM     19  O   UNL     1       0.901   2.647  20.663  0.00  0.00    +0.000 OA
ENDBRANCH  12  19
ENDBRANCH  10  15
ENDBRANCH   1  11
BRANCH   3  20
ATOM     20  O   UNL     1       7.065   5.023  19.894  0.00  0.00    +0.000 OA
ATOM     21  C   UNL     1       8.371   5.480  20.227  0.00  0.00    +0.000 C 
ENDBRANCH   3  20
BRANCH   5  22
ATOM     22  O   UNL     1       7.322   4.704  15.167  0.00  0.00    +0.000 OA
ATOM     23  C   UNL     1       6.563   4.016  14.186  0.00  0.00    +0.000 C 
ENDBRANCH   5  22
TORSDOF 6
ENDMDL
MODEL 6
REMARK VINA RESULT:      -6.5      2.140      5.390
REMARK  Name = 
REMARK  9 active torsions:
REMARK  status: ('A' for Active; 'I' for Inactive)
REMARK    1  A    between atoms: C_1  and  O_2
REMARK    2  A    between atoms: O_2  and  C_3
REMARK    3  A    between atoms: C_6  and  C_7
REMARK    4  A    between atoms: C_8  and  C_9
REMARK    5  A    between atoms: C_11  and  O_12
REMARK    6  A    between atoms: O_12  and  C_13
REMARK    7  A    between atoms: C_15  and  O_16
REMARK    8  A    between atoms: O_16  and  C_17
REMARK    9  A    between atoms: C_18  and  N_19
REMARK                            x       y       z     vdW  Elec       q    Type
REMARK                         _______ _______ _______ _____ _____    ______ ____
ROOT
ATOM      1  C   UNL     1       4.479   3.631  17.200  0.00  0.00    +0.000 A 
ATOM      2  C   UNL     1       4.730   4.098  15.904  0.00  0.00    +0.000 A 
ATOM      3  C   UNL     1       5.933   4.725  15.601  0.00  0.00    +0.000 A 
ATOM      4  C   UNL     1       6.848   4.961  16.620  0.00  0.00    +0.000 A 
ATOM      5  C   UNL     1       6.624   4.495  17.928  0.00  0.00    +0.000 A 
ATOM      6  C   UNL     1       5.470   3.739  18.211  0.00  0.00    +0.000 A 
ENDROOT
BRANCH   6   7
ATOM      7  N   UNL     1       5.173   3.266  19.517  0.00  0.00    +0.000 N 
ATOM      8  H   UNL     1       4.976   2.270  19.460  0.00  0.00    +0.000 HD
ATOM      9  H   UNL     1       5.972   3.396  20.136  0.00  0.00    +0.000 HD
ENDBRANCH   6   7
BRANCH   1  11
ATOM     10  C   UNL     1       2.159   3.585  18.142  0.00  0.00    +0.000 C 
ATOM     11  C   UNL     1       3.163   3.023  17.451  0.00  0.00    +0.000 C 
BRANCH  10  15
ATOM     12  C   UNL     1       1.892   7.424  20.011  0.00  0.00    +0.000 A 
ATOM     13  C   UNL     1       2.229   7.320  18.657  0.00  0.00    +0.000 A 
ATOM     14  C   UNL     1       2.354   6.067  18.049  0.00  0.00    +0.000 A 
ATOM     15  C   UNL     1       2.153   4.900  18.792  0.00  0.00    +0.000 A 
ATOM     16  C   UNL     1       1.863   5.005  20.155  0.00  0.00    +0.000 A 
ATOM     17  C   UNL     1       1.735   6.262  20.764  0.00  0.00    +0.000 A 
BRANCH  12  19
ATOM     18  C   UNL     1       0.874   9.544  19.788  0.00  0.00    +0.000 C 
ATOM     19  O   UNL     1       1.775   8.697  20.496  0.00  0.00    +0.000 OA
ENDBRANCH  12  19
ENDBRANCH  10  15
ENDBRANCH   1  11
BRANCH   3  20
ATOM     20  O   UNL     1       6.089   5.102  14.295  0.00  0.00    +0.000 OA
ATOM     21  C   UNL     1       7.435   5.149  13.837  0.00  0.00    +0.000 C 
ENDBRANCH   3  20
BRANCH   5  22
ATOM     22  O   UNL     1       7.643   4.860  18.772  0.00  0.00    +0.000 OA
ATOM     23  C   UNL     1       7.928   6.234  18.971  0.00  0.00    +0.000 C 
ENDBRANCH   5  22
TORSDOF 6
ENDMDL
MODEL 7
REMARK VINA RESULT:      -6.5      2.607      3.778
REMARK  Name = 
REMARK  9 active torsions:
REMARK  status: ('A' for Active; 'I' for Inactive)
REMARK    1  A    between atoms: C_1  and  O_2
REMARK    2  A    between atoms: O_2  and  C_3
REMARK    3  A    between atoms: C_6  and  C_7
REMARK    4  A    between atoms: C_8  and  C_9
REMARK    5  A    between atoms: C_11  and  O_12
REMARK    6  A    between atoms: O_12  and  C_13
REMARK    7  A    between atoms: C_15  and  O_16
REMARK    8  A    between atoms: O_16  and  C_17
REMARK    9  A    between atoms: C_18  and  N_19
REMARK                            x       y       z     vdW  Elec       q    Type
REMARK                         _______ _______ _______ _____ _____    ______ ____
ROOT
ATOM      1  C   UNL     1       4.918   4.813  18.809  0.00  0.00    +0.000 A 
ATOM      2  C   UNL     1       4.146   5.875  18.322  0.00  0.00    +0.000 A 
ATOM      3  C   UNL     1       2.765   5.752  18.214  0.00  0.00    +0.000 A 
ATOM      4  C   UNL     1       2.171   4.532  18.514  0.00  0.00    +0.000 A 
ATOM      5  C   UNL     1       2.922   3.453  19.013  0.00  0.00    +0.000 A 
ATOM      6  C   UNL     1       4.300   3.616  19.254  0.00  0.00    +0.000 A 
ENDROOT
BRANCH   6   7
ATOM      7  N   UNL     1       5.118   2.556  19.727  0.00  0.00    +0.000 N 
ATOM      8  H   UNL     1       4.555   1.962  20.331  0.00  0.00    +0.000 HD
ATOM      9  H   UNL     1       5.455   1.988  18.952  0.00  0.00    +0.000 HD
ENDBRANCH   6   7
BRANCH   1  11
ATOM     10  C   UNL     1       7.201   4.950  17.787  0.00  0.00    +0.000 C 
ATOM     11  C   UNL     1       6.376   5.006  18.845  0.00  0.00    +0.000 C 
BRANCH  10  15
ATOM     12  C   UNL     1       6.316   3.983  13.715  0.00  0.00    +0.000 A 
ATOM     13  C   UNL     1       7.195   5.027  14.017  0.00  0.00    +0.000 A 
ATOM     14  C   UNL     1       7.461   5.373  15.346  0.00  0.00    +0.000 A 
ATOM     15  C   UNL     1       6.840   4.682  16.390  0.00  0.00    +0.000 A 
ATOM     16  C   UNL     1       5.926   3.670  16.086  0.00  0.00    +0.000 A 
ATOM     17  C   UNL     1       5.662   3.322  14.754  0.00  0.00    +0.000 A 
BRANCH  12  19
ATOM     18  C   UNL     1       4.866   3.215  12.016  0.00  0.00    +0.000 C 
ATOM     19  O   UNL     1       6.148   3.716  12.384  0.00  0.00    +0.000 OA
ENDBRANCH  12  19
ENDBRANCH  10  15
ENDBRANCH   1  11
BRANCH   3  20
ATOM     20  O   UNL     1       2.107   6.865  17.769  0.00  0.00    +0.000 OA
ATOM     21  C   UNL     1       2.376   8.057  18.497  0.00  0.00    +0.000 C 
ENDBRANCH   3  20
BRANCH   5  22
ATOM     22  O   UNL     1       2.137   2.346  19.215  0.00  0.00    +0.000 OA
ATOM     23  C   UNL     1       0.797   2.344  18.753  0.00  0.00    +0.000 C 
ENDBRANCH   5  22
TORSDOF 6
ENDMDL
MODEL 8
REMARK VINA RESULT:      -6.4      2.091      2.938
REMARK  Name = 
REMARK  9 active torsions:
REMARK  status: ('A' for Active; 'I' for Inactive)
REMARK    1  A    between atoms: C_1  and  O_2
REMARK    2  A    between atoms: O_2  and  C_3
REMARK    3  A    between atoms: C_6  and  C_7
REMARK    4  A    between atoms: C_8  and  C_9
REMARK    5  A    between atoms: C_11  and  O_12
REMARK    6  A    between atoms: O_12  and  C_13
REMARK    7  A    between atoms: C_15  and  O_16
REMARK    8  A    between atoms: O_16  and  C_17
REMARK    9  A    between atoms: C_18  and  N_19
REMARK                            x       y       z     vdW  Elec       q    Type
REMARK                         _______ _______ _______ _____ _____    ______ ____
ROOT
ATOM      1  C   UNL     1       2.330   6.395  18.612  0.00  0.00    +0.000 A 
ATOM      2  C   UNL     1       2.243   7.526  17.790  0.00  0.00    +0.000 A 
ATOM      3  C   UNL     1       1.920   8.766  18.329  0.00  0.00    +0.000 A 
ATOM      4  C   UNL     1       1.598   8.853  19.678  0.00  0.00    +0.000 A 
ATOM      5  C   UNL     1       1.685   7.735  20.526  0.00  0.00    +0.000 A 
ATOM      6  C   UNL     1       2.145   6.506  20.014  0.00  0.00    +0.000 A 
ENDROOT
BRANCH   6   7
ATOM      7  N   UNL     1       2.226   5.334  20.813  0.00  0.00    +0.000 N 
ATOM      8  H   UNL     1       2.061   5.595  21.782  0.00  0.00    +0.000 HD
ATOM      9  H   UNL     1       1.510   4.663  20.540  0.00  0.00    +0.000 HD
ENDBRANCH   6   7
BRANCH   1  11
ATOM     10  C   UNL     1       3.849   4.674  17.610  0.00  0.00    +0.000 C 
ATOM     11  C   UNL     1       2.628   5.112  17.957  0.00  0.00    +0.000 C 
BRANCH  10  15
ATOM     12  C   UNL     1       7.465   6.847  18.318  0.00  0.00    +0.000 A 
ATOM     13  C   UNL     1       6.684   7.126  17.192  0.00  0.00    +0.000 A 
ATOM     14  C   UNL     1       5.520   6.394  16.935  0.00  0.00    +0.000 A 
ATOM     15  C   UNL     1       5.129   5.366  17.798  0.00  0.00    +0.000 A 
ATOM     16  C   UNL     1       5.936   5.059  18.897  0.00  0.00    +0.000 A 
ATOM     17  C   UNL     1       7.101   5.794  19.155  0.00  0.00    +0.000 A 
BRANCH  12  19
ATOM     18  C   UNL     1       8.378   9.023  18.209  0.00  0.00    +0.000 C 
ATOM     19  O   UNL     1       8.568   7.638  18.484  0.00  0.00    +0.000 OA
ENDBRANCH  12  19
ENDBRANCH  10  15
ENDBRANCH   1  11
BRANCH   3  20
ATOM     20  O   UNL     1       1.906   9.809  17.443  0.00  0.00    +0.000 OA
ATOM     21  C   UNL     1       2.162  11.087  18.012  0.00  0.00    +0.000 C 
ENDBRANCH   3  20
BRANCH   5  22
ATOM     22  O   UNL     1       1.299   8.045  21.807  0.00  0.00    +0.000 OA
ATOM     23  C   UNL     1       0.953   9.381  22.129  0.00  0.00    +0.000 C 
ENDBRANCH   5  22
TORSDOF 6
ENDMDL
MODEL 9
REMARK VINA RESULT:      -6.4      2.339      3.626
REMARK  Name = 
REMARK  9 active torsions:
REMARK  status: ('A' for Active; 'I' for Inactive)
REMARK    1  A    between atoms: C_1  and  O_2
REMARK    2  A    between atoms: O_2  and  C_3
REMARK    3  A    between atoms: C_6  and  C_7
REMARK    4  A    between atoms: C_8  and  C_9
REMARK    5  A    between atoms: C_11  and  O_12
REMARK    6  A    between atoms: O_12  and  C_13
REMARK    7  A    between atoms: C_15  and  O_16
REMARK    8  A    between atoms: O_16  and  C_17
REMARK    9  A    between atoms: C_18  and  N_19
REMARK                            x       y       z     vdW  Elec       q    Type
REMARK                         _______ _______ _______ _____ _____    ______ ____
ROOT
ATOM      1  C   UNL     1       4.851   5.146  19.375  0.00  0.00    +0.000 A 
ATOM      2  C   UNL     1       3.987   6.249  19.361  0.00  0.00    +0.000 A 
ATOM      3  C   UNL     1       2.609   6.065  19.357  0.00  0.00    +0.000 A 
ATOM      4  C   UNL     1       2.100   4.774  19.277  0.00  0.00    +0.000 A 
ATOM      5  C   UNL     1       2.945   3.650  19.298  0.00  0.00    +0.000 A 
ATOM      6  C   UNL     1       4.335   3.826  19.441  0.00  0.00    +0.000 A 
ENDROOT
BRANCH   6   7
ATOM      7  N   UNL     1       5.242   2.733  19.438  0.00  0.00    +0.000 N 
ATOM      8  H   UNL     1       4.798   1.950  18.965  0.00  0.00    +0.000 HD
ATOM      9  H   UNL     1       6.090   2.971  18.927  0.00  0.00    +0.000 HD
ENDBRANCH   6   7
BRANCH   1  11
ATOM     10  C   UNL     1       7.058   5.428  18.224  0.00  0.00    +0.000 C 
ATOM     11  C   UNL     1       6.295   5.425  19.329  0.00  0.00    +0.000 C 
BRANCH  10  15
ATOM     12  C   UNL     1       5.600   4.539  14.303  0.00  0.00    +0.000 A 
ATOM     13  C   UNL     1       6.472   3.657  14.947  0.00  0.00    +0.000 A 
ATOM     14  C   UNL     1       6.982   3.959  16.214  0.00  0.00    +0.000 A 
ATOM     15  C   UNL     1       6.631   5.155  16.847  0.00  0.00    +0.000 A 
ATOM     16  C   UNL     1       5.797   6.056  16.181  0.00  0.00    +0.000 A 
ATOM     17  C   UNL     1       5.285   5.752  14.913  0.00  0.00    +0.000 A 
BRANCH  12  19
ATOM     18  C   UNL     1       6.054   3.346  12.315  0.00  0.00    +0.000 C 
ATOM     19  O   UNL     1       5.145   4.133  13.078  0.00  0.00    +0.000 OA
ENDBRANCH  12  19
ENDBRANCH  10  15
ENDBRANCH   1  11
BRANCH   3  20
ATOM     20  O   UNL     1       1.862   7.210  19.388  0.00  0.00    +0.000 OA
ATOM     21  C   UNL     1       2.172   8.161  18.376  0.00  0.00    +0.000 C 
ENDBRANCH   3  20
BRANCH   5  22
ATOM     22  O   UNL     1       2.230   2.484  19.186  0.00  0.00    +0.000 OA
ATOM     23  C   UNL     1       0.838   2.538  18.927  0.00  0.00    +0.000 C 
ENDBRANCH   5  22
TORSDOF 6
ENDMDL
