MODEL 1
REMARK VINA RESULT:      -6.7      0.000      0.000
REMARK  Name = 
REMARK  12 active torsions:
REMARK  status: ('A' for Active; 'I' for Inactive)
REMARK    1  A    between atoms: C_1  and  C_2
REMARK    2  A    between atoms: C_2  and  C_3
REMARK    3  A    between atoms: C_3  and  N_4
REMARK    4  A    between atoms: C_3  and  C_20
REMARK    5  A    between atoms: C_5  and  C_7
REMARK    6  A    between atoms: C_9  and  O_10
REMARK    7  A    between atoms: O_10  and  C_11
REMARK    8  A    between atoms: C_12  and  O_13
REMARK    9  A    between atoms: O_13  and  C_14
REMARK   10  A    between atoms: C_14  and  C_15
REMARK   11  A    between atoms: C_14  and  C_16
REMARK   12  A    between atoms: C_22  and  O_23
REMARK                            x       y       z     vdW  Elec       q    Type
REMARK                         _______ _______ _______ _____ _____    ______ ____
ROOT
ATOM      1  N   UNL     1       0.693   9.442  18.951  0.00  0.00    +0.000 N 
ATOM      2  C   UNL     1       1.809   9.112  18.221  0.00  0.00    +0.000 C 
ATOM      3  O   UNL     1       2.229   9.805  17.297  0.00  0.00    +0.000 OA
ATOM      4  H   UNL     1       0.425   8.861  19.739  0.00  0.00    +0.000 HD
ENDROOT
BRANCH   2   5
ATOM      5  C   UNL     1       2.479   7.823  18.524  0.00  0.00    +0.000 A 
ATOM      6  C   UNL     1       3.349   7.359  17.524  0.00  0.00    +0.000 A 
ATOM      7  C   UNL     1       3.982   6.117  17.625  0.00  0.00    +0.000 A 
ATOM      8  C   UNL     1       3.749   5.324  18.761  0.00  0.00    +0.000 A 
ATOM      9  C   UNL     1       2.950   5.823  19.797  0.00  0.00    +0.000 A 
ATOM     10  C   UNL     1       2.300   7.056  19.677  0.00  0.00    +0.000 A 
ATOM     11 CL   UNL     1       1.303   7.534  21.008  0.00  0.00    +0.000 Cl
BRANCH   7  12
ATOM     12  O   UNL     1       4.807   5.606  16.653  0.00  0.00    +0.000 OA
ATOM     13  C   UNL     1       5.244   6.511  15.641  0.00  0.00    +0.000 C 
ENDBRANCH   7  12
BRANCH   8  14
ATOM     14  O   UNL     1       4.324   4.076  18.783  0.00  0.00    +0.000 OA
BRANCH  14  15
ATOM     15  C   UNL     1       3.513   2.954  19.163  0.00  0.00    +0.000 C 
ATOM     16  C   UNL     1       3.353   1.954  18.014  0.00  0.00    +0.000 C 
ATOM     17  C   UNL     1       4.212   2.263  20.334  0.00  0.00    +0.000 C 
ENDBRANCH  14  15
ENDBRANCH   8  14
ENDBRANCH   2   5
BRANCH   1  18
ATOM     18  C   UNL     1      -0.076  10.644  18.674  0.00  0.00    +0.000 C 
BRANCH  18  19
ATOM     19  C   UNL     1       0.056  11.532  19.926  0.00  0.00    +0.000 C 
ATOM     20  C   UNL     1      -1.177  11.590  20.858  0.00  0.00    +0.000 C 
ATOM     21  C   UNL     1      -0.412  10.715  21.874  0.00  0.00    +0.000 C 
ATOM     22  C   UNL     1       0.897  11.127  21.164  0.00  0.00    +0.000 C 
BRANCH  21  23
ATOM     23  O   UNL     1      -0.540  11.081  23.258  0.00  0.00    +0.000 OA
ATOM     24  H   UNL     1      -0.995  11.940  23.263  0.00  0.00    +0.000 HD
ENDBRANCH  21  23
ENDBRANCH  18  19
BRANCH  18  26
ATOM     25  C   UNL     1      -2.132  11.320  17.351  0.00  0.00    +0.000 C 
ATOM     26  C   UNL     1      -1.511  10.281  18.283  0.00  0.00    +0.000 C 
ENDBRANCH  18  26
ENDBRANCH   1  18
TORSDOF 8
ENDMDL
MODEL 2
REMARK VINA RESULT:      -6.7      2.288      7.376
REMARK  Name = 
REMARK  12 active torsions:
REMARK  status: ('A' for Active; 'I' for Inactive)
REMARK    1  A    between atoms: C_1  and  C_2
REMARK    2  A    between atoms: C_2  and  C_3
REMARK    3  A    between atoms: C_3  and  N_4
REMARK    4  A    between atoms: C_3  and  C_20
REMARK    5  A    between atoms: C_5  and  C_7
REMARK    6  A    between atoms: C_9  and  O_10
REMARK    7  A    between atoms: O_10  and  C_11
REMARK    8  A    between atoms: C_12  and  O_13
REMARK    9  A    between atoms: O_13  and  C_14
REMARK   10  A    between atoms: C_14  and  C_15
REMARK   11  A    between atoms: C_14  and  C_16
REMARK   12  A    between atoms: C_22  and  O_23
REMARK                            x       y       z     vdW  Elec       q    Type
REMARK                         _______ _______ _______ _____ _____    ______ ____
ROOT
ATOM      1  N   UNL     1       4.197   5.996  17.654  0.00  0.00    +0.000 N 
ATOM      2  C   UNL     1       2.917   5.758  18.088  0.00  0.00    +0.000 C 
ATOM      3  O   UNL     1       2.267   4.774  17.741  0.00  0.00    +0.000 OA
ATOM      4  H   UNL     1       4.706   6.796  18.018  0.00  0.00    +0.000 HD
ENDROOT
BRANCH   2   5
ATOM      5  C   UNL     1       2.277   6.783  18.951  0.00  0.00    +0.000 A 
ATOM      6  C   UNL     1       2.052   8.022  18.330  0.00  0.00    +0.000 A 
ATOM      7  C   UNL     1       1.541   9.113  19.040  0.00  0.00    +0.000 A 
ATOM      8  C   UNL     1       1.235   8.956  20.402  0.00  0.00    +0.000 A 
ATOM      9  C   UNL     1       1.377   7.697  21.000  0.00  0.00    +0.000 A 
ATOM     10  C   UNL     1       1.913   6.618  20.288  0.00  0.00    +0.000 A 
ATOM     11 CL   UNL     1       2.082   5.132  21.158  0.00  0.00    +0.000 Cl
BRANCH   7  12
ATOM     12  O   UNL     1       1.346  10.353  18.485  0.00  0.00    +0.000 OA
ATOM     13  C   UNL     1       0.020  10.666  18.060  0.00  0.00    +0.000 C 
ENDBRANCH   7  12
BRANCH   8  14
ATOM     14  O   UNL     1       0.813  10.074  21.082  0.00  0.00    +0.000 OA
BRANCH  14  15
ATOM     15  C   UNL     1      -0.453  10.028  21.758  0.00  0.00    +0.000 C 
ATOM     16  C   UNL     1      -0.289   9.754  23.254  0.00  0.00    +0.000 C 
ATOM     17  C   UNL     1      -1.118  11.391  21.568  0.00  0.00    +0.000 C 
ENDBRANCH  14  15
ENDBRANCH   8  14
ENDBRANCH   2   5
BRANCH   1  18
ATOM     18  C   UNL     1       4.878   5.090  16.742  0.00  0.00    +0.000 C 
BRANCH  18  19
ATOM     19  C   UNL     1       5.961   4.380  17.576  0.00  0.00    +0.000 C 
ATOM     20  C   UNL     1       7.381   4.990  17.516  0.00  0.00    +0.000 C 
ATOM     21  C   UNL     1       7.179   5.526  18.949  0.00  0.00    +0.000 C 
ATOM     22  C   UNL     1       6.046   4.491  19.121  0.00  0.00    +0.000 C 
BRANCH  21  23
ATOM     23  O   UNL     1       8.302   5.410  19.840  0.00  0.00    +0.000 OA
ATOM     24  H   UNL     1       8.376   4.464  20.050  0.00  0.00    +0.000 HD
ENDBRANCH  21  23
ENDBRANCH  18  19
BRANCH  18  26
ATOM     25  C   UNL     1       5.718   4.919  14.355  0.00  0.00    +0.000 C 
ATOM     26  C   UNL     1       5.395   5.853  15.519  0.00  0.00    +0.000 C 
ENDBRANCH  18  26
ENDBRANCH   1  18
TORSDOF 8
ENDMDL
MODEL 3
REMARK VINA RESULT:      -6.6      2.508      7.301
REMARK  Name = 
REMARK  12 active torsions:
REMARK  status: ('A' for Active; 'I' for Inactive)
REMARK    1  A    between atoms: C_1  and  C_2
REMARK    2  A    between atoms: C_2  and  C_3
REMARK    3  A    between atoms: C_3  and  N_4
REMARK    4  A    between atoms: C_3  and  C_20
REMARK    5  A    between atoms: C_5  and  C_7
REMARK    6  A    between atoms: C_9  and  O_10
REMARK    7  A    between atoms: O_10  and  C_11
REMARK    8  A    between atoms: C_12  and  O_13
REMARK    9  A    between atoms: O_13  and  C_14
REMARK   10  A    between atoms: C_14  and  C_15
REMARK   11  A    between atoms: C_14  and  C_16
REMARK   12  A    between atoms: C_22  and  O_23
REMARK                            x       y       z     vdW  Elec       q    Type
REMARK                         _______ _______ _______ _____ _____    ______ ____
ROOT
ATOM      1  N   UNL     1       4.652   5.973  17.143  0.00  0.00    +0.000 N 
ATOM      2  C   UNL     1       3.825   5.463  18.113  0.00  0.00    +0.000 C 
ATOM      3  O   UNL     1       3.817   4.274  18.425  0.00  0.00    +0.000 OA
ATOM      4  H   UNL     1       4.655   6.973  16.967  0.00  0.00    +0.000 HD
ENDROOT
BRANCH   2   5
ATOM      5  C   UNL     1       2.850   6.386  18.747  0.00  0.00    +0.000 A 
ATOM      6  C   UNL     1       2.565   7.545  18.006  0.00  0.00    +0.000 A 
ATOM      7  C   UNL     1       1.737   8.550  18.513  0.00  0.00    +0.000 A 
ATOM      8  C   UNL     1       1.169   8.387  19.788  0.00  0.00    +0.000 A 
ATOM      9  C   UNL     1       1.383   7.194  20.489  0.00  0.00    +0.000 A 
ATOM     10  C   UNL     1       2.233   6.204  19.985  0.00  0.00    +0.000 A 
ATOM     11 CL   UNL     1       2.451   4.801  20.974  0.00  0.00    +0.000 Cl
BRANCH   7  12
ATOM     12  O   UNL     1       1.466   9.718  17.842  0.00  0.00    +0.000 OA
ATOM     13  C   UNL     1       2.434  10.760  17.951  0.00  0.00    +0.000 C 
ENDBRANCH   7  12
BRANCH   8  14
ATOM     14  O   UNL     1       0.429   9.434  20.283  0.00  0.00    +0.000 OA
BRANCH  14  15
ATOM     15  C   UNL     1       0.960  10.189  21.383  0.00  0.00    +0.000 C 
ATOM     16  C   UNL     1       0.888  11.696  21.124  0.00  0.00    +0.000 C 
ATOM     17  C   UNL     1       0.120   9.851  22.614  0.00  0.00    +0.000 C 
ENDBRANCH  14  15
ENDBRANCH   8  14
ENDBRANCH   2   5
BRANCH   1  18
ATOM     18  C   UNL     1       5.584   5.130  16.411  0.00  0.00    +0.000 C 
BRANCH  18  19
ATOM     19  C   UNL     1       6.985   5.479  16.946  0.00  0.00    +0.000 C 
ATOM     20  C   UNL     1       7.047   6.553  18.057  0.00  0.00    +0.000 C 
ATOM     21  C   UNL     1       7.360   5.437  19.077  0.00  0.00    +0.000 C 
ATOM     22  C   UNL     1       7.786   4.545  17.890  0.00  0.00    +0.000 C 
BRANCH  21  23
ATOM     23  O   UNL     1       8.368   5.732  20.059  0.00  0.00    +0.000 OA
ATOM     24  H   UNL     1       8.771   4.878  20.289  0.00  0.00    +0.000 HD
ENDBRANCH  21  23
ENDBRANCH  18  19
BRANCH  18  26
ATOM     25  C   UNL     1       5.964   4.143  14.105  0.00  0.00    +0.000 C 
ATOM     26  C   UNL     1       5.399   5.317  14.902  0.00  0.00    +0.000 C 
ENDBRANCH  18  26
ENDBRANCH   1  18
TORSDOF 8
ENDMDL
MODEL 4
REMARK VINA RESULT:      -6.6      2.390      7.398
REMARK  Name = 
REMARK  12 active torsions:
REMARK  status: ('A' for Active; 'I' for Inactive)
REMARK    1  A    between atoms: C_1  and  C_2
REMARK    2  A    between atoms: C_2  and  C_3
REMARK    3  A    between atoms: C_3  and  N_4
REMARK    4  A    between atoms: C_3  and  C_20
REMARK    5  A    between atoms: C_5  and  C_7
REMARK    6  A    between atoms: C_9  and  O_10
REMARK    7  A    between atoms: O_10  and  C_11
REMARK    8  A    between atoms: C_12  and  O_13
REMARK    9  A    between atoms: O_13  and  C_14
REMARK   10  A    between atoms: C_14  and  C_15
REMARK   11  A    between atoms: C_14  and  C_16
REMARK   12  A    between atoms: C_22  and  O_23
REMARK                            x       y       z     vdW  Elec       q    Type
REMARK                         _______ _______ _______ _____ _____    ______ ____
ROOT
ATOM      1  N   UNL     1       4.622   6.065  16.920  0.00  0.00    +0.000 N 
ATOM      2  C   UNL     1       3.804   5.735  17.972  0.00  0.00    +0.000 C 
ATOM      3  O   UNL     1       3.725   4.594  18.423  0.00  0.00    +0.000 OA
ATOM      4  H   UNL     1       4.688   7.035  16.626  0.00  0.00    +0.000 HD
ENDROOT
BRANCH   2   5
ATOM      5  C   UNL     1       2.927   6.797  18.527  0.00  0.00    +0.000 A 
ATOM      6  C   UNL     1       2.786   7.933  17.713  0.00  0.00    +0.000 A 
ATOM      7  C   UNL     1       2.067   9.052  18.140  0.00  0.00    +0.000 A 
ATOM      8  C   UNL     1       1.461   9.031  19.407  0.00  0.00    +0.000 A 
ATOM      9  C   UNL     1       1.528   7.866  20.182  0.00  0.00    +0.000 A 
ATOM     10  C   UNL     1       2.272   6.759  19.758  0.00  0.00    +0.000 A 
ATOM     11 CL   UNL     1       2.313   5.403  20.832  0.00  0.00    +0.000 Cl
BRANCH   7  12
ATOM     12  O   UNL     1       1.940  10.200  17.396  0.00  0.00    +0.000 OA
ATOM     13  C   UNL     1       2.525  11.383  17.935  0.00  0.00    +0.000 C 
ENDBRANCH   7  12
BRANCH   8  14
ATOM     14  O   UNL     1       0.834  10.181  19.822  0.00  0.00    +0.000 OA
BRANCH  14  15
ATOM     15  C   UNL     1      -0.487  10.080  20.376  0.00  0.00    +0.000 C 
ATOM     16  C   UNL     1      -0.497  10.383  21.877  0.00  0.00    +0.000 C 
ATOM     17  C   UNL     1      -1.363  11.103  19.653  0.00  0.00    +0.000 C 
ENDBRANCH  14  15
ENDBRANCH   8  14
ENDBRANCH   2   5
BRANCH   1  18
ATOM     18  C   UNL     1       5.457   5.075  16.259  0.00  0.00    +0.000 C 
BRANCH  18  19
ATOM     19  C   UNL     1       6.907   5.400  16.667  0.00  0.00    +0.000 C 
ATOM     20  C   UNL     1       7.109   6.674  17.521  0.00  0.00    +0.000 C 
ATOM     21  C   UNL     1       7.378   5.773  18.746  0.00  0.00    +0.000 C 
ATOM     22  C   UNL     1       7.671   4.617  17.765  0.00  0.00    +0.000 C 
BRANCH  21  23
ATOM     23  O   UNL     1       8.452   6.176  19.613  0.00  0.00    +0.000 OA
ATOM     24  H   UNL     1       8.752   7.038  19.278  0.00  0.00    +0.000 HD
ENDBRANCH  21  23
ENDBRANCH  18  19
BRANCH  18  26
ATOM     25  C   UNL     1       6.192   4.204  13.993  0.00  0.00    +0.000 C 
ATOM     26  C   UNL     1       5.191   5.073  14.751  0.00  0.00    +0.000 C 
ENDBRANCH  18  26
ENDBRANCH   1  18
TORSDOF 8
ENDMDL
MODEL 5
REMARK VINA RESULT:      -6.6      3.990      6.244
REMARK  Name = 
REMARK  12 active torsions:
REMARK  status: ('A' for Active; 'I' for Inactive)
REMARK    1  A    between atoms: C_1  and  C_2
REMARK    2  A    between atoms: C_2  and  C_3
REMARK    3  A    between atoms: C_3  and  N_4
REMARK    4  A    between atoms: C_3  and  C_20
REMARK    5  A    between atoms: C_5  and  C_7
REMARK    6  A    between atoms: C_9  and  O_10
REMARK    7  A    between atoms: O_10  and  C_11
REMARK    8  A    between atoms: C_12  and  O_13
REMARK    9  A    between atoms: O_13  and  C_14
REMARK   10  A    between atoms: C_14  and  C_15
REMARK   11  A    between atoms: C_14  and  C_16
REMARK   12  A    between atoms: C_22  and  O_23
REMARK                            x       y       z     vdW  Elec       q    Type
REMARK                         _______ _______ _______ _____ _____    ______ ____
ROOT
ATOM      1  N   UNL     1       3.134   5.528  19.130  0.00  0.00    +0.000 N 
ATOM      2  C   UNL     1       4.356   4.915  19.264  0.00  0.00    +0.000 C 
ATOM      3  O   UNL     1       4.777   4.495  20.339  0.00  0.00    +0.000 OA
ATOM      4  H   UNL     1       2.815   5.804  18.207  0.00  0.00    +0.000 HD
ENDROOT
BRANCH   2   5
ATOM      5  C   UNL     1       5.225   4.834  18.062  0.00  0.00    +0.000 A 
ATOM      6  C   UNL     1       6.150   5.881  17.930  0.00  0.00    +0.000 A 
ATOM      7  C   UNL     1       6.973   5.991  16.806  0.00  0.00    +0.000 A 
ATOM      8  C   UNL     1       6.878   5.021  15.794  0.00  0.00    +0.000 A 
ATOM      9  C   UNL     1       6.017   3.930  15.965  0.00  0.00    +0.000 A 
ATOM     10  C   UNL     1       5.178   3.841  17.082  0.00  0.00    +0.000 A 
ATOM     11 CL   UNL     1       4.128   2.468  17.148  0.00  0.00    +0.000 Cl
BRANCH   7  12
ATOM     12  O   UNL     1       7.861   7.021  16.615  0.00  0.00    +0.000 OA
ATOM     13  C   UNL     1       7.812   8.094  17.554  0.00  0.00    +0.000 C 
ENDBRANCH   7  12
BRANCH   8  14
ATOM     14  O   UNL     1       7.644   5.211  14.669  0.00  0.00    +0.000 OA
BRANCH  14  15
ATOM     15  C   UNL     1       6.995   5.202  13.388  0.00  0.00    +0.000 C 
ATOM     16  C   UNL     1       7.945   5.635  12.268  0.00  0.00    +0.000 C 
ATOM     17  C   UNL     1       6.531   3.770  13.124  0.00  0.00    +0.000 C 
ENDBRANCH  14  15
ENDBRANCH   8  14
ENDBRANCH   2   5
BRANCH   1  18
ATOM     18  C   UNL     1       2.249   5.726  20.266  0.00  0.00    +0.000 C 
BRANCH  18  19
ATOM     19  C   UNL     1       1.159   4.643  20.151  0.00  0.00    +0.000 C 
ATOM     20  C   UNL     1       1.112   3.858  18.819  0.00  0.00    +0.000 C 
ATOM     21  C   UNL     1       1.702   2.635  19.553  0.00  0.00    +0.000 C 
ATOM     22  C   UNL     1       1.244   3.277  20.881  0.00  0.00    +0.000 C 
BRANCH  21  23
ATOM     23  O   UNL     1       1.136   1.355  19.223  0.00  0.00    +0.000 OA
ATOM     24  H   UNL     1       0.867   1.418  18.290  0.00  0.00    +0.000 HD
ENDBRANCH  21  23
ENDBRANCH  18  19
BRANCH  18  26
ATOM     25  C   UNL     1       2.115   7.939  19.035  0.00  0.00    +0.000 C 
ATOM     26  C   UNL     1       1.732   7.167  20.296  0.00  0.00    +0.000 C 
ENDBRANCH  18  26
ENDBRANCH   1  18
TORSDOF 8
ENDMDL
MODEL 6
REMARK VINA RESULT:      -6.5      1.491      1.602
REMARK  Name = 
REMARK  12 active torsions:
REMARK  status: ('A' for Active; 'I' for Inactive)
REMARK    1  A    between atoms: C_1  and  C_2
REMARK    2  A    between atoms: C_2  and  C_3
REMARK    3  A    between atoms: C_3  and  N_4
REMARK    4  A    between atoms: C_3  and  C_20
REMARK    5  A    between atoms: C_5  and  C_7
REMARK    6  A    between atoms: C_9  and  O_10
REMARK    7  A    between atoms: O_10  and  C_11
REMARK    8  A    between atoms: C_12  and  O_13
REMARK    9  A    between atoms: O_13  and  C_14
REMARK   10  A    between atoms: C_14  and  C_15
REMARK   11  A    between atoms: C_14  and  C_16
REMARK   12  A    between atoms: C_22  and  O_23
REMARK                            x       y       z     vdW  Elec       q    Type
REMARK                         _______ _______ _______ _____ _____    ______ ____
ROOT
ATOM      1  N   UNL     1       0.399  10.279  19.026  0.00  0.00    +0.000 N 
ATOM      2  C   UNL     1       1.530   9.655  18.562  0.00  0.00    +0.000 C 
ATOM      3  O   UNL     1       2.263  10.151  17.709  0.00  0.00    +0.000 OA
ATOM      4  H   UNL     1      -0.138   9.846  19.772  0.00  0.00    +0.000 HD
ENDROOT
BRANCH   2   5
ATOM      5  C   UNL     1       1.824   8.289  19.065  0.00  0.00    +0.000 A 
ATOM      6  C   UNL     1       2.388   7.419  18.118  0.00  0.00    +0.000 A 
ATOM      7  C   UNL     1       2.635   6.076  18.417  0.00  0.00    +0.000 A 
ATOM      8  C   UNL     1       2.323   5.594  19.700  0.00  0.00    +0.000 A 
ATOM      9  C   UNL     1       1.841   6.482  20.670  0.00  0.00    +0.000 A 
ATOM     10  C   UNL     1       1.573   7.819  20.355  0.00  0.00    +0.000 A 
ATOM     11 CL   UNL     1       0.934   8.797  21.631  0.00  0.00    +0.000 Cl
BRANCH   7  12
ATOM     12  O   UNL     1       3.145   5.180  17.510  0.00  0.00    +0.000 OA
ATOM     13  C   UNL     1       4.445   5.459  16.993  0.00  0.00    +0.000 C 
ENDBRANCH   7  12
BRANCH   8  14
ATOM     14  O   UNL     1       2.504   4.251  19.926  0.00  0.00    +0.000 OA
BRANCH  14  15
ATOM     15  C   UNL     1       1.347   3.434  20.163  0.00  0.00    +0.000 C 
ATOM     16  C   UNL     1       1.138   2.409  19.045  0.00  0.00    +0.000 C 
ATOM     17  C   UNL     1       1.574   2.696  21.482  0.00  0.00    +0.000 C 
ENDBRANCH  14  15
ENDBRANCH   8  14
ENDBRANCH   2   5
BRANCH   1  18
ATOM     18  C   UNL     1      -0.014  11.583  18.532  0.00  0.00    +0.000 C 
BRANCH  18  19
ATOM     19  C   UNL     1       0.276  12.580  19.669  0.00  0.00    +0.000 C 
ATOM     20  C   UNL     1      -0.940  13.028  20.515  0.00  0.00    +0.000 C 
ATOM     21  C   UNL     1      -0.417  12.152  21.674  0.00  0.00    +0.000 C 
ATOM     22  C   UNL     1       0.970  12.172  20.995  0.00  0.00    +0.000 C 
BRANCH  21  23
ATOM     23  O   UNL     1      -0.501  12.719  22.993  0.00  0.00    +0.000 OA
ATOM     24  H   UNL     1      -0.324  11.986  23.607  0.00  0.00    +0.000 HD
ENDBRANCH  21  23
ENDBRANCH  18  19
BRANCH  18  26
ATOM     25  C   UNL     1      -1.990  10.108  17.937  0.00  0.00    +0.000 C 
ATOM     26  C   UNL     1      -1.471  11.538  18.062  0.00  0.00    +0.000 C 
ENDBRANCH  18  26
ENDBRANCH   1  18
TORSDOF 8
ENDMDL
MODEL 7
REMARK VINA RESULT:      -6.5      2.263      7.827
REMARK  Name = 
REMARK  12 active torsions:
REMARK  status: ('A' for Active; 'I' for Inactive)
REMARK    1  A    between atoms: C_1  and  C_2
REMARK    2  A    between atoms: C_2  and  C_3
REMARK    3  A    between atoms: C_3  and  N_4
REMARK    4  A    between atoms: C_3  and  C_20
REMARK    5  A    between atoms: C_5  and  C_7
REMARK    6  A    between atoms: C_9  and  O_10
REMARK    7  A    between atoms: O_10  and  C_11
REMARK    8  A    between atoms: C_12  and  O_13
REMARK    9  A    between atoms: O_13  and  C_14
REMARK   10  A    between atoms: C_14  and  C_15
REMARK   11  A    between atoms: C_14  and  C_16
REMARK   12  A    between atoms: C_22  and  O_23
REMARK                            x       y       z     vdW  Elec       q    Type
REMARK                         _______ _______ _______ _____ _____    ______ ____
ROOT
ATOM      1  N   UNL     1       3.568   5.392  18.848  0.00  0.00    +0.000 N 
ATOM      2  C   UNL     1       2.735   5.799  19.860  0.00  0.00    +0.000 C 
ATOM      3  O   UNL     1       2.426   5.073  20.803  0.00  0.00    +0.000 OA
ATOM      4  H   UNL     1       3.832   6.053  18.124  0.00  0.00    +0.000 HD
ENDROOT
BRANCH   2   5
ATOM      5  C   UNL     1       2.127   7.150  19.756  0.00  0.00    +0.000 A 
ATOM      6  C   UNL     1       1.301   7.511  20.833  0.00  0.00    +0.000 A 
ATOM      7  C   UNL     1       0.588   8.713  20.834  0.00  0.00    +0.000 A 
ATOM      8  C   UNL     1       0.714   9.582  19.737  0.00  0.00    +0.000 A 
ATOM      9  C   UNL     1       1.604   9.262  18.704  0.00  0.00    +0.000 A 
ATOM     10  C   UNL     1       2.294   8.045  18.698  0.00  0.00    +0.000 A 
ATOM     11 CL   UNL     1       3.324   7.751  17.339  0.00  0.00    +0.000 Cl
BRANCH   7  12
ATOM     12  O   UNL     1      -0.263   9.088  21.845  0.00  0.00    +0.000 OA
ATOM     13  C   UNL     1       0.334   9.422  23.097  0.00  0.00    +0.000 C 
ENDBRANCH   7  12
BRANCH   8  14
ATOM     14  O   UNL     1      -0.067  10.713  19.740  0.00  0.00    +0.000 OA
BRANCH  14  15
ATOM     15  C   UNL     1      -0.601  11.181  18.492  0.00  0.00    +0.000 C 
ATOM     16  C   UNL     1      -1.879  10.432  18.106  0.00  0.00    +0.000 C 
ATOM     17  C   UNL     1      -0.923  12.665  18.663  0.00  0.00    +0.000 C 
ENDBRANCH  14  15
ENDBRANCH   8  14
ENDBRANCH   2   5
BRANCH   1  18
ATOM     18  C   UNL     1       4.147   4.058  18.822  0.00  0.00    +0.000 C 
BRANCH  18  19
ATOM     19  C   UNL     1       5.638   4.247  18.487  0.00  0.00    +0.000 C 
ATOM     20  C   UNL     1       5.987   4.430  16.992  0.00  0.00    +0.000 C 
ATOM     21  C   UNL     1       6.259   5.924  17.269  0.00  0.00    +0.000 C 
ATOM     22  C   UNL     1       6.406   5.566  18.764  0.00  0.00    +0.000 C 
BRANCH  21  23
ATOM     23  O   UNL     1       7.411   6.495  16.624  0.00  0.00    +0.000 OA
ATOM     24  H   UNL     1       7.110   6.766  15.739  0.00  0.00    +0.000 HD
ENDBRANCH  21  23
ENDBRANCH  18  19
BRANCH  18  26
ATOM     25  C   UNL     1       3.494   1.682  18.222  0.00  0.00    +0.000 C 
ATOM     26  C   UNL     1       3.372   3.159  17.855  0.00  0.00    +0.000 C 
ENDBRANCH  18  26
ENDBRANCH   1  18
TORSDOF 8
ENDMDL
MODEL 8
REMARK VINA RESULT:      -6.5      2.251      7.658
REMARK  Name = 
REMARK  12 active torsions:
REMARK  status: ('A' for Active; 'I' for Inactive)
REMARK    1  A    between atoms: C_1  and  C_2
REMARK    2  A    between atoms: C_2  and  C_3
REMARK    3  A    between atoms: C_3  and  N_4
REMARK    4  A    between atoms: C_3  and  C_20
REMARK    5  A    between atoms: C_5  and  C_7
REMARK    6  A    between atoms: C_9  and  O_10
REMARK    7  A    between atoms: O_10  and  C_11
REMARK    8  A    between atoms: C_12  and  O_13
REMARK    9  A    between atoms: O_13  and  C_14
REMARK   10  A    between atoms: C_14  and  C_15
REMARK   11  A    between atoms: C_14  and  C_16
REMARK   12  A    between atoms: C_22  and  O_23
REMARK                            x       y       z     vdW  Elec       q    Type
REMARK                         _______ _______ _______ _____ _____    ______ ____
ROOT
ATOM      1  N   UNL     1       3.503   4.851  17.678  0.00  0.00    +0.000 N 
ATOM      2  C   UNL     1       3.859   5.796  18.609  0.00  0.00    +0.000 C 
ATOM      3  O   UNL     1       5.002   5.902  19.047  0.00  0.00    +0.000 OA
ATOM      4  H   UNL     1       2.556   4.846  17.311  0.00  0.00    +0.000 HD
ENDROOT
BRANCH   2   5
ATOM      5  C   UNL     1       2.788   6.667  19.155  0.00  0.00    +0.000 A 
ATOM      6  C   UNL     1       2.493   7.799  18.379  0.00  0.00    +0.000 A 
ATOM      7  C   UNL     1       1.573   8.759  18.808  0.00  0.00    +0.000 A 
ATOM      8  C   UNL     1       0.921   8.577  20.040  0.00  0.00    +0.000 A 
ATOM      9  C   UNL     1       1.151   7.406  20.773  0.00  0.00    +0.000 A 
ATOM     10  C   UNL     1       2.093   6.462  20.348  0.00  0.00    +0.000 A 
ATOM     11 CL   UNL     1       2.317   5.084  21.371  0.00  0.00    +0.000 Cl
BRANCH   7  12
ATOM     12  O   UNL     1       1.285   9.902  18.102  0.00  0.00    +0.000 OA
ATOM     13  C   UNL     1       2.308  10.894  18.042  0.00  0.00    +0.000 C 
ENDBRANCH   7  12
BRANCH   8  14
ATOM     14  O   UNL     1       0.088   9.584  20.464  0.00  0.00    +0.000 OA
BRANCH  14  15
ATOM     15  C   UNL     1       0.542  10.455  21.511  0.00  0.00    +0.000 C 
ATOM     16  C   UNL     1       0.419  11.929  21.117  0.00  0.00    +0.000 C 
ATOM     17  C   UNL     1      -0.333  10.189  22.735  0.00  0.00    +0.000 C 
ENDBRANCH  14  15
ENDBRANCH   8  14
ENDBRANCH   2   5
BRANCH   1  18
ATOM     18  C   UNL     1       4.466   3.901  17.145  0.00  0.00    +0.000 C 
BRANCH  18  19
ATOM     19  C   UNL     1       4.820   4.401  15.731  0.00  0.00    +0.000 C 
ATOM     20  C   UNL     1       5.575   5.748  15.651  0.00  0.00    +0.000 C 
ATOM     21  C   UNL     1       6.856   4.972  15.275  0.00  0.00    +0.000 C 
ATOM     22  C   UNL     1       5.956   3.782  14.876  0.00  0.00    +0.000 C 
BRANCH  21  23
ATOM     23  O   UNL     1       7.670   5.545  14.237  0.00  0.00    +0.000 OA
ATOM     24  H   UNL     1       7.887   6.445  14.538  0.00  0.00    +0.000 HD
ENDBRANCH  21  23
ENDBRANCH  18  19
BRANCH  18  26
ATOM     25  C   UNL     1       2.591   2.414  17.987  0.00  0.00    +0.000 C 
ATOM     26  C   UNL     1       3.903   2.478  17.209  0.00  0.00    +0.000 C 
ENDBRANCH  18  26
ENDBRANCH   1  18
TORSDOF 8
ENDMDL
MODEL 9
REMARK VINA RESULT:      -6.4      2.151      3.898
REMARK  Name = 
REMARK  12 active torsions:
REMARK  status: ('A' for Active; 'I' for Inactive)
REMARK    1  A    between atoms: C_1  and  C_2
REMARK    2  A    between atoms: C_2  and  C_3
REMARK    3  A    between atoms: C_3  and  N_4
REMARK    4  A    between atoms: C_3  and  C_20
REMARK    5  A    between atoms: C_5  and  C_7
REMARK    6  A    between atoms: C_9  and  O_10
REMARK    7  A    between atoms: O_10  and  C_11
REMARK    8  A    between atoms: C_12  and  O_13
REMARK    9  A    between atoms: O_13  and  C_14
REMARK   10  A    between atoms: C_14  and  C_15
REMARK   11  A    between atoms: C_14  and  C_16
REMARK   12  A    between atoms: C_22  and  O_23
REMARK                            x       y       z     vdW  Elec       q    Type
REMARK                         _______ _______ _______ _____ _____    ______ ____
ROOT
ATOM      1  N   UNL     1       1.472   8.232  20.164  0.00  0.00    +0.000 N 
ATOM      2  C   UNL     1       1.734   6.885  20.199  0.00  0.00    +0.000 C 
ATOM      3  O   UNL     1       1.121   6.105  20.925  0.00  0.00    +0.000 OA
ATOM      4  H   UNL     1       1.972   8.819  19.503  0.00  0.00    +0.000 HD
ENDROOT
BRANCH   2   5
ATOM      5  C   UNL     1       2.860   6.376  19.375  0.00  0.00    +0.000 A 
ATOM      6  C   UNL     1       3.438   5.183  19.837  0.00  0.00    +0.000 A 
ATOM      7  C   UNL     1       4.564   4.631  19.221  0.00  0.00    +0.000 A 
ATOM      8  C   UNL     1       5.119   5.281  18.105  0.00  0.00    +0.000 A 
ATOM      9  C   UNL     1       4.491   6.423  17.592  0.00  0.00    +0.000 A 
ATOM     10  C   UNL     1       3.379   6.983  18.231  0.00  0.00    +0.000 A 
ATOM     11 CL   UNL     1       2.729   8.422  17.523  0.00  0.00    +0.000 Cl
BRANCH   7  12
ATOM     12  O   UNL     1       5.188   3.490  19.664  0.00  0.00    +0.000 OA
ATOM     13  C   UNL     1       4.357   2.356  19.907  0.00  0.00    +0.000 C 
ENDBRANCH   7  12
BRANCH   8  14
ATOM     14  O   UNL     1       6.273   4.751  17.580  0.00  0.00    +0.000 OA
BRANCH  14  15
ATOM     15  C   UNL     1       7.498   5.483  17.740  0.00  0.00    +0.000 C 
ATOM     16  C   UNL     1       7.422   6.866  17.086  0.00  0.00    +0.000 C 
ATOM     17  C   UNL     1       7.734   5.651  19.240  0.00  0.00    +0.000 C 
ENDBRANCH  14  15
ENDBRANCH   8  14
ENDBRANCH   2   5
BRANCH   1  18
ATOM     18  C   UNL     1       0.442   8.834  20.994  0.00  0.00    +0.000 C 
BRANCH  18  19
ATOM     19  C   UNL     1      -0.255   9.888  20.113  0.00  0.00    +0.000 C 
ATOM     20  C   UNL     1       0.186  11.356  20.322  0.00  0.00    +0.000 C 
ATOM     21  C   UNL     1       0.937  11.290  18.975  0.00  0.00    +0.000 C 
ATOM     22  C   UNL     1       0.062  10.072  18.606  0.00  0.00    +0.000 C 
BRANCH  21  23
ATOM     23  O   UNL     1       0.829  12.446  18.125  0.00  0.00    +0.000 OA
ATOM     24  H   UNL     1       0.929  12.116  17.216  0.00  0.00    +0.000 HD
ENDBRANCH  21  23
ENDBRANCH  18  19
BRANCH  18  26
ATOM     25  C   UNL     1       0.021   9.455  23.418  0.00  0.00    +0.000 C 
ATOM     26  C   UNL     1       1.050   9.372  22.293  0.00  0.00    +0.000 C 
ENDBRANCH  18  26
ENDBRANCH   1  18
TORSDOF 8
ENDMDL
