MODEL 1
REMARK VINA RESULT:      -7.9      0.000      0.000
REMARK  Name = 
REMARK  12 active torsions:
REMARK  status: ('A' for Active; 'I' for Inactive)
REMARK    1  A    between atoms: C_1  and  O_2
REMARK    2  A    between atoms: O_2  and  C_3
REMARK    3  A    between atoms: C_6  and  C_7
REMARK    4  A    between atoms: C_7  and  C_8
REMARK    5  A    between atoms: C_8  and  C_9
REMARK    6  A    between atoms: C_9  and  C_11
REMARK    7  A    between atoms: C_12  and  O_13
REMARK    8  A    between atoms: C_15  and  O_16
REMARK    9  A    between atoms: O_16  and  C_17
REMARK   10  A    between atoms: C_17  and  C_18
REMARK   11  A    between atoms: C_22  and  O_23
REMARK   12  A    between atoms: C_25  and  O_26
REMARK                            x       y       z     vdW  Elec       q    Type
REMARK                         _______ _______ _______ _____ _____    ______ ____
ROOT
ATOM      1  C   UNL     1       6.296   6.185  17.854  0.00  0.00    +0.000 A 
ATOM      2  C   UNL     1       5.135   6.280  17.072  0.00  0.00    +0.000 A 
ATOM      3  C   UNL     1       3.939   5.702  17.488  0.00  0.00    +0.000 A 
ATOM      4  C   UNL     1       3.889   4.965  18.665  0.00  0.00    +0.000 A 
ATOM      5  C   UNL     1       5.023   4.879  19.472  0.00  0.00    +0.000 A 
ATOM      6  C   UNL     1       6.217   5.488  19.075  0.00  0.00    +0.000 A 
ENDROOT
BRANCH   1   7
ATOM      7  C   UNL     1       7.545   6.851  17.359  0.00  0.00    +0.000 C 
ATOM      8  O   UNL     1       7.947   6.622  16.213  0.00  0.00    +0.000 OA
BRANCH   7   9
ATOM      9  C   UNL     1       8.217   7.857  18.256  0.00  0.00    +0.000 C 
BRANCH   9  10
ATOM     10  C   UNL     1       7.929   9.322  17.939  0.00  0.00    +0.000 C 
BRANCH  10  14
ATOM     11  C   UNL     1      11.148  11.864  19.376  0.00  0.00    +0.000 A 
ATOM     12  C   UNL     1      10.224  11.307  20.260  0.00  0.00    +0.000 A 
ATOM     13  C   UNL     1       9.173  10.516  19.782  0.00  0.00    +0.000 A 
ATOM     14  C   UNL     1       9.024  10.272  18.409  0.00  0.00    +0.000 A 
ATOM     15  C   UNL     1       9.931  10.878  17.526  0.00  0.00    +0.000 A 
ATOM     16  C   UNL     1      10.989  11.642  18.010  0.00  0.00    +0.000 A 
BRANCH  11  18
ATOM     17  C   UNL     1      12.244  13.883  19.929  0.00  0.00    +0.000 C 
ATOM     18  O   UNL     1      12.249  12.451  19.937  0.00  0.00    +0.000 OA
ENDBRANCH  11  18
BRANCH  16  19
ATOM     19  O   UNL     1      11.969  12.002  17.125  0.00  0.00    +0.000 OA
ATOM     20  H   UNL     1      12.538  12.651  17.597  0.00  0.00    +0.000 HD
ENDBRANCH  16  19
ENDBRANCH  10  14
ENDBRANCH   9  10
ENDBRANCH   7   9
ENDBRANCH   1   7
BRANCH   2  21
ATOM     21  O   UNL     1       5.092   6.933  15.868  0.00  0.00    +0.000 OA
ATOM     22  H   UNL     1       5.727   7.686  15.911  0.00  0.00    +0.000 HD
ENDBRANCH   2  21
BRANCH   6  23
ATOM     23  O   UNL     1       7.293   5.354  19.912  0.00  0.00    +0.000 OA
ATOM     24  H   UNL     1       7.379   4.407  20.133  0.00  0.00    +0.000 HD
ENDBRANCH   6  23
BRANCH   4  25
ATOM     25  O   UNL     1       2.797   4.291  19.125  0.00  0.00    +0.000 OA
BRANCH  25  26
ATOM     26  C   UNL     1       3.096   3.235  20.063  0.00  0.00    +0.000 C 
BRANCH  26  27
ATOM     27  C   UNL     1       2.002   3.143  21.140  0.00  0.00    +0.000 C 
ATOM     28  O   UNL     1       0.823   3.383  20.746  0.00  0.00    +0.000 OA
ATOM     29  O   UNL     1       2.424   2.893  22.306  0.00  0.00    +0.000 OA
ENDBRANCH  26  27
ENDBRANCH  25  26
ENDBRANCH   4  25
TORSDOF 11
ENDMDL
MODEL 2
REMARK VINA RESULT:      -7.8      1.109      1.802
REMARK  Name = 
REMARK  12 active torsions:
REMARK  status: ('A' for Active; 'I' for Inactive)
REMARK    1  A    between atoms: C_1  and  O_2
REMARK    2  A    between atoms: O_2  and  C_3
REMARK    3  A    between atoms: C_6  and  C_7
REMARK    4  A    between atoms: C_7  and  C_8
REMARK    5  A    between atoms: C_8  and  C_9
REMARK    6  A    between atoms: C_9  and  C_11
REMARK    7  A    between atoms: C_12  and  O_13
REMARK    8  A    between atoms: C_15  and  O_16
REMARK    9  A    between atoms: O_16  and  C_17
REMARK   10  A    between atoms: C_17  and  C_18
REMARK   11  A    between atoms: C_22  and  O_23
REMARK   12  A    between atoms: C_25  and  O_26
REMARK                            x       y       z     vdW  Elec       q    Type
REMARK                         _______ _______ _______ _____ _____    ______ ____
ROOT
ATOM      1  C   UNL     1       6.185   6.209  17.972  0.00  0.00    +0.000 A 
ATOM      2  C   UNL     1       4.971   6.366  17.285  0.00  0.00    +0.000 A 
ATOM      3  C   UNL     1       3.787   5.832  17.788  0.00  0.00    +0.000 A 
ATOM      4  C   UNL     1       3.799   5.079  18.956  0.00  0.00    +0.000 A 
ATOM      5  C   UNL     1       4.988   4.933  19.669  0.00  0.00    +0.000 A 
ATOM      6  C   UNL     1       6.172   5.497  19.186  0.00  0.00    +0.000 A 
ENDROOT
BRANCH   1   7
ATOM      7  C   UNL     1       7.418   6.830  17.387  0.00  0.00    +0.000 C 
ATOM      8  O   UNL     1       7.735   6.579  16.219  0.00  0.00    +0.000 OA
BRANCH   7   9
ATOM      9  C   UNL     1       8.183   7.820  18.228  0.00  0.00    +0.000 C 
BRANCH   9  10
ATOM     10  C   UNL     1       8.075   9.279  17.793  0.00  0.00    +0.000 C 
BRANCH  10  14
ATOM     11  C   UNL     1      10.839  12.056  19.673  0.00  0.00    +0.000 A 
ATOM     12  C   UNL     1      10.855  11.851  18.294  0.00  0.00    +0.000 A 
ATOM     13  C   UNL     1       9.982  10.930  17.704  0.00  0.00    +0.000 A 
ATOM     14  C   UNL     1       9.079  10.194  18.485  0.00  0.00    +0.000 A 
ATOM     15  C   UNL     1       9.106  10.373  19.876  0.00  0.00    +0.000 A 
ATOM     16  C   UNL     1       9.959  11.309  20.453  0.00  0.00    +0.000 A 
BRANCH  11  18
ATOM     17  C   UNL     1      10.986  14.398  19.949  0.00  0.00    +0.000 C 
ATOM     18  O   UNL     1      11.578  13.109  20.141  0.00  0.00    +0.000 OA
ENDBRANCH  11  18
BRANCH  16  19
ATOM     19  O   UNL     1       9.771  11.610  21.776  0.00  0.00    +0.000 OA
ATOM     20  H   UNL     1      10.267  10.929  22.284  0.00  0.00    +0.000 HD
ENDBRANCH  16  19
ENDBRANCH  10  14
ENDBRANCH   9  10
ENDBRANCH   7   9
ENDBRANCH   1   7
BRANCH   2  21
ATOM     21  O   UNL     1       4.862   7.040  16.098  0.00  0.00    +0.000 OA
ATOM     22  H   UNL     1       4.707   6.376  15.387  0.00  0.00    +0.000 HD
ENDBRANCH   2  21
BRANCH   6  23
ATOM     23  O   UNL     1       7.304   5.304  19.933  0.00  0.00    +0.000 OA
ATOM     24  H   UNL     1       7.207   4.454  20.402  0.00  0.00    +0.000 HD
ENDBRANCH   6  23
BRANCH   4  25
ATOM     25  O   UNL     1       2.718   4.445  19.492  0.00  0.00    +0.000 OA
BRANCH  25  26
ATOM     26  C   UNL     1       1.816   3.875  18.520  0.00  0.00    +0.000 C 
BRANCH  26  27
ATOM     27  C   UNL     1       0.896   2.835  19.181  0.00  0.00    +0.000 C 
ATOM     28  O   UNL     1       0.903   2.822  20.447  0.00  0.00    +0.000 OA
ATOM     29  O   UNL     1       0.283   2.077  18.374  0.00  0.00    +0.000 OA
ENDBRANCH  26  27
ENDBRANCH  25  26
ENDBRANCH   4  25
TORSDOF 11
ENDMDL
MODEL 3
REMARK VINA RESULT:      -7.7      1.265      2.538
REMARK  Name = 
REMARK  12 active torsions:
REMARK  status: ('A' for Active; 'I' for Inactive)
REMARK    1  A    between atoms: C_1  and  O_2
REMARK    2  A    between atoms: O_2  and  C_3
REMARK    3  A    between atoms: C_6  and  C_7
REMARK    4  A    between atoms: C_7  and  C_8
REMARK    5  A    between atoms: C_8  and  C_9
REMARK    6  A    between atoms: C_9  and  C_11
REMARK    7  A    between atoms: C_12  and  O_13
REMARK    8  A    between atoms: C_15  and  O_16
REMARK    9  A    between atoms: O_16  and  C_17
REMARK   10  A    between atoms: C_17  and  C_18
REMARK   11  A    between atoms: C_22  and  O_23
REMARK   12  A    between atoms: C_25  and  O_26
REMARK                            x       y       z     vdW  Elec       q    Type
REMARK                         _______ _______ _______ _____ _____    ______ ____
ROOT
ATOM      1  C   UNL     1       6.187   6.197  17.930  0.00  0.00    +0.000 A 
ATOM      2  C   UNL     1       6.253   5.485  19.137  0.00  0.00    +0.000 A 
ATOM      3  C   UNL     1       5.132   4.844  19.656  0.00  0.00    +0.000 A 
ATOM      4  C   UNL     1       3.904   4.949  19.013  0.00  0.00    +0.000 A 
ATOM      5  C   UNL     1       3.819   5.630  17.798  0.00  0.00    +0.000 A 
ATOM      6  C   UNL     1       4.951   6.244  17.256  0.00  0.00    +0.000 A 
ENDROOT
BRANCH   1   7
ATOM      7  C   UNL     1       7.437   6.844  17.414  0.00  0.00    +0.000 C 
ATOM      8  O   UNL     1       7.822   6.602  16.265  0.00  0.00    +0.000 OA
BRANCH   7   9
ATOM      9  C   UNL     1       8.134   7.848  18.296  0.00  0.00    +0.000 C 
BRANCH   9  10
ATOM     10  C   UNL     1       8.067   9.299  17.826  0.00  0.00    +0.000 C 
BRANCH  10  14
ATOM     11  C   UNL     1      10.894  12.046  19.656  0.00  0.00    +0.000 A 
ATOM     12  C   UNL     1      10.904  11.817  18.280  0.00  0.00    +0.000 A 
ATOM     13  C   UNL     1      10.009  10.905  17.707  0.00  0.00    +0.000 A 
ATOM     14  C   UNL     1       9.091  10.203  18.501  0.00  0.00    +0.000 A 
ATOM     15  C   UNL     1       9.124  10.406  19.889  0.00  0.00    +0.000 A 
ATOM     16  C   UNL     1       9.998  11.332  20.449  0.00  0.00    +0.000 A 
BRANCH  11  18
ATOM     17  C   UNL     1      12.258  13.887  19.079  0.00  0.00    +0.000 C 
ATOM     18  O   UNL     1      11.656  13.090  20.104  0.00  0.00    +0.000 OA
ENDBRANCH  11  18
BRANCH  16  19
ATOM     19  O   UNL     1       9.819  11.660  21.767  0.00  0.00    +0.000 OA
ATOM     20  H   UNL     1       8.940  11.301  22.020  0.00  0.00    +0.000 HD
ENDBRANCH  16  19
ENDBRANCH  10  14
ENDBRANCH   9  10
ENDBRANCH   7   9
ENDBRANCH   1   7
BRANCH   2  21
ATOM     21  O   UNL     1       7.400   5.369  19.877  0.00  0.00    +0.000 OA
ATOM     22  H   UNL     1       7.150   5.409  20.828  0.00  0.00    +0.000 HD
ENDBRANCH   2  21
BRANCH   6  23
ATOM     23  O   UNL     1       4.791   6.904  16.066  0.00  0.00    +0.000 OA
ATOM     24  H   UNL     1       4.077   6.456  15.574  0.00  0.00    +0.000 HD
ENDBRANCH   6  23
BRANCH   4  25
ATOM     25  O   UNL     1       2.730   4.433  19.473  0.00  0.00    +0.000 OA
BRANCH  25  26
ATOM     26  C   UNL     1       1.713   4.265  18.462  0.00  0.00    +0.000 C 
BRANCH  26  27
ATOM     27  C   UNL     1       1.404   2.774  18.247  0.00  0.00    +0.000 C 
ATOM     28  O   UNL     1       2.212   2.148  17.499  0.00  0.00    +0.000 OA
ATOM     29  O   UNL     1       0.344   2.365  18.803  0.00  0.00    +0.000 OA
ENDBRANCH  26  27
ENDBRANCH  25  26
ENDBRANCH   4  25
TORSDOF 11
ENDMDL
MODEL 4
REMARK VINA RESULT:      -7.7      1.070      1.080
REMARK  Name = 
REMARK  12 active torsions:
REMARK  status: ('A' for Active; 'I' for Inactive)
REMARK    1  A    between atoms: C_1  and  O_2
REMARK    2  A    between atoms: O_2  and  C_3
REMARK    3  A    between atoms: C_6  and  C_7
REMARK    4  A    between atoms: C_7  and  C_8
REMARK    5  A    between atoms: C_8  and  C_9
REMARK    6  A    between atoms: C_9  and  C_11
REMARK    7  A    between atoms: C_12  and  O_13
REMARK    8  A    between atoms: C_15  and  O_16
REMARK    9  A    between atoms: O_16  and  C_17
REMARK   10  A    between atoms: C_17  and  C_18
REMARK   11  A    between atoms: C_22  and  O_23
REMARK   12  A    between atoms: C_25  and  O_26
REMARK                            x       y       z     vdW  Elec       q    Type
REMARK                         _______ _______ _______ _____ _____    ______ ____
ROOT
ATOM      1  C   UNL     1       6.074   6.128  17.703  0.00  0.00    +0.000 A 
ATOM      2  C   UNL     1       4.954   6.024  16.864  0.00  0.00    +0.000 A 
ATOM      3  C   UNL     1       3.842   5.274  17.239  0.00  0.00    +0.000 A 
ATOM      4  C   UNL     1       3.848   4.562  18.433  0.00  0.00    +0.000 A 
ATOM      5  C   UNL     1       4.940   4.671  19.295  0.00  0.00    +0.000 A 
ATOM      6  C   UNL     1       6.042   5.453  18.937  0.00  0.00    +0.000 A 
ENDROOT
BRANCH   1   7
ATOM      7  C   UNL     1       7.227   6.972  17.249  0.00  0.00    +0.000 C 
ATOM      8  O   UNL     1       7.962   6.567  16.342  0.00  0.00    +0.000 OA
BRANCH   7   9
ATOM      9  C   UNL     1       7.391   8.340  17.860  0.00  0.00    +0.000 C 
BRANCH   9  10
ATOM     10  C   UNL     1       8.741   8.612  18.518  0.00  0.00    +0.000 C 
BRANCH  10  14
ATOM     11  C   UNL     1       9.631  12.769  19.422  0.00  0.00    +0.000 A 
ATOM     12  C   UNL     1       9.749  11.781  20.399  0.00  0.00    +0.000 A 
ATOM     13  C   UNL     1       9.429  10.450  20.104  0.00  0.00    +0.000 A 
ATOM     14  C   UNL     1       8.980  10.085  18.826  0.00  0.00    +0.000 A 
ATOM     15  C   UNL     1       8.818  11.096  17.867  0.00  0.00    +0.000 A 
ATOM     16  C   UNL     1       9.163  12.412  18.158  0.00  0.00    +0.000 A 
BRANCH  11  18
ATOM     17  C   UNL     1      11.580  14.069  19.729  0.00  0.00    +0.000 C 
ATOM     18  O   UNL     1      10.151  13.996  19.731  0.00  0.00    +0.000 OA
ENDBRANCH  11  18
BRANCH  16  19
ATOM     19  O   UNL     1       9.212  13.302  17.119  0.00  0.00    +0.000 OA
ATOM     20  H   UNL     1       8.522  13.977  17.304  0.00  0.00    +0.000 HD
ENDBRANCH  16  19
ENDBRANCH  10  14
ENDBRANCH   9  10
ENDBRANCH   7   9
ENDBRANCH   1   7
BRANCH   2  21
ATOM     21  O   UNL     1       4.871   6.639  15.643  0.00  0.00    +0.000 OA
ATOM     22  H   UNL     1       4.790   7.608  15.798  0.00  0.00    +0.000 HD
ENDBRANCH   2  21
BRANCH   6  23
ATOM     23  O   UNL     1       7.082   5.506  19.828  0.00  0.00    +0.000 OA
ATOM     24  H   UNL     1       7.865   5.119  19.391  0.00  0.00    +0.000 HD
ENDBRANCH   6  23
BRANCH   4  25
ATOM     25  O   UNL     1       2.853   3.734  18.859  0.00  0.00    +0.000 OA
BRANCH  25  26
ATOM     26  C   UNL     1       3.186   2.947  20.023  0.00  0.00    +0.000 C 
BRANCH  26  27
ATOM     27  C   UNL     1       2.069   3.041  21.076  0.00  0.00    +0.000 C 
ATOM     28  O   UNL     1       0.913   3.300  20.629  0.00  0.00    +0.000 OA
ATOM     29  O   UNL     1       2.454   2.903  22.273  0.00  0.00    +0.000 OA
ENDBRANCH  26  27
ENDBRANCH  25  26
ENDBRANCH   4  25
TORSDOF 11
ENDMDL
MODEL 5
REMARK VINA RESULT:      -7.6      0.871      1.518
REMARK  Name = 
REMARK  12 active torsions:
REMARK  status: ('A' for Active; 'I' for Inactive)
REMARK    1  A    between atoms: C_1  and  O_2
REMARK    2  A    between atoms: O_2  and  C_3
REMARK    3  A    between atoms: C_6  and  C_7
REMARK    4  A    between atoms: C_7  and  C_8
REMARK    5  A    between atoms: C_8  and  C_9
REMARK    6  A    between atoms: C_9  and  C_11
REMARK    7  A    between atoms: C_12  and  O_13
REMARK    8  A    between atoms: C_15  and  O_16
REMARK    9  A    between atoms: O_16  and  C_17
REMARK   10  A    between atoms: C_17  and  C_18
REMARK   11  A    between atoms: C_22  and  O_23
REMARK   12  A    between atoms: C_25  and  O_26
REMARK                            x       y       z     vdW  Elec       q    Type
REMARK                         _______ _______ _______ _____ _____    ______ ____
ROOT
ATOM      1  C   UNL     1       6.232   6.222  17.810  0.00  0.00    +0.000 A 
ATOM      2  C   UNL     1       5.075   6.292  17.019  0.00  0.00    +0.000 A 
ATOM      3  C   UNL     1       3.877   5.725  17.446  0.00  0.00    +0.000 A 
ATOM      4  C   UNL     1       3.823   5.024  18.645  0.00  0.00    +0.000 A 
ATOM      5  C   UNL     1       4.953   4.964  19.460  0.00  0.00    +0.000 A 
ATOM      6  C   UNL     1       6.148   5.563  19.051  0.00  0.00    +0.000 A 
ENDROOT
BRANCH   1   7
ATOM      7  C   UNL     1       7.482   6.875  17.301  0.00  0.00    +0.000 C 
ATOM      8  O   UNL     1       7.925   6.566  16.189  0.00  0.00    +0.000 OA
BRANCH   7   9
ATOM      9  C   UNL     1       8.107   7.962  18.137  0.00  0.00    +0.000 C 
BRANCH   9  10
ATOM     10  C   UNL     1       7.756   9.391  17.731  0.00  0.00    +0.000 C 
BRANCH  10  14
ATOM     11  C   UNL     1      10.350  12.504  19.304  0.00  0.00    +0.000 A 
ATOM     12  C   UNL     1       9.845  12.579  18.006  0.00  0.00    +0.000 A 
ATOM     13  C   UNL     1       9.037  11.553  17.500  0.00  0.00    +0.000 A 
ATOM     14  C   UNL     1       8.722  10.433  18.283  0.00  0.00    +0.000 A 
ATOM     15  C   UNL     1       9.276  10.347  19.569  0.00  0.00    +0.000 A 
ATOM     16  C   UNL     1      10.057  11.381  20.075  0.00  0.00    +0.000 A 
BRANCH  11  18
ATOM     17  C   UNL     1      12.324  13.800  19.390  0.00  0.00    +0.000 C 
ATOM     18  O   UNL     1      10.959  13.631  19.786  0.00  0.00    +0.000 OA
ENDBRANCH  11  18
BRANCH  16  19
ATOM     19  O   UNL     1      10.365  11.351  21.409  0.00  0.00    +0.000 OA
ATOM     20  H   UNL     1      11.209  10.852  21.483  0.00  0.00    +0.000 HD
ENDBRANCH  16  19
ENDBRANCH  10  14
ENDBRANCH   9  10
ENDBRANCH   7   9
ENDBRANCH   1   7
BRANCH   2  21
ATOM     21  O   UNL     1       5.038   6.908  15.796  0.00  0.00    +0.000 OA
ATOM     22  H   UNL     1       4.916   7.873  15.949  0.00  0.00    +0.000 HD
ENDBRANCH   2  21
BRANCH   6  23
ATOM     23  O   UNL     1       7.219   5.456  19.897  0.00  0.00    +0.000 OA
ATOM     24  H   UNL     1       7.705   4.644  19.657  0.00  0.00    +0.000 HD
ENDBRANCH   6  23
BRANCH   4  25
ATOM     25  O   UNL     1       2.729   4.363  19.119  0.00  0.00    +0.000 OA
BRANCH  25  26
ATOM     26  C   UNL     1       3.027   3.127  19.803  0.00  0.00    +0.000 C 
BRANCH  26  27
ATOM     27  C   UNL     1       2.175   2.995  21.077  0.00  0.00    +0.000 C 
ATOM     28  O   UNL     1       2.745   2.443  22.064  0.00  0.00    +0.000 OA
ATOM     29  O   UNL     1       0.983   3.405  20.964  0.00  0.00    +0.000 OA
ENDBRANCH  26  27
ENDBRANCH  25  26
ENDBRANCH   4  25
TORSDOF 11
ENDMDL
MODEL 6
REMARK VINA RESULT:      -7.6      1.068      2.063
REMARK  Name = 
REMARK  12 active torsions:
REMARK  status: ('A' for Active; 'I' for Inactive)
REMARK    1  A    between atoms: C_1  and  O_2
REMARK    2  A    between atoms: O_2  and  C_3
REMARK    3  A    between atoms: C_6  and  C_7
REMARK    4  A    between atoms: C_7  and  C_8
REMARK    5  A    between atoms: C_8  and  C_9
REMARK    6  A    between atoms: C_9  and  C_11
REMARK    7  A    between atoms: C_12  and  O_13
REMARK    8  A    between atoms: C_15  and  O_16
REMARK    9  A    between atoms: O_16  and  C_17
REMARK   10  A    between atoms: C_17  and  C_18
REMARK   11  A    between atoms: C_22  and  O_23
REMARK   12  A    between atoms: C_25  and  O_26
REMARK                            x       y       z     vdW  Elec       q    Type
REMARK                         _______ _______ _______ _____ _____    ______ ____
ROOT
ATOM      1  C   UNL     1       5.993   6.183  17.846  0.00  0.00    +0.000 A 
ATOM      2  C   UNL     1       5.962   5.498  19.070  0.00  0.00    +0.000 A 
ATOM      3  C   UNL     1       4.768   5.004  19.588  0.00  0.00    +0.000 A 
ATOM      4  C   UNL     1       3.568   5.234  18.924  0.00  0.00    +0.000 A 
ATOM      5  C   UNL     1       3.577   5.889  17.693  0.00  0.00    +0.000 A 
ATOM      6  C   UNL     1       4.779   6.356  17.153  0.00  0.00    +0.000 A 
ENDROOT
BRANCH   1   7
ATOM      7  C   UNL     1       7.316   6.669  17.335  0.00  0.00    +0.000 C 
ATOM      8  O   UNL     1       7.791   6.177  16.305  0.00  0.00    +0.000 OA
BRANCH   7   9
ATOM      9  C   UNL     1       7.979   7.815  18.053  0.00  0.00    +0.000 C 
BRANCH   9  10
ATOM     10  C   UNL     1       7.764   9.195  17.435  0.00  0.00    +0.000 C 
BRANCH  10  14
ATOM     11  C   UNL     1      10.087  12.264  19.453  0.00  0.00    +0.000 A 
ATOM     12  C   UNL     1      10.002  10.973  19.971  0.00  0.00    +0.000 A 
ATOM     13  C   UNL     1       9.224  10.001  19.329  0.00  0.00    +0.000 A 
ATOM     14  C   UNL     1       8.514  10.307  18.159  0.00  0.00    +0.000 A 
ATOM     15  C   UNL     1       8.569  11.623  17.675  0.00  0.00    +0.000 A 
ATOM     16  C   UNL     1       9.364  12.576  18.303  0.00  0.00    +0.000 A 
BRANCH  11  18
ATOM     17  C   UNL     1      10.499  14.034  20.964  0.00  0.00    +0.000 C 
ATOM     18  O   UNL     1      11.019  13.088  20.023  0.00  0.00    +0.000 OA
ENDBRANCH  11  18
BRANCH  16  19
ATOM     19  O   UNL     1       9.566  13.764  17.653  0.00  0.00    +0.000 OA
ATOM     20  H   UNL     1       9.651  13.542  16.699  0.00  0.00    +0.000 HD
ENDBRANCH  16  19
ENDBRANCH  10  14
ENDBRANCH   9  10
ENDBRANCH   7   9
ENDBRANCH   1   7
BRANCH   2  21
ATOM     21  O   UNL     1       7.079   5.270  19.830  0.00  0.00    +0.000 OA
ATOM     22  H   UNL     1       7.778   5.897  19.536  0.00  0.00    +0.000 HD
ENDBRANCH   2  21
BRANCH   6  23
ATOM     23  O   UNL     1       4.712   6.999  15.945  0.00  0.00    +0.000 OA
ATOM     24  H   UNL     1       5.622   7.085  15.605  0.00  0.00    +0.000 HD
ENDBRANCH   6  23
BRANCH   4  25
ATOM     25  O   UNL     1       2.336   4.868  19.378  0.00  0.00    +0.000 OA
BRANCH  25  26
ATOM     26  C   UNL     1       2.267   4.640  20.802  0.00  0.00    +0.000 C 
BRANCH  26  27
ATOM     27  C   UNL     1       1.648   3.264  21.100  0.00  0.00    +0.000 C 
ATOM     28  O   UNL     1       2.099   2.669  22.123  0.00  0.00    +0.000 OA
ATOM     29  O   UNL     1       0.799   2.868  20.250  0.00  0.00    +0.000 OA
ENDBRANCH  26  27
ENDBRANCH  25  26
ENDBRANCH   4  25
TORSDOF 11
ENDMDL
MODEL 7
REMARK VINA RESULT:      -7.5      1.541      1.592
REMARK  Name = 
REMARK  12 active torsions:
REMARK  status: ('A' for Active; 'I' for Inactive)
REMARK    1  A    between atoms: C_1  and  O_2
REMARK    2  A    between atoms: O_2  and  C_3
REMARK    3  A    between atoms: C_6  and  C_7
REMARK    4  A    between atoms: C_7  and  C_8
REMARK    5  A    between atoms: C_8  and  C_9
REMARK    6  A    between atoms: C_9  and  C_11
REMARK    7  A    between atoms: C_12  and  O_13
REMARK    8  A    between atoms: C_15  and  O_16
REMARK    9  A    between atoms: O_16  and  C_17
REMARK   10  A    between atoms: C_17  and  C_18
REMARK   11  A    between atoms: C_22  and  O_23
REMARK   12  A    between atoms: C_25  and  O_26
REMARK                            x       y       z     vdW  Elec       q    Type
REMARK                         _______ _______ _______ _____ _____    ______ ____
ROOT
ATOM      1  C   UNL     1       6.117   6.210  17.903  0.00  0.00    +0.000 A 
ATOM      2  C   UNL     1       4.933   6.369  17.168  0.00  0.00    +0.000 A 
ATOM      3  C   UNL     1       3.727   5.843  17.625  0.00  0.00    +0.000 A 
ATOM      4  C   UNL     1       3.688   5.095  18.796  0.00  0.00    +0.000 A 
ATOM      5  C   UNL     1       4.847   4.946  19.557  0.00  0.00    +0.000 A 
ATOM      6  C   UNL     1       6.052   5.503  19.119  0.00  0.00    +0.000 A 
ENDROOT
BRANCH   1   7
ATOM      7  C   UNL     1       7.376   6.822  17.366  0.00  0.00    +0.000 C 
ATOM      8  O   UNL     1       7.805   6.469  16.262  0.00  0.00    +0.000 OA
BRANCH   7   9
ATOM      9  C   UNL     1       8.026   7.924  18.162  0.00  0.00    +0.000 C 
BRANCH   9  10
ATOM     10  C   UNL     1       8.192   9.255  17.434  0.00  0.00    +0.000 C 
BRANCH  10  14
ATOM     11  C   UNL     1       9.940  12.336  19.953  0.00  0.00    +0.000 A 
ATOM     12  C   UNL     1       9.815  11.024  20.407  0.00  0.00    +0.000 A 
ATOM     13  C   UNL     1       9.221  10.047  19.598  0.00  0.00    +0.000 A 
ATOM     14  C   UNL     1       8.737  10.368  18.322  0.00  0.00    +0.000 A 
ATOM     15  C   UNL     1       8.824  11.703  17.896  0.00  0.00    +0.000 A 
ATOM     16  C   UNL     1       9.439  12.662  18.694  0.00  0.00    +0.000 A 
BRANCH  11  18
ATOM     17  C   UNL     1       9.971  14.071  21.557  0.00  0.00    +0.000 C 
ATOM     18  O   UNL     1      10.705  13.175  20.717  0.00  0.00    +0.000 OA
ENDBRANCH  11  18
BRANCH  16  19
ATOM     19  O   UNL     1       9.708  13.881  18.130  0.00  0.00    +0.000 OA
ATOM     20  H   UNL     1       9.734  14.525  18.872  0.00  0.00    +0.000 HD
ENDBRANCH  16  19
ENDBRANCH  10  14
ENDBRANCH   9  10
ENDBRANCH   7   9
ENDBRANCH   1   7
BRANCH   2  21
ATOM     21  O   UNL     1       4.875   7.038  15.974  0.00  0.00    +0.000 OA
ATOM     22  H   UNL     1       4.362   6.484  15.343  0.00  0.00    +0.000 HD
ENDBRANCH   2  21
BRANCH   6  23
ATOM     23  O   UNL     1       7.152   5.308  19.912  0.00  0.00    +0.000 OA
ATOM     24  H   UNL     1       7.024   5.828  20.728  0.00  0.00    +0.000 HD
ENDBRANCH   6  23
BRANCH   4  25
ATOM     25  O   UNL     1       2.583   4.468  19.291  0.00  0.00    +0.000 OA
BRANCH  25  26
ATOM     26  C   UNL     1       1.673   3.977  18.284  0.00  0.00    +0.000 C 
BRANCH  26  27
ATOM     27  C   UNL     1       1.408   2.475  18.483  0.00  0.00    +0.000 C 
ATOM     28  O   UNL     1       0.189   2.137  18.552  0.00  0.00    +0.000 OA
ATOM     29  O   UNL     1       2.446   1.763  18.610  0.00  0.00    +0.000 OA
ENDBRANCH  26  27
ENDBRANCH  25  26
ENDBRANCH   4  25
TORSDOF 11
ENDMDL
MODEL 8
REMARK VINA RESULT:      -7.5      3.356      6.075
REMARK  Name = 
REMARK  12 active torsions:
REMARK  status: ('A' for Active; 'I' for Inactive)
REMARK    1  A    between atoms: C_1  and  O_2
REMARK    2  A    between atoms: O_2  and  C_3
REMARK    3  A    between atoms: C_6  and  C_7
REMARK    4  A    between atoms: C_7  and  C_8
REMARK    5  A    between atoms: C_8  and  C_9
REMARK    6  A    between atoms: C_9  and  C_11
REMARK    7  A    between atoms: C_12  and  O_13
REMARK    8  A    between atoms: C_15  and  O_16
REMARK    9  A    between atoms: O_16  and  C_17
REMARK   10  A    between atoms: C_17  and  C_18
REMARK   11  A    between atoms: C_22  and  O_23
REMARK   12  A    between atoms: C_25  and  O_26
REMARK                            x       y       z     vdW  Elec       q    Type
REMARK                         _______ _______ _______ _____ _____    ______ ____
ROOT
ATOM      1  C   UNL     1       2.287   5.081  18.784  0.00  0.00    +0.000 A 
ATOM      2  C   UNL     1       1.638   4.741  19.980  0.00  0.00    +0.000 A 
ATOM      3  C   UNL     1       1.310   5.713  20.922  0.00  0.00    +0.000 A 
ATOM      4  C   UNL     1       1.676   7.038  20.717  0.00  0.00    +0.000 A 
ATOM      5  C   UNL     1       2.299   7.404  19.523  0.00  0.00    +0.000 A 
ATOM      6  C   UNL     1       2.598   6.436  18.561  0.00  0.00    +0.000 A 
ENDROOT
BRANCH   1   7
ATOM      7  C   UNL     1       2.590   3.988  17.802  0.00  0.00    +0.000 C 
ATOM      8  O   UNL     1       1.725   3.636  16.993  0.00  0.00    +0.000 OA
BRANCH   7   9
ATOM      9  C   UNL     1       3.985   3.420  17.779  0.00  0.00    +0.000 C 
BRANCH   9  10
ATOM     10  C   UNL     1       4.905   3.970  16.693  0.00  0.00    +0.000 C 
BRANCH  10  14
ATOM     11  C   UNL     1       7.824   6.804  18.224  0.00  0.00    +0.000 A 
ATOM     12  C   UNL     1       7.282   6.951  16.948  0.00  0.00    +0.000 A 
ATOM     13  C   UNL     1       6.367   6.014  16.454  0.00  0.00    +0.000 A 
ATOM     14  C   UNL     1       5.981   4.909  17.227  0.00  0.00    +0.000 A 
ATOM     15  C   UNL     1       6.570   4.746  18.490  0.00  0.00    +0.000 A 
ATOM     16  C   UNL     1       7.459   5.694  18.985  0.00  0.00    +0.000 A 
BRANCH  11  18
ATOM     17  C   UNL     1       8.272   9.119  18.081  0.00  0.00    +0.000 C 
ATOM     18  O   UNL     1       8.549   7.860  18.703  0.00  0.00    +0.000 OA
ENDBRANCH  11  18
BRANCH  16  19
ATOM     19  O   UNL     1       7.811   5.608  20.305  0.00  0.00    +0.000 OA
ATOM     20  H   UNL     1       8.504   6.290  20.449  0.00  0.00    +0.000 HD
ENDBRANCH  16  19
ENDBRANCH  10  14
ENDBRANCH   9  10
ENDBRANCH   7   9
ENDBRANCH   1   7
BRANCH   2  21
ATOM     21  O   UNL     1       1.286   3.457  20.304  0.00  0.00    +0.000 OA
ATOM     22  H   UNL     1       1.000   3.451  21.246  0.00  0.00    +0.000 HD
ENDBRANCH   2  21
BRANCH   6  23
ATOM     23  O   UNL     1       3.219   6.866  17.418  0.00  0.00    +0.000 OA
ATOM     24  H   UNL     1       2.597   6.734  16.677  0.00  0.00    +0.000 HD
ENDBRANCH   6  23
BRANCH   4  25
ATOM     25  O   UNL     1       1.479   8.053  21.604  0.00  0.00    +0.000 OA
BRANCH  25  26
ATOM     26  C   UNL     1       1.002   9.281  21.012  0.00  0.00    +0.000 C 
BRANCH  26  27
ATOM     27  C   UNL     1       0.138  10.064  22.015  0.00  0.00    +0.000 C 
ATOM     28  O   UNL     1      -0.787  10.767  21.510  0.00  0.00    +0.000 OA
ATOM     29  O   UNL     1       0.493   9.954  23.224  0.00  0.00    +0.000 OA
ENDBRANCH  26  27
ENDBRANCH  25  26
ENDBRANCH   4  25
TORSDOF 11
ENDMDL
MODEL 9
REMARK VINA RESULT:      -7.4      1.290      2.410
REMARK  Name = 
REMARK  12 active torsions:
REMARK  status: ('A' for Active; 'I' for Inactive)
REMARK    1  A    between atoms: C_1  and  O_2
REMARK    2  A    between atoms: O_2  and  C_3
REMARK    3  A    between atoms: C_6  and  C_7
REMARK    4  A    between atoms: C_7  and  C_8
REMARK    5  A    between atoms: C_8  and  C_9
REMARK    6  A    between atoms: C_9  and  C_11
REMARK    7  A    between atoms: C_12  and  O_13
REMARK    8  A    between atoms: C_15  and  O_16
REMARK    9  A    between atoms: O_16  and  C_17
REMARK   10  A    between atoms: C_17  and  C_18
REMARK   11  A    between atoms: C_22  and  O_23
REMARK   12  A    between atoms: C_25  and  O_26
REMARK                            x       y       z     vdW  Elec       q    Type
REMARK                         _______ _______ _______ _____ _____    ______ ____
ROOT
ATOM      1  C   UNL     1       6.062   6.349  17.750  0.00  0.00    +0.000 A 
ATOM      2  C   UNL     1       6.289   5.465  18.816  0.00  0.00    +0.000 A 
ATOM      3  C   UNL     1       5.234   4.801  19.436  0.00  0.00    +0.000 A 
ATOM      4  C   UNL     1       3.924   5.048  19.045  0.00  0.00    +0.000 A 
ATOM      5  C   UNL     1       3.675   5.903  17.971  0.00  0.00    +0.000 A 
ATOM      6  C   UNL     1       4.735   6.544  17.323  0.00  0.00    +0.000 A 
ENDROOT
BRANCH   1   7
ATOM      7  C   UNL     1       7.245   7.013  17.111  0.00  0.00    +0.000 C 
ATOM      8  O   UNL     1       7.870   6.425  16.221  0.00  0.00    +0.000 OA
BRANCH   7   9
ATOM      9  C   UNL     1       7.573   8.426  17.520  0.00  0.00    +0.000 C 
BRANCH   9  10
ATOM     10  C   UNL     1       8.650   8.571  18.591  0.00  0.00    +0.000 C 
BRANCH  10  14
ATOM     11  C   UNL     1       9.529  12.752  19.386  0.00  0.00    +0.000 A 
ATOM     12  C   UNL     1       9.093  12.338  18.129  0.00  0.00    +0.000 A 
ATOM     13  C   UNL     1       8.844  10.983  17.876  0.00  0.00    +0.000 A 
ATOM     14  C   UNL     1       9.031  10.019  18.876  0.00  0.00    +0.000 A 
ATOM     15  C   UNL     1       9.518  10.443  20.123  0.00  0.00    +0.000 A 
ATOM     16  C   UNL     1       9.738  11.793  20.375  0.00  0.00    +0.000 A 
BRANCH  11  18
ATOM     17  C   UNL     1      10.765  14.759  19.211  0.00  0.00    +0.000 C 
ATOM     18  O   UNL     1       9.556  14.102  19.607  0.00  0.00    +0.000 OA
ENDBRANCH  11  18
BRANCH  16  19
ATOM     19  O   UNL     1       9.978  12.166  21.670  0.00  0.00    +0.000 OA
ATOM     20  H   UNL     1      10.956  12.217  21.764  0.00  0.00    +0.000 HD
ENDBRANCH  16  19
ENDBRANCH  10  14
ENDBRANCH   9  10
ENDBRANCH   7   9
ENDBRANCH   1   7
BRANCH   2  21
ATOM     21  O   UNL     1       7.536   5.196  19.315  0.00  0.00    +0.000 OA
ATOM     22  H   UNL     1       7.939   4.491  18.757  0.00  0.00    +0.000 HD
ENDBRANCH   2  21
BRANCH   6  23
ATOM     23  O   UNL     1       4.416   7.376  16.283  0.00  0.00    +0.000 OA
ATOM     24  H   UNL     1       4.259   8.265  16.653  0.00  0.00    +0.000 HD
ENDBRANCH   6  23
BRANCH   4  25
ATOM     25  O   UNL     1       2.815   4.518  19.634  0.00  0.00    +0.000 OA
BRANCH  25  26
ATOM     26  C   UNL     1       2.906   3.105  19.918  0.00  0.00    +0.000 C 
BRANCH  26  27
ATOM     27  C   UNL     1       2.079   2.750  21.165  0.00  0.00    +0.000 C 
ATOM     28  O   UNL     1       2.742   2.361  22.172  0.00  0.00    +0.000 OA
ATOM     29  O   UNL     1       0.826   2.837  21.015  0.00  0.00    +0.000 OA
ENDBRANCH  26  27
ENDBRANCH  25  26
ENDBRANCH   4  25
TORSDOF 11
ENDMDL
