MODEL 1
REMARK VINA RESULT:      -8.8      0.000      0.000
REMARK  Name = 
REMARK  5 active torsions:
REMARK  status: ('A' for Active; 'I' for Inactive)
REMARK    1  A    between atoms: C_1  and  N_2
REMARK    2  A    between atoms: C_8  and  N_9
REMARK    3  A    between atoms: C_12  and  O_13
REMARK    4  A    between atoms: O_13  and  C_14
REMARK    5  A    between atoms: C_14  and  C_15
REMARK                            x       y       z     vdW  Elec       q    Type
REMARK                         _______ _______ _______ _____ _____    ______ ____
ROOT
ATOM      1  N   UNL     1       0.319   9.986  19.860  0.00  0.00    +0.000 N 
ATOM      2  C   UNL     1      -0.714  10.401  19.042  0.00  0.00    +0.000 A 
ATOM      3  C   UNL     1      -1.585  11.337  19.420  0.00  0.00    +0.000 A 
ATOM      4  C   UNL     1      -1.463  11.954  20.719  0.00  0.00    +0.000 A 
ATOM      5  C   UNL     1      -0.475  11.582  21.550  0.00  0.00    +0.000 A 
ATOM      6  C   UNL     1       0.493  10.515  21.152  0.00  0.00    +0.000 A 
ATOM      7  O   UNL     1       1.371  10.200  21.953  0.00  0.00    +0.000 OA
ENDROOT
BRANCH   1  15
ATOM      8  C   UNL     1       2.123   4.955  21.006  0.00  0.00    +0.000 C 
ATOM      9  N   UNL     1       2.672   5.603  19.834  0.00  0.00    +0.000 N 
ATOM     10  C   UNL     1       3.608   5.097  18.963  0.00  0.00    +0.000 A 
ATOM     11  C   UNL     1       3.833   6.047  17.983  0.00  0.00    +0.000 A 
ATOM     12  C   UNL     1       3.006   7.164  18.260  0.00  0.00    +0.000 A 
ATOM     13  C   UNL     1       2.814   8.404  17.623  0.00  0.00    +0.000 A 
ATOM     14  C   UNL     1       1.916   9.321  18.166  0.00  0.00    +0.000 A 
ATOM     15  C   UNL     1       1.253   9.042  19.364  0.00  0.00    +0.000 A 
ATOM     16  C   UNL     1       1.452   7.826  20.033  0.00  0.00    +0.000 A 
ATOM     17  C   UNL     1       2.316   6.886  19.443  0.00  0.00    +0.000 A 
ATOM     18  C   UNL     1       4.852   5.903  16.903  0.00  0.00    +0.000 C 
ATOM     19  C   UNL     1       6.262   5.739  17.490  0.00  0.00    +0.000 C 
ATOM     20  N   UNL     1       6.579   4.389  17.991  0.00  0.00    +0.000 NA
ATOM     21  C   UNL     1       5.854   4.022  19.223  0.00  0.00    +0.000 C 
ATOM     22  C   UNL     1       4.336   3.793  19.071  0.00  0.00    +0.000 C 
ATOM     23  H   UNL     1       7.576   4.371  18.205  0.00  0.00    +0.000 HD
ENDBRANCH   1  15
BRANCH   4  24
ATOM     24  O   UNL     1      -2.367  12.928  21.098  0.00  0.00    +0.000 OA
BRANCH  24  25
ATOM     25  C   UNL     1      -3.663  12.817  20.497  0.00  0.00    +0.000 C 
BRANCH  25  26
ATOM     26  C   UNL     1      -4.769  13.163  21.464  0.00  0.00    +0.000 A 
ATOM     27  C   UNL     1      -4.469  13.884  22.632  0.00  0.00    +0.000 A 
ATOM     28  C   UNL     1      -5.442  14.097  23.602  0.00  0.00    +0.000 A 
ATOM     29  C   UNL     1      -6.725  13.592  23.418  0.00  0.00    +0.000 A 
ATOM     30 CL   UNL     1      -7.914  13.825  24.637  0.00  0.00    +0.000 Cl
ATOM     31  C   UNL     1      -7.049  12.879  22.269  0.00  0.00    +0.000 A 
ATOM     32  C   UNL     1      -6.070  12.656  21.298  0.00  0.00    +0.000 A 
ATOM     33 CL   UNL     1      -6.509  11.701  19.928  0.00  0.00    +0.000 Cl
ENDBRANCH  25  26
ENDBRANCH  24  25
ENDBRANCH   4  24
TORSDOF 4
ENDMDL
MODEL 2
REMARK VINA RESULT:      -8.7      5.032     11.172
REMARK  Name = 
REMARK  5 active torsions:
REMARK  status: ('A' for Active; 'I' for Inactive)
REMARK    1  A    between atoms: C_1  and  N_2
REMARK    2  A    between atoms: C_8  and  N_9
REMARK    3  A    between atoms: C_12  and  O_13
REMARK    4  A    between atoms: O_13  and  C_14
REMARK    5  A    between atoms: C_14  and  C_15
REMARK                            x       y       z     vdW  Elec       q    Type
REMARK                         _______ _______ _______ _____ _____    ______ ____
ROOT
ATOM      1  N   UNL     1       1.493   7.688  20.155  0.00  0.00    +0.000 N 
ATOM      2  C   UNL     1       1.465   6.495  20.851  0.00  0.00    +0.000 A 
ATOM      3  C   UNL     1       2.144   5.422  20.445  0.00  0.00    +0.000 A 
ATOM      4  C   UNL     1       2.943   5.485  19.245  0.00  0.00    +0.000 A 
ATOM      5  C   UNL     1       3.000   6.622  18.534  0.00  0.00    +0.000 A 
ATOM      6  C   UNL     1       2.224   7.826  18.961  0.00  0.00    +0.000 A 
ATOM      7  O   UNL     1       2.297   8.840  18.268  0.00  0.00    +0.000 OA
ENDROOT
BRANCH   1  15
ATOM      8  C   UNL     1      -1.549  11.883  18.415  0.00  0.00    +0.000 C 
ATOM      9  N   UNL     1      -1.346  11.762  19.843  0.00  0.00    +0.000 N 
ATOM     10  C   UNL     1      -1.834  12.588  20.827  0.00  0.00    +0.000 A 
ATOM     11  C   UNL     1      -1.405  12.093  22.046  0.00  0.00    +0.000 A 
ATOM     12  C   UNL     1      -0.640  10.927  21.800  0.00  0.00    +0.000 A 
ATOM     13  C   UNL     1       0.039  10.023  22.638  0.00  0.00    +0.000 A 
ATOM     14  C   UNL     1       0.733   8.955  22.073  0.00  0.00    +0.000 A 
ATOM     15  C   UNL     1       0.809   8.810  20.685  0.00  0.00    +0.000 A 
ATOM     16  C   UNL     1       0.167   9.717  19.830  0.00  0.00    +0.000 A 
ATOM     17  C   UNL     1      -0.579  10.756  20.414  0.00  0.00    +0.000 A 
ATOM     18  C   UNL     1      -1.658  12.768  23.353  0.00  0.00    +0.000 C 
ATOM     19  C   UNL     1      -1.051  14.180  23.373  0.00  0.00    +0.000 C 
ATOM     20  N   UNL     1      -1.839  15.210  22.671  0.00  0.00    +0.000 NA
ATOM     21  C   UNL     1      -1.842  15.063  21.203  0.00  0.00    +0.000 C 
ATOM     22  C   UNL     1      -2.617  13.850  20.646  0.00  0.00    +0.000 C 
ATOM     23  H   UNL     1      -1.418  16.114  22.888  0.00  0.00    +0.000 HD
ENDBRANCH   1  15
BRANCH   4  24
ATOM     24  O   UNL     1       3.647   4.368  18.836  0.00  0.00    +0.000 OA
BRANCH  24  25
ATOM     25  C   UNL     1       5.071   4.527  18.811  0.00  0.00    +0.000 C 
BRANCH  25  26
ATOM     26  C   UNL     1       5.596   4.724  17.410  0.00  0.00    +0.000 A 
ATOM     27  C   UNL     1       4.944   4.103  16.331  0.00  0.00    +0.000 A 
ATOM     28  C   UNL     1       5.484   4.157  15.051  0.00  0.00    +0.000 A 
ATOM     29  C   UNL     1       6.681   4.831  14.833  0.00  0.00    +0.000 A 
ATOM     30 CL   UNL     1       7.364   4.863  13.257  0.00  0.00    +0.000 Cl
ATOM     31  C   UNL     1       7.344   5.458  15.882  0.00  0.00    +0.000 A 
ATOM     32  C   UNL     1       6.807   5.396  17.171  0.00  0.00    +0.000 A 
ATOM     33 CL   UNL     1       7.712   6.127  18.447  0.00  0.00    +0.000 Cl
ENDBRANCH  25  26
ENDBRANCH  24  25
ENDBRANCH   4  24
TORSDOF 4
ENDMDL
MODEL 3
REMARK VINA RESULT:      -8.7      0.855      1.223
REMARK  Name = 
REMARK  5 active torsions:
REMARK  status: ('A' for Active; 'I' for Inactive)
REMARK    1  A    between atoms: C_1  and  N_2
REMARK    2  A    between atoms: C_8  and  N_9
REMARK    3  A    between atoms: C_12  and  O_13
REMARK    4  A    between atoms: O_13  and  C_14
REMARK    5  A    between atoms: C_14  and  C_15
REMARK                            x       y       z     vdW  Elec       q    Type
REMARK                         _______ _______ _______ _____ _____    ______ ____
ROOT
ATOM      1  N   UNL     1       0.417  10.223  19.634  0.00  0.00    +0.000 N 
ATOM      2  C   UNL     1       0.695  10.888  20.812  0.00  0.00    +0.000 A 
ATOM      3  C   UNL     1      -0.143  11.784  21.334  0.00  0.00    +0.000 A 
ATOM      4  C   UNL     1      -1.386  12.084  20.665  0.00  0.00    +0.000 A 
ATOM      5  C   UNL     1      -1.698  11.465  19.516  0.00  0.00    +0.000 A 
ATOM      6  C   UNL     1      -0.759  10.476  18.904  0.00  0.00    +0.000 A 
ATOM      7  O   UNL     1      -1.083   9.946  17.843  0.00  0.00    +0.000 OA
ENDROOT
BRANCH   1  15
ATOM      8  C   UNL     1       1.939   5.127  20.897  0.00  0.00    +0.000 C 
ATOM      9  N   UNL     1       2.552   5.730  19.733  0.00  0.00    +0.000 N 
ATOM     10  C   UNL     1       3.486   5.166  18.896  0.00  0.00    +0.000 A 
ATOM     11  C   UNL     1       3.784   6.090  17.911  0.00  0.00    +0.000 A 
ATOM     12  C   UNL     1       3.006   7.250  18.149  0.00  0.00    +0.000 A 
ATOM     13  C   UNL     1       2.893   8.489  17.490  0.00  0.00    +0.000 A 
ATOM     14  C   UNL     1       2.027   9.455  17.995  0.00  0.00    +0.000 A 
ATOM     15  C   UNL     1       1.317   9.227  19.177  0.00  0.00    +0.000 A 
ATOM     16  C   UNL     1       1.437   8.013  19.867  0.00  0.00    +0.000 A 
ATOM     17  C   UNL     1       2.270   7.023  19.315  0.00  0.00    +0.000 A 
ATOM     18  C   UNL     1       4.825   5.881  16.862  0.00  0.00    +0.000 C 
ATOM     19  C   UNL     1       6.209   5.657  17.492  0.00  0.00    +0.000 C 
ATOM     20  N   UNL     1       6.445   4.300  18.019  0.00  0.00    +0.000 NA
ATOM     21  C   UNL     1       5.668   3.987  19.235  0.00  0.00    +0.000 C 
ATOM     22  C   UNL     1       4.145   3.830  19.042  0.00  0.00    +0.000 C 
ATOM     23  H   UNL     1       7.434   4.237  18.263  0.00  0.00    +0.000 HD
ENDBRANCH   1  15
BRANCH   4  24
ATOM     24  O   UNL     1      -2.250  13.012  21.218  0.00  0.00    +0.000 OA
BRANCH  24  25
ATOM     25  C   UNL     1      -3.498  13.160  20.530  0.00  0.00    +0.000 C 
BRANCH  25  26
ATOM     26  C   UNL     1      -4.646  13.401  21.479  0.00  0.00    +0.000 A 
ATOM     27  C   UNL     1      -4.446  14.193  22.623  0.00  0.00    +0.000 A 
ATOM     28  C   UNL     1      -5.445  14.318  23.582  0.00  0.00    +0.000 A 
ATOM     29  C   UNL     1      -6.654  13.652  23.411  0.00  0.00    +0.000 A 
ATOM     30 CL   UNL     1      -7.872  13.780  24.617  0.00  0.00    +0.000 Cl
ATOM     31  C   UNL     1      -6.880  12.866  22.287  0.00  0.00    +0.000 A 
ATOM     32  C   UNL     1      -5.873  12.732  21.327  0.00  0.00    +0.000 A 
ATOM     33 CL   UNL     1      -6.181  11.682  19.991  0.00  0.00    +0.000 Cl
ENDBRANCH  25  26
ENDBRANCH  24  25
ENDBRANCH   4  24
TORSDOF 4
ENDMDL
MODEL 4
REMARK VINA RESULT:      -8.7      1.656      2.013
REMARK  Name = 
REMARK  5 active torsions:
REMARK  status: ('A' for Active; 'I' for Inactive)
REMARK    1  A    between atoms: C_1  and  N_2
REMARK    2  A    between atoms: C_8  and  N_9
REMARK    3  A    between atoms: C_12  and  O_13
REMARK    4  A    between atoms: O_13  and  C_14
REMARK    5  A    between atoms: C_14  and  C_15
REMARK                            x       y       z     vdW  Elec       q    Type
REMARK                         _______ _______ _______ _____ _____    ______ ____
ROOT
ATOM      1  N   UNL     1       0.960   9.139  20.609  0.00  0.00    +0.000 N 
ATOM      2  C   UNL     1       1.012   8.840  21.957  0.00  0.00    +0.000 A 
ATOM      3  C   UNL     1       0.192   9.410  22.840  0.00  0.00    +0.000 A 
ATOM      4  C   UNL     1      -0.789  10.372  22.398  0.00  0.00    +0.000 A 
ATOM      5  C   UNL     1      -0.875  10.696  21.098  0.00  0.00    +0.000 A 
ATOM      6  C   UNL     1       0.053  10.084  20.098  0.00  0.00    +0.000 A 
ATOM      7  O   UNL     1      -0.056  10.424  18.921  0.00  0.00    +0.000 OA
ENDROOT
BRANCH   1  15
ATOM      8  C   UNL     1       3.121   4.154  20.006  0.00  0.00    +0.000 C 
ATOM      9  N   UNL     1       3.408   5.127  18.974  0.00  0.00    +0.000 N 
ATOM     10  C   UNL     1       4.170   4.945  17.845  0.00  0.00    +0.000 A 
ATOM     11  C   UNL     1       4.166   6.132  17.135  0.00  0.00    +0.000 A 
ATOM     12  C   UNL     1       3.373   7.065  17.847  0.00  0.00    +0.000 A 
ATOM     13  C   UNL     1       3.018   8.407  17.615  0.00  0.00    +0.000 A 
ATOM     14  C   UNL     1       2.215   9.072  18.538  0.00  0.00    +0.000 A 
ATOM     15  C   UNL     1       1.809   8.437  19.716  0.00  0.00    +0.000 A 
ATOM     16  C   UNL     1       2.176   7.111  19.984  0.00  0.00    +0.000 A 
ATOM     17  C   UNL     1       2.938   6.432  19.016  0.00  0.00    +0.000 A 
ATOM     18  C   UNL     1       4.957   6.359  15.890  0.00  0.00    +0.000 C 
ATOM     19  C   UNL     1       6.460   6.169  16.146  0.00  0.00    +0.000 C 
ATOM     20  N   UNL     1       6.914   4.767  16.198  0.00  0.00    +0.000 NA
ATOM     21  C   UNL     1       6.458   4.034  17.394  0.00  0.00    +0.000 C 
ATOM     22  C   UNL     1       4.948   3.724  17.463  0.00  0.00    +0.000 C 
ATOM     23  H   UNL     1       7.934   4.779  16.216  0.00  0.00    +0.000 HD
ENDBRANCH   1  15
BRANCH   4  24
ATOM     24  O   UNL     1      -1.638  10.954  23.322  0.00  0.00    +0.000 OA
BRANCH  24  25
ATOM     25  C   UNL     1      -1.951  12.329  23.072  0.00  0.00    +0.000 C 
BRANCH  25  26
ATOM     26  C   UNL     1      -3.429  12.607  23.200  0.00  0.00    +0.000 A 
ATOM     27  C   UNL     1      -4.056  12.467  24.450  0.00  0.00    +0.000 A 
ATOM     28  C   UNL     1      -5.436  12.585  24.566  0.00  0.00    +0.000 A 
ATOM     29  C   UNL     1      -6.207  12.841  23.437  0.00  0.00    +0.000 A 
ATOM     30 CL   UNL     1      -7.916  12.947  23.580  0.00  0.00    +0.000 Cl
ATOM     31  C   UNL     1      -5.611  12.988  22.189  0.00  0.00    +0.000 A 
ATOM     32  C   UNL     1      -4.225  12.861  22.069  0.00  0.00    +0.000 A 
ATOM     33 CL   UNL     1      -3.549  12.978  20.485  0.00  0.00    +0.000 Cl
ENDBRANCH  25  26
ENDBRANCH  24  25
ENDBRANCH   4  24
TORSDOF 4
ENDMDL
MODEL 5
REMARK VINA RESULT:      -8.6      1.258      1.348
REMARK  Name = 
REMARK  5 active torsions:
REMARK  status: ('A' for Active; 'I' for Inactive)
REMARK    1  A    between atoms: C_1  and  N_2
REMARK    2  A    between atoms: C_8  and  N_9
REMARK    3  A    between atoms: C_12  and  O_13
REMARK    4  A    between atoms: O_13  and  C_14
REMARK    5  A    between atoms: C_14  and  C_15
REMARK                            x       y       z     vdW  Elec       q    Type
REMARK                         _______ _______ _______ _____ _____    ______ ____
ROOT
ATOM      1  N   UNL     1       0.314  10.121  19.726  0.00  0.00    +0.000 N 
ATOM      2  C   UNL     1      -0.712  10.527  18.895  0.00  0.00    +0.000 A 
ATOM      3  C   UNL     1      -1.571  11.484  19.246  0.00  0.00    +0.000 A 
ATOM      4  C   UNL     1      -1.444  12.133  20.529  0.00  0.00    +0.000 A 
ATOM      5  C   UNL     1      -0.464  11.771  21.371  0.00  0.00    +0.000 A 
ATOM      6  C   UNL     1       0.492  10.682  21.004  0.00  0.00    +0.000 A 
ATOM      7  O   UNL     1       1.364  10.376  21.816  0.00  0.00    +0.000 OA
ENDROOT
BRANCH   1  15
ATOM      8  C   UNL     1       1.959   5.049  20.929  0.00  0.00    +0.000 C 
ATOM      9  N   UNL     1       2.556   5.680  19.772  0.00  0.00    +0.000 N 
ATOM     10  C   UNL     1       3.501   5.148  18.927  0.00  0.00    +0.000 A 
ATOM     11  C   UNL     1       3.777   6.091  17.952  0.00  0.00    +0.000 A 
ATOM     12  C   UNL     1       2.971   7.228  18.205  0.00  0.00    +0.000 A 
ATOM     13  C   UNL     1       2.828   8.472  17.560  0.00  0.00    +0.000 A 
ATOM     14  C   UNL     1       1.939   9.411  18.077  0.00  0.00    +0.000 A 
ATOM     15  C   UNL     1       1.237   9.153  19.257  0.00  0.00    +0.000 A 
ATOM     16  C   UNL     1       1.387   7.934  19.933  0.00  0.00    +0.000 A 
ATOM     17  C   UNL     1       2.242   6.970  19.369  0.00  0.00    +0.000 A 
ATOM     18  C   UNL     1       4.821   5.918  16.900  0.00  0.00    +0.000 C 
ATOM     19  C   UNL     1       6.210   5.720  17.526  0.00  0.00    +0.000 C 
ATOM     20  N   UNL     1       6.479   4.363  18.037  0.00  0.00    +0.000 NA
ATOM     21  C   UNL     1       5.712   4.018  19.250  0.00  0.00    +0.000 C 
ATOM     22  C   UNL     1       4.193   3.827  19.057  0.00  0.00    +0.000 C 
ATOM     23  H   UNL     1       7.469   4.321  18.279  0.00  0.00    +0.000 HD
ENDBRANCH   1  15
BRANCH   4  24
ATOM     24  O   UNL     1      -2.337  13.128  20.880  0.00  0.00    +0.000 OA
BRANCH  24  25
ATOM     25  C   UNL     1      -2.246  13.570  22.240  0.00  0.00    +0.000 C 
BRANCH  25  26
ATOM     26  C   UNL     1      -3.603  13.699  22.888  0.00  0.00    +0.000 A 
ATOM     27  C   UNL     1      -4.083  12.663  23.707  0.00  0.00    +0.000 A 
ATOM     28  C   UNL     1      -5.381  12.696  24.204  0.00  0.00    +0.000 A 
ATOM     29  C   UNL     1      -6.215  13.764  23.887  0.00  0.00    +0.000 A 
ATOM     30 CL   UNL     1      -7.831  13.782  24.473  0.00  0.00    +0.000 Cl
ATOM     31  C   UNL     1      -5.764  14.804  23.083  0.00  0.00    +0.000 A 
ATOM     32  C   UNL     1      -4.463  14.767  22.576  0.00  0.00    +0.000 A 
ATOM     33 CL   UNL     1      -3.982  16.047  21.521  0.00  0.00    +0.000 Cl
ENDBRANCH  25  26
ENDBRANCH  24  25
ENDBRANCH   4  24
TORSDOF 4
ENDMDL
MODEL 6
REMARK VINA RESULT:      -8.5      1.580      1.932
REMARK  Name = 
REMARK  5 active torsions:
REMARK  status: ('A' for Active; 'I' for Inactive)
REMARK    1  A    between atoms: C_1  and  N_2
REMARK    2  A    between atoms: C_8  and  N_9
REMARK    3  A    between atoms: C_12  and  O_13
REMARK    4  A    between atoms: O_13  and  C_14
REMARK    5  A    between atoms: C_14  and  C_15
REMARK                            x       y       z     vdW  Elec       q    Type
REMARK                         _______ _______ _______ _____ _____    ______ ____
ROOT
ATOM      1  N   UNL     1       0.479  10.444  19.582  0.00  0.00    +0.000 N 
ATOM      2  C   UNL     1       0.869  11.206  20.666  0.00  0.00    +0.000 A 
ATOM      3  C   UNL     1       0.098  12.170  21.169  0.00  0.00    +0.000 A 
ATOM      4  C   UNL     1      -1.191  12.443  20.580  0.00  0.00    +0.000 A 
ATOM      5  C   UNL     1      -1.613  11.730  19.523  0.00  0.00    +0.000 A 
ATOM      6  C   UNL     1      -0.749  10.664  18.931  0.00  0.00    +0.000 A 
ATOM      7  O   UNL     1      -1.174  10.048  17.955  0.00  0.00    +0.000 OA
ENDROOT
BRANCH   1  15
ATOM      8  C   UNL     1       1.727   5.312  20.989  0.00  0.00    +0.000 C 
ATOM      9  N   UNL     1       2.359   5.843  19.801  0.00  0.00    +0.000 N 
ATOM     10  C   UNL     1       3.249   5.202  18.972  0.00  0.00    +0.000 A 
ATOM     11  C   UNL     1       3.587   6.077  17.955  0.00  0.00    +0.000 A 
ATOM     12  C   UNL     1       2.878   7.285  18.165  0.00  0.00    +0.000 A 
ATOM     13  C   UNL     1       2.827   8.507  17.469  0.00  0.00    +0.000 A 
ATOM     14  C   UNL     1       2.023   9.537  17.952  0.00  0.00    +0.000 A 
ATOM     15  C   UNL     1       1.316   9.385  19.148  0.00  0.00    +0.000 A 
ATOM     16  C   UNL     1       1.376   8.188  19.875  0.00  0.00    +0.000 A 
ATOM     17  C   UNL     1       2.145   7.136  19.345  0.00  0.00    +0.000 A 
ATOM     18  C   UNL     1       4.602   5.776  16.903  0.00  0.00    +0.000 C 
ATOM     19  C   UNL     1       5.978   5.494  17.526  0.00  0.00    +0.000 C 
ATOM     20  N   UNL     1       6.144   4.143  18.093  0.00  0.00    +0.000 NA
ATOM     21  C   UNL     1       5.366   3.912  19.325  0.00  0.00    +0.000 C 
ATOM     22  C   UNL     1       3.834   3.836  19.154  0.00  0.00    +0.000 C 
ATOM     23  H   UNL     1       7.130   4.031  18.328  0.00  0.00    +0.000 HD
ENDBRANCH   1  15
BRANCH   4  24
ATOM     24  O   UNL     1      -1.986  13.441  21.113  0.00  0.00    +0.000 OA
BRANCH  24  25
ATOM     25  C   UNL     1      -1.960  13.537  22.543  0.00  0.00    +0.000 C 
BRANCH  25  26
ATOM     26  C   UNL     1      -3.346  13.618  23.132  0.00  0.00    +0.000 A 
ATOM     27  C   UNL     1      -3.875  12.510  23.817  0.00  0.00    +0.000 A 
ATOM     28  C   UNL     1      -5.196  12.510  24.250  0.00  0.00    +0.000 A 
ATOM     29  C   UNL     1      -6.005  13.615  24.003  0.00  0.00    +0.000 A 
ATOM     30 CL   UNL     1      -7.648  13.595  24.507  0.00  0.00    +0.000 Cl
ATOM     31  C   UNL     1      -5.505  14.725  23.332  0.00  0.00    +0.000 A 
ATOM     32  C   UNL     1      -4.180  14.723  22.888  0.00  0.00    +0.000 A 
ATOM     33 CL   UNL     1      -3.637  16.097  21.995  0.00  0.00    +0.000 Cl
ENDBRANCH  25  26
ENDBRANCH  24  25
ENDBRANCH   4  24
TORSDOF 4
ENDMDL
MODEL 7
REMARK VINA RESULT:      -8.5      1.806      2.186
REMARK  Name = 
REMARK  5 active torsions:
REMARK  status: ('A' for Active; 'I' for Inactive)
REMARK    1  A    between atoms: C_1  and  N_2
REMARK    2  A    between atoms: C_8  and  N_9
REMARK    3  A    between atoms: C_12  and  O_13
REMARK    4  A    between atoms: O_13  and  C_14
REMARK    5  A    between atoms: C_14  and  C_15
REMARK                            x       y       z     vdW  Elec       q    Type
REMARK                         _______ _______ _______ _____ _____    ______ ____
ROOT
ATOM      1  N   UNL     1       0.251  10.121  20.018  0.00  0.00    +0.000 N 
ATOM      2  C   UNL     1      -0.802  10.574  19.248  0.00  0.00    +0.000 A 
ATOM      3  C   UNL     1      -1.653  11.501  19.686  0.00  0.00    +0.000 A 
ATOM      4  C   UNL     1      -1.488  12.067  21.004  0.00  0.00    +0.000 A 
ATOM      5  C   UNL     1      -0.480  11.656  21.790  0.00  0.00    +0.000 A 
ATOM      6  C   UNL     1       0.467  10.598  21.324  0.00  0.00    +0.000 A 
ATOM      7  O   UNL     1       1.366  10.246  22.087  0.00  0.00    +0.000 OA
ENDROOT
BRANCH   1  15
ATOM      8  C   UNL     1       2.078   5.052  20.944  0.00  0.00    +0.000 C 
ATOM      9  N   UNL     1       2.585   5.733  19.772  0.00  0.00    +0.000 N 
ATOM     10  C   UNL     1       3.485   5.251  18.852  0.00  0.00    +0.000 A 
ATOM     11  C   UNL     1       3.676   6.230  17.893  0.00  0.00    +0.000 A 
ATOM     12  C   UNL     1       2.865   7.340  18.234  0.00  0.00    +0.000 A 
ATOM     13  C   UNL     1       2.654   8.599  17.642  0.00  0.00    +0.000 A 
ATOM     14  C   UNL     1       1.781   9.502  18.246  0.00  0.00    +0.000 A 
ATOM     15  C   UNL     1       1.162   9.189  19.460  0.00  0.00    +0.000 A 
ATOM     16  C   UNL     1       1.381   7.953  20.084  0.00  0.00    +0.000 A 
ATOM     17  C   UNL     1       2.219   7.028  19.434  0.00  0.00    +0.000 A 
ATOM     18  C   UNL     1       4.653   6.115  16.771  0.00  0.00    +0.000 C 
ATOM     19  C   UNL     1       6.084   5.930  17.299  0.00  0.00    +0.000 C 
ATOM     20  N   UNL     1       6.414   4.564  17.747  0.00  0.00    +0.000 NA
ATOM     21  C   UNL     1       5.735   4.163  18.994  0.00  0.00    +0.000 C 
ATOM     22  C   UNL     1       4.211   3.943  18.893  0.00  0.00    +0.000 C 
ATOM     23  H   UNL     1       7.419   4.537  17.923  0.00  0.00    +0.000 HD
ENDBRANCH   1  15
BRANCH   4  24
ATOM     24  O   UNL     1      -2.372  13.032  21.447  0.00  0.00    +0.000 OA
BRANCH  24  25
ATOM     25  C   UNL     1      -3.169  12.651  22.575  0.00  0.00    +0.000 C 
BRANCH  25  26
ATOM     26  C   UNL     1      -3.688  13.847  23.335  0.00  0.00    +0.000 A 
ATOM     27  C   UNL     1      -5.050  14.183  23.254  0.00  0.00    +0.000 A 
ATOM     28  C   UNL     1      -5.526  15.354  23.833  0.00  0.00    +0.000 A 
ATOM     29  C   UNL     1      -4.647  16.204  24.497  0.00  0.00    +0.000 A 
ATOM     30 CL   UNL     1      -5.233  17.669  25.177  0.00  0.00    +0.000 Cl
ATOM     31  C   UNL     1      -3.295  15.893  24.595  0.00  0.00    +0.000 A 
ATOM     32  C   UNL     1      -2.815  14.721  24.006  0.00  0.00    +0.000 A 
ATOM     33 CL   UNL     1      -1.116  14.424  24.094  0.00  0.00    +0.000 Cl
ENDBRANCH  25  26
ENDBRANCH  24  25
ENDBRANCH   4  24
TORSDOF 4
ENDMDL
MODEL 8
REMARK VINA RESULT:      -8.5      1.348      2.091
REMARK  Name = 
REMARK  5 active torsions:
REMARK  status: ('A' for Active; 'I' for Inactive)
REMARK    1  A    between atoms: C_1  and  N_2
REMARK    2  A    between atoms: C_8  and  N_9
REMARK    3  A    between atoms: C_12  and  O_13
REMARK    4  A    between atoms: O_13  and  C_14
REMARK    5  A    between atoms: C_14  and  C_15
REMARK                            x       y       z     vdW  Elec       q    Type
REMARK                         _______ _______ _______ _____ _____    ______ ____
ROOT
ATOM      1  N   UNL     1       0.561   9.881  20.810  0.00  0.00    +0.000 N 
ATOM      2  C   UNL     1       0.751  11.234  20.610  0.00  0.00    +0.000 A 
ATOM      3  C   UNL     1       0.106  12.154  21.327  0.00  0.00    +0.000 A 
ATOM      4  C   UNL     1      -0.824  11.748  22.353  0.00  0.00    +0.000 A 
ATOM      5  C   UNL     1      -1.043  10.443  22.583  0.00  0.00    +0.000 A 
ATOM      6  C   UNL     1      -0.348   9.399  21.770  0.00  0.00    +0.000 A 
ATOM      7  O   UNL     1      -0.593   8.218  22.009  0.00  0.00    +0.000 OA
ENDROOT
BRANCH   1  15
ATOM      8  C   UNL     1       2.265   4.696  21.125  0.00  0.00    +0.000 C 
ATOM      9  N   UNL     1       2.629   5.440  19.938  0.00  0.00    +0.000 N 
ATOM     10  C   UNL     1       3.363   4.992  18.866  0.00  0.00    +0.000 A 
ATOM     11  C   UNL     1       3.459   6.029  17.955  0.00  0.00    +0.000 A 
ATOM     12  C   UNL     1       2.757   7.141  18.484  0.00  0.00    +0.000 A 
ATOM     13  C   UNL     1       2.522   8.446  18.012  0.00  0.00    +0.000 A 
ATOM     14  C   UNL     1       1.788   9.334  18.795  0.00  0.00    +0.000 A 
ATOM     15  C   UNL     1       1.337   8.959  20.064  0.00  0.00    +0.000 A 
ATOM     16  C   UNL     1       1.587   7.675  20.567  0.00  0.00    +0.000 A 
ATOM     17  C   UNL     1       2.278   6.769  19.743  0.00  0.00    +0.000 A 
ATOM     18  C   UNL     1       4.258   5.959  16.696  0.00  0.00    +0.000 C 
ATOM     19  C   UNL     1       5.740   5.685  16.995  0.00  0.00    +0.000 C 
ATOM     20  N   UNL     1       6.067   4.280  17.300  0.00  0.00    +0.000 NA
ATOM     21  C   UNL     1       5.557   3.816  18.604  0.00  0.00    +0.000 C 
ATOM     22  C   UNL     1       4.026   3.659  18.715  0.00  0.00    +0.000 C 
ATOM     23  H   UNL     1       7.085   4.204  17.324  0.00  0.00    +0.000 HD
ENDBRANCH   1  15
BRANCH   4  24
ATOM     24  O   UNL     1      -1.484  12.710  23.095  0.00  0.00    +0.000 OA
BRANCH  24  25
ATOM     25  C   UNL     1      -2.191  13.689  22.324  0.00  0.00    +0.000 C 
BRANCH  25  26
ATOM     26  C   UNL     1      -3.455  13.130  21.718  0.00  0.00    +0.000 A 
ATOM     27  C   UNL     1      -3.515  12.894  20.333  0.00  0.00    +0.000 A 
ATOM     28  C   UNL     1      -4.708  12.509  19.732  0.00  0.00    +0.000 A 
ATOM     29  C   UNL     1      -5.855  12.356  20.505  0.00  0.00    +0.000 A 
ATOM     30 CL   UNL     1      -7.335  11.917  19.752  0.00  0.00    +0.000 Cl
ATOM     31  C   UNL     1      -5.821  12.579  21.877  0.00  0.00    +0.000 A 
ATOM     32  C   UNL     1      -4.625  12.975  22.481  0.00  0.00    +0.000 A 
ATOM     33 CL   UNL     1      -4.661  13.310  24.174  0.00  0.00    +0.000 Cl
ENDBRANCH  25  26
ENDBRANCH  24  25
ENDBRANCH   4  24
TORSDOF 4
ENDMDL
MODEL 9
REMARK VINA RESULT:      -8.4      1.312      1.486
REMARK  Name = 
REMARK  5 active torsions:
REMARK  status: ('A' for Active; 'I' for Inactive)
REMARK    1  A    between atoms: C_1  and  N_2
REMARK    2  A    between atoms: C_8  and  N_9
REMARK    3  A    between atoms: C_12  and  O_13
REMARK    4  A    between atoms: O_13  and  C_14
REMARK    5  A    between atoms: C_14  and  C_15
REMARK                            x       y       z     vdW  Elec       q    Type
REMARK                         _______ _______ _______ _____ _____    ______ ____
ROOT
ATOM      1  N   UNL     1       0.646   9.884  20.775  0.00  0.00    +0.000 N 
ATOM      2  C   UNL     1       0.857  11.235  20.575  0.00  0.00    +0.000 A 
ATOM      3  C   UNL     1       0.234  12.164  21.299  0.00  0.00    +0.000 A 
ATOM      4  C   UNL     1      -0.695  11.771  22.332  0.00  0.00    +0.000 A 
ATOM      5  C   UNL     1      -0.934  10.470  22.562  0.00  0.00    +0.000 A 
ATOM      6  C   UNL     1      -0.263   9.416  21.742  0.00  0.00    +0.000 A 
ATOM      7  O   UNL     1      -0.527   8.239  21.981  0.00  0.00    +0.000 OA
ENDROOT
BRANCH   1  15
ATOM      8  C   UNL     1       2.312   4.687  21.095  0.00  0.00    +0.000 C 
ATOM      9  N   UNL     1       2.659   5.420  19.896  0.00  0.00    +0.000 N 
ATOM     10  C   UNL     1       3.370   4.959  18.814  0.00  0.00    +0.000 A 
ATOM     11  C   UNL     1       3.458   5.989  17.894  0.00  0.00    +0.000 A 
ATOM     12  C   UNL     1       2.776   7.110  18.428  0.00  0.00    +0.000 A 
ATOM     13  C   UNL     1       2.542   8.414  17.952  0.00  0.00    +0.000 A 
ATOM     14  C   UNL     1       1.831   9.313  18.742  0.00  0.00    +0.000 A 
ATOM     15  C   UNL     1       1.400   8.950  20.021  0.00  0.00    +0.000 A 
ATOM     16  C   UNL     1       1.648   7.668  20.529  0.00  0.00    +0.000 A 
ATOM     17  C   UNL     1       2.316   6.750  19.698  0.00  0.00    +0.000 A 
ATOM     18  C   UNL     1       4.232   5.903  16.621  0.00  0.00    +0.000 C 
ATOM     19  C   UNL     1       5.717   5.618  16.894  0.00  0.00    +0.000 C 
ATOM     20  N   UNL     1       6.039   4.213  17.202  0.00  0.00    +0.000 NA
ATOM     21  C   UNL     1       5.549   3.762  18.519  0.00  0.00    +0.000 C 
ATOM     22  C   UNL     1       4.019   3.619  18.659  0.00  0.00    +0.000 C 
ATOM     23  H   UNL     1       7.055   4.128  17.208  0.00  0.00    +0.000 HD
ENDBRANCH   1  15
BRANCH   4  24
ATOM     24  O   UNL     1      -1.332  12.743  23.081  0.00  0.00    +0.000 OA
BRANCH  24  25
ATOM     25  C   UNL     1      -2.068  13.708  22.319  0.00  0.00    +0.000 C 
BRANCH  25  26
ATOM     26  C   UNL     1      -3.558  13.503  22.431  0.00  0.00    +0.000 A 
ATOM     27  C   UNL     1      -4.206  13.767  23.650  0.00  0.00    +0.000 A 
ATOM     28  C   UNL     1      -5.551  13.457  23.820  0.00  0.00    +0.000 A 
ATOM     29  C   UNL     1      -6.264  12.879  22.774  0.00  0.00    +0.000 A 
ATOM     30 CL   UNL     1      -7.917  12.463  23.001  0.00  0.00    +0.000 Cl
ATOM     31  C   UNL     1      -5.649  12.611  21.557  0.00  0.00    +0.000 A 
ATOM     32  C   UNL     1      -4.295  12.914  21.389  0.00  0.00    +0.000 A 
ATOM     33 CL   UNL     1      -3.566  12.490  19.882  0.00  0.00    +0.000 Cl
ENDBRANCH  25  26
ENDBRANCH  24  25
ENDBRANCH   4  24
TORSDOF 4
ENDMDL
