MODEL 1
REMARK VINA RESULT:      -7.5      0.000      0.000
REMARK  Name = 
REMARK  9 active torsions:
REMARK  status: ('A' for Active; 'I' for Inactive)
REMARK    1  A    between atoms: C_1  and  C_2
REMARK    2  A    between atoms: C_5  and  N_6
REMARK    3  A    between atoms: N_9  and  C_10
REMARK    4  A    between atoms: C_10  and  C_11
REMARK    5  A    between atoms: C_11  and  O_12
REMARK    6  A    between atoms: C_11  and  C_13
REMARK    7  A    between atoms: C_13  and  N_14
REMARK    8  A    between atoms: C_16  and  C_17
REMARK    9  A    between atoms: C_17  and  O_19
REMARK                            x       y       z     vdW  Elec       q    Type
REMARK                         _______ _______ _______ _____ _____    ______ ____
ROOT
ATOM      1  N   UNL     1       2.865   7.003  18.700  0.00  0.00    +0.000 N 
ATOM      2  C   UNL     1       3.754   7.121  17.634  0.00  0.00    +0.000 A 
ATOM      3  C   UNL     1       4.509   6.149  17.103  0.00  0.00    +0.000 A 
ATOM      4  C   UNL     1       4.388   4.813  17.710  0.00  0.00    +0.000 A 
ATOM      5  O   UNL     1       5.028   3.869  17.247  0.00  0.00    +0.000 OA
ATOM      6  C   UNL     1       3.490   4.649  18.875  0.00  0.00    +0.000 A 
ATOM      7  C   UNL     1       3.449   3.390  19.498  0.00  0.00    +0.000 A 
ATOM      8  C   UNL     1       2.628   3.186  20.599  0.00  0.00    +0.000 A 
ATOM      9  C   UNL     1       1.823   4.227  21.046  0.00  0.00    +0.000 A 
ATOM     10  C   UNL     1       1.857   5.474  20.409  0.00  0.00    +0.000 A 
ATOM     11  F   UNL     1       1.012   6.406  20.874  0.00  0.00    +0.000 F 
ATOM     12  C   UNL     1       2.716   5.744  19.329  0.00  0.00    +0.000 A 
ENDROOT
BRANCH   3  13
ATOM     13  C   UNL     1       5.417   6.458  15.978  0.00  0.00    +0.000 C 
ATOM     14  O   UNL     1       5.046   6.988  14.941  0.00  0.00    +0.000 OA
BRANCH  13  15
ATOM     15  O   UNL     1       6.709   6.122  16.188  0.00  0.00    +0.000 OA
ATOM     16  H   UNL     1       7.281   6.198  15.385  0.00  0.00    +0.000 HD
ENDBRANCH  13  15
ENDBRANCH   3  13
BRANCH   1  17
ATOM     17  C   UNL     1       2.115   8.192  19.189  0.00  0.00    +0.000 C 
BRANCH  17  18
ATOM     18  C   UNL     1       1.341   8.895  18.047  0.00  0.00    +0.000 C 
BRANCH  18  19
ATOM     19  O   UNL     1       2.230   9.770  17.336  0.00  0.00    +0.000 OA
ATOM     20  H   UNL     1       2.461  10.523  17.919  0.00  0.00    +0.000 HD
ENDBRANCH  18  19
BRANCH  18  21
ATOM     21  C   UNL     1       0.131   9.685  18.587  0.00  0.00    +0.000 C 
BRANCH  21  27
ATOM     22  C   UNL     1      -0.364   8.947  21.548  0.00  0.00    +0.000 C 
ATOM     23  C   UNL     1       0.239  10.215  21.061  0.00  0.00    +0.000 A 
ATOM     24  N   UNL     1       0.639  11.188  21.857  0.00  0.00    +0.000 NA
ATOM     25  C   UNL     1       1.132  12.171  21.043  0.00  0.00    +0.000 A 
ATOM     26  C   UNL     1       1.050  11.782  19.731  0.00  0.00    +0.000 A 
ATOM     27  N   UNL     1       0.457  10.537  19.728  0.00  0.00    +0.000 N 
BRANCH  26  28
ATOM     28  N   UNL     1       1.475  12.527  18.596  0.00  0.00    +0.000 N 
ATOM     29  O   UNL     1       2.627  12.313  18.194  0.00  0.00    +0.000 OA
ATOM     30  O   UNL     1       0.674  13.317  18.079  0.00  0.00    +0.000 OA
ENDBRANCH  26  28
ENDBRANCH  21  27
ENDBRANCH  18  21
ENDBRANCH  17  18
ENDBRANCH   1  17
TORSDOF 8
ENDMDL
MODEL 2
REMARK VINA RESULT:      -7.5      1.291      1.755
REMARK  Name = 
REMARK  9 active torsions:
REMARK  status: ('A' for Active; 'I' for Inactive)
REMARK    1  A    between atoms: C_1  and  C_2
REMARK    2  A    between atoms: C_5  and  N_6
REMARK    3  A    between atoms: N_9  and  C_10
REMARK    4  A    between atoms: C_10  and  C_11
REMARK    5  A    between atoms: C_11  and  O_12
REMARK    6  A    between atoms: C_11  and  C_13
REMARK    7  A    between atoms: C_13  and  N_14
REMARK    8  A    between atoms: C_16  and  C_17
REMARK    9  A    between atoms: C_17  and  O_19
REMARK                            x       y       z     vdW  Elec       q    Type
REMARK                         _______ _______ _______ _____ _____    ______ ____
ROOT
ATOM      1  N   UNL     1       2.934   6.904  18.692  0.00  0.00    +0.000 N 
ATOM      2  C   UNL     1       3.818   6.930  17.616  0.00  0.00    +0.000 A 
ATOM      3  C   UNL     1       4.330   5.874  16.968  0.00  0.00    +0.000 A 
ATOM      4  C   UNL     1       3.916   4.543  17.444  0.00  0.00    +0.000 A 
ATOM      5  O   UNL     1       4.324   3.534  16.870  0.00  0.00    +0.000 OA
ATOM      6  C   UNL     1       3.014   4.464  18.614  0.00  0.00    +0.000 A 
ATOM      7  C   UNL     1       2.695   3.189  19.110  0.00  0.00    +0.000 A 
ATOM      8  C   UNL     1       1.857   3.061  20.211  0.00  0.00    +0.000 A 
ATOM      9  C   UNL     1       1.312   4.204  20.783  0.00  0.00    +0.000 A 
ATOM     10  C   UNL     1       1.620   5.470  20.272  0.00  0.00    +0.000 A 
ATOM     11  F   UNL     1       1.011   6.515  20.853  0.00  0.00    +0.000 F 
ATOM     12  C   UNL     1       2.510   5.652  19.198  0.00  0.00    +0.000 A 
ENDROOT
BRANCH   3  13
ATOM     13  C   UNL     1       5.275   6.088  15.852  0.00  0.00    +0.000 C 
ATOM     14  O   UNL     1       5.151   6.982  15.027  0.00  0.00    +0.000 OA
BRANCH  13  15
ATOM     15  O   UNL     1       6.311   5.219  15.816  0.00  0.00    +0.000 OA
ATOM     16  H   UNL     1       6.833   5.249  14.977  0.00  0.00    +0.000 HD
ENDBRANCH  13  15
ENDBRANCH   3  13
BRANCH   1  17
ATOM     17  C   UNL     1       2.475   8.174  19.319  0.00  0.00    +0.000 C 
BRANCH  17  18
ATOM     18  C   UNL     1       1.345   8.846  18.500  0.00  0.00    +0.000 C 
BRANCH  18  19
ATOM     19  O   UNL     1       1.917   9.801  17.593  0.00  0.00    +0.000 OA
ATOM     20  H   UNL     1       1.530  10.681  17.781  0.00  0.00    +0.000 HD
ENDBRANCH  18  19
BRANCH  18  21
ATOM     21  C   UNL     1       0.312   9.531  19.418  0.00  0.00    +0.000 C 
BRANCH  21  27
ATOM     22  C   UNL     1      -2.168   9.876  17.604  0.00  0.00    +0.000 C 
ATOM     23  C   UNL     1      -1.283  10.972  18.079  0.00  0.00    +0.000 A 
ATOM     24  N   UNL     1      -1.463  12.242  17.773  0.00  0.00    +0.000 NA
ATOM     25  C   UNL     1      -0.459  12.933  18.395  0.00  0.00    +0.000 A 
ATOM     26  C   UNL     1       0.334  12.071  19.108  0.00  0.00    +0.000 A 
ATOM     27  N   UNL     1      -0.171  10.806  18.895  0.00  0.00    +0.000 N 
BRANCH  26  28
ATOM     28  N   UNL     1       1.468  12.416  19.895  0.00  0.00    +0.000 N 
ATOM     29  O   UNL     1       2.454  12.848  19.285  0.00  0.00    +0.000 OA
ATOM     30  O   UNL     1       1.392  12.280  21.123  0.00  0.00    +0.000 OA
ENDBRANCH  26  28
ENDBRANCH  21  27
ENDBRANCH  18  21
ENDBRANCH  17  18
ENDBRANCH   1  17
TORSDOF 8
ENDMDL
MODEL 3
REMARK VINA RESULT:      -7.2      1.725      2.078
REMARK  Name = 
REMARK  9 active torsions:
REMARK  status: ('A' for Active; 'I' for Inactive)
REMARK    1  A    between atoms: C_1  and  C_2
REMARK    2  A    between atoms: C_5  and  N_6
REMARK    3  A    between atoms: N_9  and  C_10
REMARK    4  A    between atoms: C_10  and  C_11
REMARK    5  A    between atoms: C_11  and  O_12
REMARK    6  A    between atoms: C_11  and  C_13
REMARK    7  A    between atoms: C_13  and  N_14
REMARK    8  A    between atoms: C_16  and  C_17
REMARK    9  A    between atoms: C_17  and  O_19
REMARK                            x       y       z     vdW  Elec       q    Type
REMARK                         _______ _______ _______ _____ _____    ______ ____
ROOT
ATOM      1  N   UNL     1       3.661   6.533  17.705  0.00  0.00    +0.000 N 
ATOM      2  C   UNL     1       4.966   7.020  17.724  0.00  0.00    +0.000 A 
ATOM      3  C   UNL     1       6.093   6.300  17.818  0.00  0.00    +0.000 A 
ATOM      4  C   UNL     1       5.937   4.839  17.913  0.00  0.00    +0.000 A 
ATOM      5  O   UNL     1       6.934   4.119  17.968  0.00  0.00    +0.000 OA
ATOM      6  C   UNL     1       4.568   4.278  17.943  0.00  0.00    +0.000 A 
ATOM      7  C   UNL     1       4.432   2.891  18.119  0.00  0.00    +0.000 A 
ATOM      8  C   UNL     1       3.168   2.316  18.161  0.00  0.00    +0.000 A 
ATOM      9  C   UNL     1       2.051   3.124  17.985  0.00  0.00    +0.000 A 
ATOM     10  C   UNL     1       2.195   4.503  17.792  0.00  0.00    +0.000 A 
ATOM     11  F   UNL     1       1.068   5.199  17.582  0.00  0.00    +0.000 F 
ATOM     12  C   UNL     1       3.451   5.137  17.803  0.00  0.00    +0.000 A 
ENDROOT
BRANCH   3  13
ATOM     13  C   UNL     1       7.401   6.988  17.843  0.00  0.00    +0.000 C 
ATOM     14  O   UNL     1       7.772   7.759  16.970  0.00  0.00    +0.000 OA
BRANCH  13  15
ATOM     15  O   UNL     1       8.163   6.710  18.925  0.00  0.00    +0.000 OA
ATOM     16  H   UNL     1       7.702   6.848  19.789  0.00  0.00    +0.000 HD
ENDBRANCH  13  15
ENDBRANCH   3  13
BRANCH   1  17
ATOM     17  C   UNL     1       2.509   7.472  17.619  0.00  0.00    +0.000 C 
BRANCH  17  18
ATOM     18  C   UNL     1       2.264   8.208  18.959  0.00  0.00    +0.000 C 
BRANCH  18  19
ATOM     19  O   UNL     1       2.264   7.255  20.033  0.00  0.00    +0.000 OA
ATOM     20  H   UNL     1       1.679   6.507  19.789  0.00  0.00    +0.000 HD
ENDBRANCH  18  19
BRANCH  18  21
ATOM     21  C   UNL     1       0.936   8.991  18.939  0.00  0.00    +0.000 C 
BRANCH  21  27
ATOM     22  C   UNL     1      -0.039   8.844  21.870  0.00  0.00    +0.000 C 
ATOM     23  C   UNL     1       0.476  10.060  21.189  0.00  0.00    +0.000 A 
ATOM     24  N   UNL     1       0.577  11.239  21.773  0.00  0.00    +0.000 NA
ATOM     25  C   UNL     1       1.090  12.091  20.833  0.00  0.00    +0.000 A 
ATOM     26  C   UNL     1       1.323  11.416  19.663  0.00  0.00    +0.000 A 
ATOM     27  N   UNL     1       0.912  10.116  19.871  0.00  0.00    +0.000 N 
BRANCH  26  28
ATOM     28  N   UNL     1       1.864  11.957  18.463  0.00  0.00    +0.000 N 
ATOM     29  O   UNL     1       1.517  13.109  18.171  0.00  0.00    +0.000 OA
ATOM     30  O   UNL     1       2.649  11.260  17.807  0.00  0.00    +0.000 OA
ENDBRANCH  26  28
ENDBRANCH  21  27
ENDBRANCH  18  21
ENDBRANCH  17  18
ENDBRANCH   1  17
TORSDOF 8
ENDMDL
MODEL 4
REMARK VINA RESULT:      -7.2      1.845      2.391
REMARK  Name = 
REMARK  9 active torsions:
REMARK  status: ('A' for Active; 'I' for Inactive)
REMARK    1  A    between atoms: C_1  and  C_2
REMARK    2  A    between atoms: C_5  and  N_6
REMARK    3  A    between atoms: N_9  and  C_10
REMARK    4  A    between atoms: C_10  and  C_11
REMARK    5  A    between atoms: C_11  and  O_12
REMARK    6  A    between atoms: C_11  and  C_13
REMARK    7  A    between atoms: C_13  and  N_14
REMARK    8  A    between atoms: C_16  and  C_17
REMARK    9  A    between atoms: C_17  and  O_19
REMARK                            x       y       z     vdW  Elec       q    Type
REMARK                         _______ _______ _______ _____ _____    ______ ____
ROOT
ATOM      1  N   UNL     1       3.206   5.961  18.016  0.00  0.00    +0.000 N 
ATOM      2  C   UNL     1       4.400   6.601  17.691  0.00  0.00    +0.000 A 
ATOM      3  C   UNL     1       5.546   6.021  17.307  0.00  0.00    +0.000 A 
ATOM      4  C   UNL     1       5.545   4.551  17.221  0.00  0.00    +0.000 A 
ATOM      5  O   UNL     1       6.556   3.959  16.841  0.00  0.00    +0.000 OA
ATOM      6  C   UNL     1       4.313   3.824  17.601  0.00  0.00    +0.000 A 
ATOM      7  C   UNL     1       4.353   2.420  17.596  0.00  0.00    +0.000 A 
ATOM      8  C   UNL     1       3.225   1.692  17.951  0.00  0.00    +0.000 A 
ATOM      9  C   UNL     1       2.054   2.369  18.269  0.00  0.00    +0.000 A 
ATOM     10  C   UNL     1       2.017   3.768  18.255  0.00  0.00    +0.000 A 
ATOM     11  F   UNL     1       0.834   4.338  18.527  0.00  0.00    +0.000 F 
ATOM     12  C   UNL     1       3.150   4.548  17.961  0.00  0.00    +0.000 A 
ENDROOT
BRANCH   3  13
ATOM     13  C   UNL     1       6.729   6.858  17.017  0.00  0.00    +0.000 C 
ATOM     14  O   UNL     1       6.973   7.904  17.602  0.00  0.00    +0.000 OA
BRANCH  13  15
ATOM     15  O   UNL     1       7.542   6.369  16.054  0.00  0.00    +0.000 OA
ATOM     16  H   UNL     1       7.164   6.422  15.142  0.00  0.00    +0.000 HD
ENDBRANCH  13  15
ENDBRANCH   3  13
BRANCH   1  17
ATOM     17  C   UNL     1       2.022   6.753  18.450  0.00  0.00    +0.000 C 
BRANCH  17  18
ATOM     18  C   UNL     1       2.151   7.225  19.919  0.00  0.00    +0.000 C 
BRANCH  18  19
ATOM     19  O   UNL     1       2.559   6.120  20.741  0.00  0.00    +0.000 OA
ATOM     20  H   UNL     1       2.107   5.311  20.424  0.00  0.00    +0.000 HD
ENDBRANCH  18  19
BRANCH  18  21
ATOM     21  C   UNL     1       0.827   7.820  20.440  0.00  0.00    +0.000 C 
BRANCH  21  27
ATOM     22  C   UNL     1       0.737   9.375  23.111  0.00  0.00    +0.000 C 
ATOM     23  C   UNL     1       0.813   9.983  21.757  0.00  0.00    +0.000 A 
ATOM     24  N   UNL     1       0.853  11.284  21.540  0.00  0.00    +0.000 NA
ATOM     25  C   UNL     1       0.923  11.445  20.183  0.00  0.00    +0.000 A 
ATOM     26  C   UNL     1       0.946  10.222  19.564  0.00  0.00    +0.000 A 
ATOM     27  N   UNL     1       0.854   9.275  20.563  0.00  0.00    +0.000 N 
BRANCH  26  28
ATOM     28  N   UNL     1       1.029   9.980  18.164  0.00  0.00    +0.000 N 
ATOM     29  O   UNL     1      -0.029   9.694  17.589  0.00  0.00    +0.000 OA
ATOM     30  O   UNL     1       2.134  10.086  17.616  0.00  0.00    +0.000 OA
ENDBRANCH  26  28
ENDBRANCH  21  27
ENDBRANCH  18  21
ENDBRANCH  17  18
ENDBRANCH   1  17
TORSDOF 8
ENDMDL
MODEL 5
REMARK VINA RESULT:      -7.2      2.037      2.620
REMARK  Name = 
REMARK  9 active torsions:
REMARK  status: ('A' for Active; 'I' for Inactive)
REMARK    1  A    between atoms: C_1  and  C_2
REMARK    2  A    between atoms: C_5  and  N_6
REMARK    3  A    between atoms: N_9  and  C_10
REMARK    4  A    between atoms: C_10  and  C_11
REMARK    5  A    between atoms: C_11  and  O_12
REMARK    6  A    between atoms: C_11  and  C_13
REMARK    7  A    between atoms: C_13  and  N_14
REMARK    8  A    between atoms: C_16  and  C_17
REMARK    9  A    between atoms: C_17  and  O_19
REMARK                            x       y       z     vdW  Elec       q    Type
REMARK                         _______ _______ _______ _____ _____    ______ ____
ROOT
ATOM      1  N   UNL     1       3.304   6.312  18.301  0.00  0.00    +0.000 N 
ATOM      2  C   UNL     1       4.474   6.800  17.723  0.00  0.00    +0.000 A 
ATOM      3  C   UNL     1       5.668   6.193  17.685  0.00  0.00    +0.000 A 
ATOM      4  C   UNL     1       5.755   4.868  18.323  0.00  0.00    +0.000 A 
ATOM      5  O   UNL     1       6.815   4.242  18.292  0.00  0.00    +0.000 OA
ATOM      6  C   UNL     1       4.550   4.328  18.991  0.00  0.00    +0.000 A 
ATOM      7  C   UNL     1       4.670   3.103  19.668  0.00  0.00    +0.000 A 
ATOM      8  C   UNL     1       3.569   2.557  20.316  0.00  0.00    +0.000 A 
ATOM      9  C   UNL     1       2.348   3.216  20.249  0.00  0.00    +0.000 A 
ATOM     10  C   UNL     1       2.232   4.428  19.557  0.00  0.00    +0.000 A 
ATOM     11  F   UNL     1       1.006   4.970  19.501  0.00  0.00    +0.000 F 
ATOM     12  C   UNL     1       3.332   5.048  18.937  0.00  0.00    +0.000 A 
ENDROOT
BRANCH   3  13
ATOM     13  C   UNL     1       6.814   6.869  17.042  0.00  0.00    +0.000 C 
ATOM     14  O   UNL     1       7.162   8.008  17.315  0.00  0.00    +0.000 OA
BRANCH  13  15
ATOM     15  O   UNL     1       7.468   6.120  16.126  0.00  0.00    +0.000 OA
ATOM     16  H   UNL     1       7.408   5.146  16.285  0.00  0.00    +0.000 HD
ENDBRANCH  13  15
ENDBRANCH   3  13
BRANCH   1  17
ATOM     17  C   UNL     1       2.058   7.126  18.279  0.00  0.00    +0.000 C 
BRANCH  17  18
ATOM     18  C   UNL     1       2.109   8.288  19.301  0.00  0.00    +0.000 C 
BRANCH  18  19
ATOM     19  O   UNL     1       2.075   7.752  20.633  0.00  0.00    +0.000 OA
ATOM     20  H   UNL     1       1.636   8.402  21.220  0.00  0.00    +0.000 HD
ENDBRANCH  18  19
BRANCH  18  21
ATOM     21  C   UNL     1       0.946   9.278  19.091  0.00  0.00    +0.000 C 
BRANCH  21  27
ATOM     22  C   UNL     1       2.261  11.652  17.610  0.00  0.00    +0.000 C 
ATOM     23  C   UNL     1       1.784  11.667  19.018  0.00  0.00    +0.000 A 
ATOM     24  N   UNL     1       1.871  12.719  19.809  0.00  0.00    +0.000 NA
ATOM     25  C   UNL     1       1.329  12.344  21.008  0.00  0.00    +0.000 A 
ATOM     26  C   UNL     1       0.886  11.047  20.940  0.00  0.00    +0.000 A 
ATOM     27  N   UNL     1       1.193  10.594  19.674  0.00  0.00    +0.000 N 
BRANCH  26  28
ATOM     28  N   UNL     1       0.254  10.310  21.980  0.00  0.00    +0.000 N 
ATOM     29  O   UNL     1      -0.977  10.414  22.061  0.00  0.00    +0.000 OA
ATOM     30  O   UNL     1       0.961   9.610  22.715  0.00  0.00    +0.000 OA
ENDBRANCH  26  28
ENDBRANCH  21  27
ENDBRANCH  18  21
ENDBRANCH  17  18
ENDBRANCH   1  17
TORSDOF 8
ENDMDL
MODEL 6
REMARK VINA RESULT:      -7.2      2.190      2.765
REMARK  Name = 
REMARK  9 active torsions:
REMARK  status: ('A' for Active; 'I' for Inactive)
REMARK    1  A    between atoms: C_1  and  C_2
REMARK    2  A    between atoms: C_5  and  N_6
REMARK    3  A    between atoms: N_9  and  C_10
REMARK    4  A    between atoms: C_10  and  C_11
REMARK    5  A    between atoms: C_11  and  O_12
REMARK    6  A    between atoms: C_11  and  C_13
REMARK    7  A    between atoms: C_13  and  N_14
REMARK    8  A    between atoms: C_16  and  C_17
REMARK    9  A    between atoms: C_17  and  O_19
REMARK                            x       y       z     vdW  Elec       q    Type
REMARK                         _______ _______ _______ _____ _____    ______ ____
ROOT
ATOM      1  N   UNL     1       2.309   5.896  19.269  0.00  0.00    +0.000 N 
ATOM      2  C   UNL     1       3.303   6.570  18.563  0.00  0.00    +0.000 A 
ATOM      3  C   UNL     1       4.097   6.065  17.609  0.00  0.00    +0.000 A 
ATOM      4  C   UNL     1       3.900   4.645  17.268  0.00  0.00    +0.000 A 
ATOM      5  O   UNL     1       4.573   4.130  16.376  0.00  0.00    +0.000 OA
ATOM      6  C   UNL     1       2.887   3.875  18.024  0.00  0.00    +0.000 A 
ATOM      7  C   UNL     1       2.768   2.503  17.749  0.00  0.00    +0.000 A 
ATOM      8  C   UNL     1       1.836   1.734  18.435  0.00  0.00    +0.000 A 
ATOM      9  C   UNL     1       1.002   2.349  19.361  0.00  0.00    +0.000 A 
ATOM     10  C   UNL     1       1.115   3.721  19.617  0.00  0.00    +0.000 A 
ATOM     11  F   UNL     1       0.237   4.240  20.489  0.00  0.00    +0.000 F 
ATOM     12  C   UNL     1       2.083   4.526  18.991  0.00  0.00    +0.000 A 
ENDROOT
BRANCH   3  13
ATOM     13  C   UNL     1       5.118   6.924  16.974  0.00  0.00    +0.000 C 
ATOM     14  O   UNL     1       6.010   7.481  17.597  0.00  0.00    +0.000 OA
BRANCH  13  15
ATOM     15  O   UNL     1       5.001   7.040  15.632  0.00  0.00    +0.000 OA
ATOM     16  H   UNL     1       5.841   7.296  15.175  0.00  0.00    +0.000 HD
ENDBRANCH  13  15
ENDBRANCH   3  13
BRANCH   1  17
ATOM     17  C   UNL     1       1.527   6.598  20.322  0.00  0.00    +0.000 C 
BRANCH  17  18
ATOM     18  C   UNL     1       1.850   8.112  20.368  0.00  0.00    +0.000 C 
BRANCH  18  19
ATOM     19  O   UNL     1       2.225   8.479  21.705  0.00  0.00    +0.000 OA
ATOM     20  H   UNL     1       2.778   7.763  22.083  0.00  0.00    +0.000 HD
ENDBRANCH  18  19
BRANCH  18  21
ATOM     21  C   UNL     1       0.653   8.960  19.895  0.00  0.00    +0.000 C 
BRANCH  21  27
ATOM     22  C   UNL     1       2.087  10.776  17.845  0.00  0.00    +0.000 C 
ATOM     23  C   UNL     1       1.506  11.221  19.138  0.00  0.00    +0.000 A 
ATOM     24  N   UNL     1       1.540  12.470  19.564  0.00  0.00    +0.000 NA
ATOM     25  C   UNL     1       0.908  12.478  20.777  0.00  0.00    +0.000 A 
ATOM     26  C   UNL     1       0.465  11.218  21.087  0.00  0.00    +0.000 A 
ATOM     27  N   UNL     1       0.863  10.397  20.053  0.00  0.00    +0.000 N 
BRANCH  26  28
ATOM     28  N   UNL     1      -0.248  10.831  22.257  0.00  0.00    +0.000 N 
ATOM     29  O   UNL     1      -1.434  11.179  22.321  0.00  0.00    +0.000 OA
ATOM     30  O   UNL     1       0.349  10.168  23.114  0.00  0.00    +0.000 OA
ENDBRANCH  26  28
ENDBRANCH  21  27
ENDBRANCH  18  21
ENDBRANCH  17  18
ENDBRANCH   1  17
TORSDOF 8
ENDMDL
MODEL 7
REMARK VINA RESULT:      -7.2      3.966      5.573
REMARK  Name = 
REMARK  9 active torsions:
REMARK  status: ('A' for Active; 'I' for Inactive)
REMARK    1  A    between atoms: C_1  and  C_2
REMARK    2  A    between atoms: C_5  and  N_6
REMARK    3  A    between atoms: N_9  and  C_10
REMARK    4  A    between atoms: C_10  and  C_11
REMARK    5  A    between atoms: C_11  and  O_12
REMARK    6  A    between atoms: C_11  and  C_13
REMARK    7  A    between atoms: C_13  and  N_14
REMARK    8  A    between atoms: C_16  and  C_17
REMARK    9  A    between atoms: C_17  and  O_19
REMARK                            x       y       z     vdW  Elec       q    Type
REMARK                         _______ _______ _______ _____ _____    ______ ____
ROOT
ATOM      1  N   UNL     1       5.074   3.636  16.971  0.00  0.00    +0.000 N 
ATOM      2  C   UNL     1       5.083   3.432  15.593  0.00  0.00    +0.000 A 
ATOM      3  C   UNL     1       5.885   4.022  14.696  0.00  0.00    +0.000 A 
ATOM      4  C   UNL     1       6.861   4.993  15.221  0.00  0.00    +0.000 A 
ATOM      5  O   UNL     1       7.650   5.544  14.453  0.00  0.00    +0.000 OA
ATOM      6  C   UNL     1       6.858   5.278  16.673  0.00  0.00    +0.000 A 
ATOM      7  C   UNL     1       7.735   6.267  17.148  0.00  0.00    +0.000 A 
ATOM      8  C   UNL     1       7.766   6.577  18.502  0.00  0.00    +0.000 A 
ATOM      9  C   UNL     1       6.951   5.869  19.377  0.00  0.00    +0.000 A 
ATOM     10  C   UNL     1       6.092   4.872  18.898  0.00  0.00    +0.000 A 
ATOM     11  F   UNL     1       5.378   4.205  19.818  0.00  0.00    +0.000 F 
ATOM     12  C   UNL     1       5.983   4.566  17.530  0.00  0.00    +0.000 A 
ENDROOT
BRANCH   3  13
ATOM     13  C   UNL     1       5.744   3.698  13.261  0.00  0.00    +0.000 C 
ATOM     14  O   UNL     1       4.686   3.777  12.655  0.00  0.00    +0.000 OA
BRANCH  13  15
ATOM     15  O   UNL     1       6.891   3.315  12.655  0.00  0.00    +0.000 OA
ATOM     16  H   UNL     1       6.804   2.495  12.109  0.00  0.00    +0.000 HD
ENDBRANCH  13  15
ENDBRANCH   3  13
BRANCH   1  17
ATOM     17  C   UNL     1       4.097   2.915  17.832  0.00  0.00    +0.000 C 
BRANCH  17  18
ATOM     18  C   UNL     1       2.744   3.663  17.921  0.00  0.00    +0.000 C 
BRANCH  18  19
ATOM     19  O   UNL     1       1.845   3.141  16.931  0.00  0.00    +0.000 OA
ATOM     20  H   UNL     1       1.792   2.168  17.038  0.00  0.00    +0.000 HD
ENDBRANCH  18  19
BRANCH  18  21
ATOM     21  C   UNL     1       2.925   5.183  17.733  0.00  0.00    +0.000 C 
BRANCH  21  27
ATOM     22  C   UNL     1       2.842   8.272  17.839  0.00  0.00    +0.000 C 
ATOM     23  C   UNL     1       2.398   7.356  18.922  0.00  0.00    +0.000 A 
ATOM     24  N   UNL     1       1.907   7.769  20.075  0.00  0.00    +0.000 NA
ATOM     25  C   UNL     1       1.614   6.643  20.793  0.00  0.00    +0.000 A 
ATOM     26  C   UNL     1       1.914   5.524  20.059  0.00  0.00    +0.000 A 
ATOM     27  N   UNL     1       2.438   5.969  18.864  0.00  0.00    +0.000 N 
BRANCH  26  28
ATOM     28  N   UNL     1       1.736   4.171  20.462  0.00  0.00    +0.000 N 
ATOM     29  O   UNL     1       0.734   3.591  20.023  0.00  0.00    +0.000 OA
ATOM     30  O   UNL     1       2.589   3.662  21.200  0.00  0.00    +0.000 OA
ENDBRANCH  26  28
ENDBRANCH  21  27
ENDBRANCH  18  21
ENDBRANCH  17  18
ENDBRANCH   1  17
TORSDOF 8
ENDMDL
MODEL 8
REMARK VINA RESULT:      -7.2      3.652      6.177
REMARK  Name = 
REMARK  9 active torsions:
REMARK  status: ('A' for Active; 'I' for Inactive)
REMARK    1  A    between atoms: C_1  and  C_2
REMARK    2  A    between atoms: C_5  and  N_6
REMARK    3  A    between atoms: N_9  and  C_10
REMARK    4  A    between atoms: C_10  and  C_11
REMARK    5  A    between atoms: C_11  and  O_12
REMARK    6  A    between atoms: C_11  and  C_13
REMARK    7  A    between atoms: C_13  and  N_14
REMARK    8  A    between atoms: C_16  and  C_17
REMARK    9  A    between atoms: C_17  and  O_19
REMARK                            x       y       z     vdW  Elec       q    Type
REMARK                         _______ _______ _______ _____ _____    ______ ____
ROOT
ATOM      1  N   UNL     1       3.338   4.455  18.015  0.00  0.00    +0.000 N 
ATOM      2  C   UNL     1       3.086   5.796  17.734  0.00  0.00    +0.000 A 
ATOM      3  C   UNL     1       2.555   6.706  18.563  0.00  0.00    +0.000 A 
ATOM      4  C   UNL     1       2.199   6.241  19.914  0.00  0.00    +0.000 A 
ATOM      5  O   UNL     1       1.739   7.036  20.734  0.00  0.00    +0.000 OA
ATOM      6  C   UNL     1       2.405   4.813  20.243  0.00  0.00    +0.000 A 
ATOM      7  C   UNL     1       1.983   4.364  21.505  0.00  0.00    +0.000 A 
ATOM      8  C   UNL     1       2.148   3.032  21.861  0.00  0.00    +0.000 A 
ATOM      9  C   UNL     1       2.771   2.166  20.970  0.00  0.00    +0.000 A 
ATOM     10  C   UNL     1       3.206   2.625  19.721  0.00  0.00    +0.000 A 
ATOM     11  F   UNL     1       3.842   1.734  18.945  0.00  0.00    +0.000 F 
ATOM     12  C   UNL     1       3.006   3.950  19.294  0.00  0.00    +0.000 A 
ENDROOT
BRANCH   3  13
ATOM     13  C   UNL     1       2.339   8.089  18.090  0.00  0.00    +0.000 C 
ATOM     14  O   UNL     1       2.863   8.546  17.084  0.00  0.00    +0.000 OA
BRANCH  13  15
ATOM     15  O   UNL     1       1.496   8.821  18.853  0.00  0.00    +0.000 OA
ATOM     16  H   UNL     1       1.701   9.788  18.865  0.00  0.00    +0.000 HD
ENDBRANCH  13  15
ENDBRANCH   3  13
BRANCH   1  17
ATOM     17  C   UNL     1       3.913   3.563  16.970  0.00  0.00    +0.000 C 
BRANCH  17  18
ATOM     18  C   UNL     1       5.346   3.993  16.570  0.00  0.00    +0.000 C 
BRANCH  18  19
ATOM     19  O   UNL     1       5.944   2.967  15.763  0.00  0.00    +0.000 OA
ATOM     20  H   UNL     1       5.251   2.318  15.518  0.00  0.00    +0.000 HD
ENDBRANCH  18  19
BRANCH  18  21
ATOM     21  C   UNL     1       6.219   4.276  17.810  0.00  0.00    +0.000 C 
BRANCH  21  27
ATOM     22  C   UNL     1       7.953   5.455  20.082  0.00  0.00    +0.000 C 
ATOM     23  C   UNL     1       7.656   6.119  18.786  0.00  0.00    +0.000 A 
ATOM     24  N   UNL     1       8.109   7.313  18.454  0.00  0.00    +0.000 NA
ATOM     25  C   UNL     1       7.627   7.572  17.200  0.00  0.00    +0.000 A 
ATOM     26  C   UNL     1       6.883   6.510  16.753  0.00  0.00    +0.000 A 
ATOM     27  N   UNL     1       6.875   5.580  17.771  0.00  0.00    +0.000 N 
BRANCH  26  28
ATOM     28  N   UNL     1       6.231   6.401  15.493  0.00  0.00    +0.000 N 
ATOM     29  O   UNL     1       6.794   5.705  14.638  0.00  0.00    +0.000 OA
ATOM     30  O   UNL     1       5.151   6.986  15.339  0.00  0.00    +0.000 OA
ENDBRANCH  26  28
ENDBRANCH  21  27
ENDBRANCH  18  21
ENDBRANCH  17  18
ENDBRANCH   1  17
TORSDOF 8
ENDMDL
MODEL 9
REMARK VINA RESULT:      -7.2      2.369      3.942
REMARK  Name = 
REMARK  9 active torsions:
REMARK  status: ('A' for Active; 'I' for Inactive)
REMARK    1  A    between atoms: C_1  and  C_2
REMARK    2  A    between atoms: C_5  and  N_6
REMARK    3  A    between atoms: N_9  and  C_10
REMARK    4  A    between atoms: C_10  and  C_11
REMARK    5  A    between atoms: C_11  and  O_12
REMARK    6  A    between atoms: C_11  and  C_13
REMARK    7  A    between atoms: C_13  and  N_14
REMARK    8  A    between atoms: C_16  and  C_17
REMARK    9  A    between atoms: C_17  and  O_19
REMARK                            x       y       z     vdW  Elec       q    Type
REMARK                         _______ _______ _______ _____ _____    ______ ____
ROOT
ATOM      1  N   UNL     1       2.424   6.457  19.534  0.00  0.00    +0.000 N 
ATOM      2  C   UNL     1       2.019   5.438  20.394  0.00  0.00    +0.000 A 
ATOM      3  C   UNL     1       2.433   4.163  20.385  0.00  0.00    +0.000 A 
ATOM      4  C   UNL     1       3.421   3.797  19.356  0.00  0.00    +0.000 A 
ATOM      5  O   UNL     1       3.867   2.651  19.315  0.00  0.00    +0.000 OA
ATOM      6  C   UNL     1       3.846   4.834  18.389  0.00  0.00    +0.000 A 
ATOM      7  C   UNL     1       4.723   4.451  17.361  0.00  0.00    +0.000 A 
ATOM      8  C   UNL     1       5.148   5.385  16.425  0.00  0.00    +0.000 A 
ATOM      9  C   UNL     1       4.727   6.704  16.546  0.00  0.00    +0.000 A 
ATOM     10  C   UNL     1       3.867   7.082  17.584  0.00  0.00    +0.000 A 
ATOM     11  F   UNL     1       3.551   8.384  17.654  0.00  0.00    +0.000 F 
ATOM     12  C   UNL     1       3.364   6.159  18.519  0.00  0.00    +0.000 A 
ENDROOT
BRANCH   3  13
ATOM     13  C   UNL     1       1.880   3.207  21.367  0.00  0.00    +0.000 C 
ATOM     14  O   UNL     1       2.498   2.817  22.347  0.00  0.00    +0.000 OA
BRANCH  13  15
ATOM     15  O   UNL     1       0.618   2.798  21.106  0.00  0.00    +0.000 OA
ATOM     16  H   UNL     1       0.339   2.000  21.620  0.00  0.00    +0.000 HD
ENDBRANCH  13  15
ENDBRANCH   3  13
BRANCH   1  17
ATOM     17  C   UNL     1       1.847   7.823  19.662  0.00  0.00    +0.000 C 
BRANCH  17  18
ATOM     18  C   UNL     1       1.291   8.084  21.083  0.00  0.00    +0.000 C 
BRANCH  18  19
ATOM     19  O   UNL     1      -0.109   7.768  21.113  0.00  0.00    +0.000 OA
ATOM     20  H   UNL     1      -0.393   7.521  20.208  0.00  0.00    +0.000 HD
ENDBRANCH  18  19
BRANCH  18  21
ATOM     21  C   UNL     1       1.521   9.544  21.521  0.00  0.00    +0.000 C 
BRANCH  21  27
ATOM     22  C   UNL     1      -0.890  10.344  23.284  0.00  0.00    +0.000 C 
ATOM     23  C   UNL     1      -0.640  10.812  21.896  0.00  0.00    +0.000 A 
ATOM     24  N   UNL     1      -1.437  11.639  21.248  0.00  0.00    +0.000 NA
ATOM     25  C   UNL     1      -0.873  11.830  20.016  0.00  0.00    +0.000 A 
ATOM     26  C   UNL     1       0.298  11.123  19.919  0.00  0.00    +0.000 A 
ATOM     27  N   UNL     1       0.447  10.447  21.112  0.00  0.00    +0.000 N 
BRANCH  26  28
ATOM     28  N   UNL     1       1.175  11.081  18.800  0.00  0.00    +0.000 N 
ATOM     29  O   UNL     1       0.924  10.234  17.932  0.00  0.00    +0.000 OA
ATOM     30  O   UNL     1       2.109  11.892  18.755  0.00  0.00    +0.000 OA
ENDBRANCH  26  28
ENDBRANCH  21  27
ENDBRANCH  18  21
ENDBRANCH  17  18
ENDBRANCH   1  17
TORSDOF 8
ENDMDL
