MODEL 1
REMARK VINA RESULT:      -7.2      0.000      0.000
REMARK  Name = 
REMARK  3 active torsions:
REMARK  status: ('A' for Active; 'I' for Inactive)
REMARK    1  A    between atoms: C_1  and  N_2
REMARK    2  A    between atoms: C_9  and  C_10
REMARK    3  A    between atoms: C_29  and  C_30
REMARK                            x       y       z     vdW  Elec       q    Type
REMARK                         _______ _______ _______ _____ _____    ______ ____
ROOT
ATOM      1  C   UNL     1      -1.311  17.066  20.881  0.00  0.00    +0.000 C 
ATOM      2  N   UNL     1      -0.890  15.853  21.532  0.00  0.00    +0.000 N 
ATOM      3  C   UNL     1       0.306  15.272  21.274  0.00  0.00    +0.000 C 
ATOM      4  O   UNL     1       1.233  15.715  20.618  0.00  0.00    +0.000 OA
ATOM      5  C   UNL     1       0.323  13.950  21.942  0.00  0.00    +0.000 C 
ATOM      6  C   UNL     1      -0.793  13.997  22.974  0.00  0.00    +0.000 C 
ATOM      7  C   UNL     1      -1.587  15.211  22.518  0.00  0.00    +0.000 C 
ATOM      8  O   UNL     1      -2.608  15.618  23.049  0.00  0.00    +0.000 OA
ATOM      9  C   UNL     1      -1.353  12.561  22.993  0.00  0.00    +0.000 C 
ATOM     10  N   UNL     1      -0.626  11.856  21.910  0.00  0.00    +0.000 N 
ATOM     11  C   UNL     1      -0.559  10.488  21.782  0.00  0.00    +0.000 C 
ATOM     12  O   UNL     1      -0.860   9.692  22.658  0.00  0.00    +0.000 OA
ATOM     13  C   UNL     1      -0.071  10.010  20.468  0.00  0.00    +0.000 A 
ATOM     14  C   UNL     1       1.117   9.274  20.395  0.00  0.00    +0.000 A 
ATOM     15  C   UNL     1       1.662   8.985  19.142  0.00  0.00    +0.000 A 
ATOM     16  C   UNL     1       0.943   9.280  17.981  0.00  0.00    +0.000 A 
ATOM     17  C   UNL     1      -0.264   9.978  18.055  0.00  0.00    +0.000 A 
ATOM     18  C   UNL     1      -0.680  10.478  19.291  0.00  0.00    +0.000 A 
ATOM     19  N   UNL     1      -1.449  11.668  19.242  0.00  0.00    +0.000 N 
ATOM     20  C   UNL     1      -1.039  12.860  19.844  0.00  0.00    +0.000 C 
ATOM     21  O   UNL     1      -1.456  13.936  19.398  0.00  0.00    +0.000 OA
ATOM     22  C   UNL     1       0.030  12.794  20.986  0.00  0.00    +0.000 C 
ATOM     23  C   UNL     1       1.415  12.471  20.372  0.00  0.00    +0.000 C 
ATOM     24  H   UNL     1      -1.997  11.842  18.410  0.00  0.00    +0.000 HD
ENDROOT
BRANCH   9  25
ATOM     25  C   UNL     1      -2.883  12.512  22.975  0.00  0.00    +0.000 A 
ATOM     26  C   UNL     1      -3.646  12.645  21.800  0.00  0.00    +0.000 A 
ATOM     27  C   UNL     1      -5.022  12.906  21.847  0.00  0.00    +0.000 A 
ATOM     28  C   UNL     1      -5.663  12.993  23.071  0.00  0.00    +0.000 A 
ATOM     29  F   UNL     1      -6.966  13.302  23.118  0.00  0.00    +0.000 F 
ATOM     30  C   UNL     1      -4.961  12.784  24.249  0.00  0.00    +0.000 A 
ATOM     31  C   UNL     1      -3.580  12.544  24.201  0.00  0.00    +0.000 A 
ENDBRANCH   9  25
TORSDOF 1
ENDMDL
MODEL 2
REMARK VINA RESULT:      -7.0      2.775      5.933
REMARK  Name = 
REMARK  3 active torsions:
REMARK  status: ('A' for Active; 'I' for Inactive)
REMARK    1  A    between atoms: C_1  and  N_2
REMARK    2  A    between atoms: C_9  and  C_10
REMARK    3  A    between atoms: C_29  and  C_30
REMARK                            x       y       z     vdW  Elec       q    Type
REMARK                         _______ _______ _______ _____ _____    ______ ____
ROOT
ATOM      1  C   UNL     1       3.432  14.583  20.190  0.00  0.00    +0.000 C 
ATOM      2  N   UNL     1       2.148  14.318  19.597  0.00  0.00    +0.000 N 
ATOM      3  C   UNL     1       1.118  15.195  19.681  0.00  0.00    +0.000 C 
ATOM      4  O   UNL     1       1.136  16.340  20.102  0.00  0.00    +0.000 OA
ATOM      5  C   UNL     1      -0.094  14.525  19.157  0.00  0.00    +0.000 C 
ATOM      6  C   UNL     1       0.408  13.335  18.355  0.00  0.00    +0.000 C 
ATOM      7  C   UNL     1       1.849  13.227  18.829  0.00  0.00    +0.000 C 
ATOM      8  O   UNL     1       2.644  12.376  18.462  0.00  0.00    +0.000 OA
ATOM      9  C   UNL     1      -0.656  12.245  18.587  0.00  0.00    +0.000 C 
ATOM     10  N   UNL     1      -1.590  12.831  19.578  0.00  0.00    +0.000 N 
ATOM     11  C   UNL     1      -2.857  12.356  19.827  0.00  0.00    +0.000 C 
ATOM     12  O   UNL     1      -3.462  11.575  19.109  0.00  0.00    +0.000 OA
ATOM     13  C   UNL     1      -3.481  12.872  21.067  0.00  0.00    +0.000 A 
ATOM     14  C   UNL     1      -4.650  13.639  20.988  0.00  0.00    +0.000 A 
ATOM     15  C   UNL     1      -5.128  14.271  22.138  0.00  0.00    +0.000 A 
ATOM     16  C   UNL     1      -4.544  14.003  23.379  0.00  0.00    +0.000 A 
ATOM     17  C   UNL     1      -3.402  13.204  23.464  0.00  0.00    +0.000 A 
ATOM     18  C   UNL     1      -2.787  12.776  22.285  0.00  0.00    +0.000 A 
ATOM     19  N   UNL     1      -1.383  12.594  22.358  0.00  0.00    +0.000 N 
ATOM     20  C   UNL     1      -0.483  13.318  21.574  0.00  0.00    +0.000 C 
ATOM     21  O   UNL     1       0.673  13.485  21.980  0.00  0.00    +0.000 OA
ATOM     22  C   UNL     1      -1.007  13.994  20.263  0.00  0.00    +0.000 C 
ATOM     23  C   UNL     1      -1.879  15.221  20.633  0.00  0.00    +0.000 C 
ATOM     24  H   UNL     1      -0.984  12.356  23.258  0.00  0.00    +0.000 HD
ENDROOT
BRANCH   9  25
ATOM     25  C   UNL     1      -0.055  10.872  18.898  0.00  0.00    +0.000 A 
ATOM     26  C   UNL     1       0.166  10.404  20.207  0.00  0.00    +0.000 A 
ATOM     27  C   UNL     1       0.990   9.300  20.460  0.00  0.00    +0.000 A 
ATOM     28  C   UNL     1       1.569   8.618  19.403  0.00  0.00    +0.000 A 
ATOM     29  F   UNL     1       2.404   7.599  19.648  0.00  0.00    +0.000 F 
ATOM     30  C   UNL     1       1.307   8.998  18.095  0.00  0.00    +0.000 A 
ATOM     31  C   UNL     1       0.500  10.116  17.844  0.00  0.00    +0.000 A 
ENDBRANCH   9  25
TORSDOF 1
ENDMDL
MODEL 3
REMARK VINA RESULT:      -6.8      2.811      5.832
REMARK  Name = 
REMARK  3 active torsions:
REMARK  status: ('A' for Active; 'I' for Inactive)
REMARK    1  A    between atoms: C_1  and  N_2
REMARK    2  A    between atoms: C_9  and  C_10
REMARK    3  A    between atoms: C_29  and  C_30
REMARK                            x       y       z     vdW  Elec       q    Type
REMARK                         _______ _______ _______ _____ _____    ______ ____
ROOT
ATOM      1  C   UNL     1       3.748  15.192  20.155  0.00  0.00    +0.000 C 
ATOM      2  N   UNL     1       2.514  14.750  19.562  0.00  0.00    +0.000 N 
ATOM      3  C   UNL     1       1.378  15.486  19.623  0.00  0.00    +0.000 C 
ATOM      4  O   UNL     1       1.243  16.631  20.019  0.00  0.00    +0.000 OA
ATOM      5  C   UNL     1       0.267  14.652  19.108  0.00  0.00    +0.000 C 
ATOM      6  C   UNL     1       0.927  13.521  18.334  0.00  0.00    +0.000 C 
ATOM      7  C   UNL     1       2.365  13.613  18.816  0.00  0.00    +0.000 C 
ATOM      8  O   UNL     1       3.268  12.866  18.472  0.00  0.00    +0.000 OA
ATOM      9  C   UNL     1       0.012  12.306  18.584  0.00  0.00    +0.000 C 
ATOM     10  N   UNL     1      -0.997  12.786  19.559  0.00  0.00    +0.000 N 
ATOM     11  C   UNL     1      -2.193  12.154  19.812  0.00  0.00    +0.000 C 
ATOM     12  O   UNL     1      -2.685  11.285  19.108  0.00  0.00    +0.000 OA
ATOM     13  C   UNL     1      -2.888  12.610  21.038  0.00  0.00    +0.000 A 
ATOM     14  C   UNL     1      -4.146  13.215  20.937  0.00  0.00    +0.000 A 
ATOM     15  C   UNL     1      -4.711  13.802  22.071  0.00  0.00    +0.000 A 
ATOM     16  C   UNL     1      -4.106  13.639  23.320  0.00  0.00    +0.000 A 
ATOM     17  C   UNL     1      -2.870  12.998  23.428  0.00  0.00    +0.000 A 
ATOM     18  C   UNL     1      -2.196  12.630  22.261  0.00  0.00    +0.000 A 
ATOM     19  N   UNL     1      -0.781  12.635  22.344  0.00  0.00    +0.000 N 
ATOM     20  C   UNL     1       0.023  13.454  21.548  0.00  0.00    +0.000 C 
ATOM     21  O   UNL     1       1.144  13.780  21.956  0.00  0.00    +0.000 OA
ATOM     22  C   UNL     1      -0.576  14.029  20.221  0.00  0.00    +0.000 C 
ATOM     23  C   UNL     1      -1.604  15.138  20.561  0.00  0.00    +0.000 C 
ATOM     24  H   UNL     1      -0.361  12.470  23.250  0.00  0.00    +0.000 HD
ENDROOT
BRANCH   9  25
ATOM     25  C   UNL     1       0.786  11.030  18.927  0.00  0.00    +0.000 A 
ATOM     26  C   UNL     1       1.419  10.228  17.960  0.00  0.00    +0.000 A 
ATOM     27  C   UNL     1       1.844   8.926  18.255  0.00  0.00    +0.000 A 
ATOM     28  C   UNL     1       1.683   8.423  19.535  0.00  0.00    +0.000 A 
ATOM     29  F   UNL     1       2.035   7.158  19.801  0.00  0.00    +0.000 F 
ATOM     30  C   UNL     1       1.140   9.215  20.537  0.00  0.00    +0.000 A 
ATOM     31  C   UNL     1       0.696  10.510  20.235  0.00  0.00    +0.000 A 
ENDBRANCH   9  25
TORSDOF 1
ENDMDL
MODEL 4
REMARK VINA RESULT:      -6.8      0.578      1.044
REMARK  Name = 
REMARK  3 active torsions:
REMARK  status: ('A' for Active; 'I' for Inactive)
REMARK    1  A    between atoms: C_1  and  N_2
REMARK    2  A    between atoms: C_9  and  C_10
REMARK    3  A    between atoms: C_29  and  C_30
REMARK                            x       y       z     vdW  Elec       q    Type
REMARK                         _______ _______ _______ _____ _____    ______ ____
ROOT
ATOM      1  C   UNL     1      -0.551  17.442  20.465  0.00  0.00    +0.000 C 
ATOM      2  N   UNL     1      -0.260  16.234  21.192  0.00  0.00    +0.000 N 
ATOM      3  C   UNL     1       0.866  15.512  20.973  0.00  0.00    +0.000 C 
ATOM      4  O   UNL     1       1.832  15.812  20.291  0.00  0.00    +0.000 OA
ATOM      5  C   UNL     1       0.746  14.242  21.724  0.00  0.00    +0.000 C 
ATOM      6  C   UNL     1      -0.353  14.473  22.750  0.00  0.00    +0.000 C 
ATOM      7  C   UNL     1      -1.015  15.733  22.217  0.00  0.00    +0.000 C 
ATOM      8  O   UNL     1      -1.984  16.281  22.720  0.00  0.00    +0.000 OA
ATOM      9  C   UNL     1      -1.064  13.110  22.859  0.00  0.00    +0.000 C 
ATOM     10  N   UNL     1      -0.422  12.264  21.823  0.00  0.00    +0.000 N 
ATOM     11  C   UNL     1      -0.503  10.891  21.782  0.00  0.00    +0.000 C 
ATOM     12  O   UNL     1      -0.883  10.188  22.706  0.00  0.00    +0.000 OA
ATOM     13  C   UNL     1      -0.077  10.282  20.502  0.00  0.00    +0.000 A 
ATOM     14  C   UNL     1       1.025   9.419  20.476  0.00  0.00    +0.000 A 
ATOM     15  C   UNL     1       1.529   8.995  19.245  0.00  0.00    +0.000 A 
ATOM     16  C   UNL     1       0.839   9.291  18.067  0.00  0.00    +0.000 A 
ATOM     17  C   UNL     1      -0.286  10.118  18.095  0.00  0.00    +0.000 A 
ATOM     18  C   UNL     1      -0.640  10.737  19.297  0.00  0.00    +0.000 A 
ATOM     19  N   UNL     1      -1.276  11.997  19.172  0.00  0.00    +0.000 N 
ATOM     20  C   UNL     1      -0.738  13.174  19.697  0.00  0.00    +0.000 C 
ATOM     21  O   UNL     1      -1.040  14.258  19.184  0.00  0.00    +0.000 OA
ATOM     22  C   UNL     1       0.324  13.065  20.842  0.00  0.00    +0.000 C 
ATOM     23  C   UNL     1       1.664  12.557  20.252  0.00  0.00    +0.000 C 
ATOM     24  H   UNL     1      -1.808  12.176  18.330  0.00  0.00    +0.000 HD
ENDROOT
BRANCH   9  25
ATOM     25  C   UNL     1      -2.590  13.223  22.843  0.00  0.00    +0.000 A 
ATOM     26  C   UNL     1      -3.368  13.348  24.009  0.00  0.00    +0.000 A 
ATOM     27  C   UNL     1      -4.753  13.138  23.991  0.00  0.00    +0.000 A 
ATOM     28  C   UNL     1      -5.388  12.845  22.796  0.00  0.00    +0.000 A 
ATOM     29  F   UNL     1      -6.702  12.586  22.789  0.00  0.00    +0.000 F 
ATOM     30  C   UNL     1      -4.668  12.797  21.611  0.00  0.00    +0.000 A 
ATOM     31  C   UNL     1      -3.278  12.986  21.634  0.00  0.00    +0.000 A 
ENDBRANCH   9  25
TORSDOF 1
ENDMDL
MODEL 5
REMARK VINA RESULT:      -6.7      2.563      5.763
REMARK  Name = 
REMARK  3 active torsions:
REMARK  status: ('A' for Active; 'I' for Inactive)
REMARK    1  A    between atoms: C_1  and  N_2
REMARK    2  A    between atoms: C_9  and  C_10
REMARK    3  A    between atoms: C_29  and  C_30
REMARK                            x       y       z     vdW  Elec       q    Type
REMARK                         _______ _______ _______ _____ _____    ______ ____
ROOT
ATOM      1  C   UNL     1       2.335  15.070  21.869  0.00  0.00    +0.000 C 
ATOM      2  N   UNL     1       1.193  14.813  21.031  0.00  0.00    +0.000 N 
ATOM      3  C   UNL     1       0.108  15.624  21.020  0.00  0.00    +0.000 C 
ATOM      4  O   UNL     1      -0.025  16.712  21.554  0.00  0.00    +0.000 OA
ATOM      5  C   UNL     1      -0.948  14.961  20.220  0.00  0.00    +0.000 C 
ATOM      6  C   UNL     1      -0.235  13.895  19.402  0.00  0.00    +0.000 C 
ATOM      7  C   UNL     1       1.106  13.804  20.112  0.00  0.00    +0.000 C 
ATOM      8  O   UNL     1       2.008  13.039  19.808  0.00  0.00    +0.000 OA
ATOM      9  C   UNL     1      -1.247  12.736  19.324  0.00  0.00    +0.000 C 
ATOM     10  N   UNL     1      -2.376  13.160  20.187  0.00  0.00    +0.000 N 
ATOM     11  C   UNL     1      -3.632  12.599  20.154  0.00  0.00    +0.000 C 
ATOM     12  O   UNL     1      -4.049  11.876  19.262  0.00  0.00    +0.000 OA
ATOM     13  C   UNL     1      -4.494  12.939  21.309  0.00  0.00    +0.000 A 
ATOM     14  C   UNL     1      -5.681  13.653  21.102  0.00  0.00    +0.000 A 
ATOM     15  C   UNL     1      -6.392  14.125  22.207  0.00  0.00    +0.000 A 
ATOM     16  C   UNL     1      -6.015  13.745  23.497  0.00  0.00    +0.000 A 
ATOM     17  C   UNL     1      -4.854  12.997  23.703  0.00  0.00    +0.000 A 
ATOM     18  C   UNL     1      -4.016  12.737  22.615  0.00  0.00    +0.000 A 
ATOM     19  N   UNL     1      -2.637  12.616  22.919  0.00  0.00    +0.000 N 
ATOM     20  C   UNL     1      -1.666  13.467  22.389  0.00  0.00    +0.000 C 
ATOM     21  O   UNL     1      -0.612  13.643  23.011  0.00  0.00    +0.000 OA
ATOM     22  C   UNL     1      -2.000  14.264  21.083  0.00  0.00    +0.000 C 
ATOM     23  C   UNL     1      -3.004  15.396  21.416  0.00  0.00    +0.000 C 
ATOM     24  H   UNL     1      -2.385  12.297  23.846  0.00  0.00    +0.000 HD
ENDROOT
BRANCH   9  25
ATOM     25  C   UNL     1      -0.617  11.367  19.593  0.00  0.00    +0.000 A 
ATOM     26  C   UNL     1      -0.481  10.820  20.883  0.00  0.00    +0.000 A 
ATOM     27  C   UNL     1       0.364   9.730  21.130  0.00  0.00    +0.000 A 
ATOM     28  C   UNL     1       1.052   9.143  20.081  0.00  0.00    +0.000 A 
ATOM     29  F   UNL     1       1.905   8.140  20.327  0.00  0.00    +0.000 F 
ATOM     30  C   UNL     1       0.878   9.601  18.784  0.00  0.00    +0.000 A 
ATOM     31  C   UNL     1       0.048  10.705  18.541  0.00  0.00    +0.000 A 
ENDBRANCH   9  25
TORSDOF 1
ENDMDL
MODEL 6
REMARK VINA RESULT:      -6.6      2.680      5.793
REMARK  Name = 
REMARK  3 active torsions:
REMARK  status: ('A' for Active; 'I' for Inactive)
REMARK    1  A    between atoms: C_1  and  N_2
REMARK    2  A    between atoms: C_9  and  C_10
REMARK    3  A    between atoms: C_29  and  C_30
REMARK                            x       y       z     vdW  Elec       q    Type
REMARK                         _______ _______ _______ _____ _____    ______ ____
ROOT
ATOM      1  C   UNL     1      -0.145  16.588  24.783  0.00  0.00    +0.000 C 
ATOM      2  N   UNL     1      -0.830  16.162  23.591  0.00  0.00    +0.000 N 
ATOM      3  C   UNL     1      -2.019  16.690  23.212  0.00  0.00    +0.000 C 
ATOM      4  O   UNL     1      -2.600  17.653  23.684  0.00  0.00    +0.000 OA
ATOM      5  C   UNL     1      -2.534  15.887  22.079  0.00  0.00    +0.000 C 
ATOM      6  C   UNL     1      -1.337  15.114  21.546  0.00  0.00    +0.000 C 
ATOM      7  C   UNL     1      -0.339  15.265  22.683  0.00  0.00    +0.000 C 
ATOM      8  O   UNL     1       0.778  14.772  22.703  0.00  0.00    +0.000 OA
ATOM      9  C   UNL     1      -1.928  13.764  21.095  0.00  0.00    +0.000 C 
ATOM     10  N   UNL     1      -3.350  13.815  21.511  0.00  0.00    +0.000 N 
ATOM     11  C   UNL     1      -4.332  12.981  21.027  0.00  0.00    +0.000 C 
ATOM     12  O   UNL     1      -4.221  12.281  20.032  0.00  0.00    +0.000 OA
ATOM     13  C   UNL     1      -5.589  12.982  21.808  0.00  0.00    +0.000 A 
ATOM     14  C   UNL     1      -6.778  13.414  21.208  0.00  0.00    +0.000 A 
ATOM     15  C   UNL     1      -7.916  13.584  21.999  0.00  0.00    +0.000 A 
ATOM     16  C   UNL     1      -7.911  13.167  23.332  0.00  0.00    +0.000 A 
ATOM     17  C   UNL     1      -6.736  12.696  23.921  0.00  0.00    +0.000 A 
ATOM     18  C   UNL     1      -5.544  12.759  23.195  0.00  0.00    +0.000 A 
ATOM     19  N   UNL     1      -4.367  12.934  23.965  0.00  0.00    +0.000 N 
ATOM     20  C   UNL     1      -3.529  14.042  23.827  0.00  0.00    +0.000 C 
ATOM     21  O   UNL     1      -2.829  14.393  24.785  0.00  0.00    +0.000 OA
ATOM     22  C   UNL     1      -3.597  14.873  22.502  0.00  0.00    +0.000 C 
ATOM     23  C   UNL     1      -4.910  15.695  22.480  0.00  0.00    +0.000 C 
ATOM     24  H   UNL     1      -4.368  12.585  24.915  0.00  0.00    +0.000 HD
ENDROOT
BRANCH   9  25
ATOM     25  C   UNL     1      -1.095  12.561  21.545  0.00  0.00    +0.000 A 
ATOM     26  C   UNL     1      -0.122  11.949  20.733  0.00  0.00    +0.000 A 
ATOM     27  C   UNL     1       0.395  10.683  21.039  0.00  0.00    +0.000 A 
ATOM     28  C   UNL     1      -0.020  10.031  22.187  0.00  0.00    +0.000 A 
ATOM     29  F   UNL     1       0.429   8.796  22.448  0.00  0.00    +0.000 F 
ATOM     30  C   UNL     1      -0.915  10.639  23.056  0.00  0.00    +0.000 A 
ATOM     31  C   UNL     1      -1.447  11.896  22.737  0.00  0.00    +0.000 A 
ENDBRANCH   9  25
TORSDOF 1
ENDMDL
MODEL 7
REMARK VINA RESULT:      -6.6      2.778      6.202
REMARK  Name = 
REMARK  3 active torsions:
REMARK  status: ('A' for Active; 'I' for Inactive)
REMARK    1  A    between atoms: C_1  and  N_2
REMARK    2  A    between atoms: C_9  and  C_10
REMARK    3  A    between atoms: C_29  and  C_30
REMARK                            x       y       z     vdW  Elec       q    Type
REMARK                         _______ _______ _______ _____ _____    ______ ____
ROOT
ATOM      1  C   UNL     1       0.711   9.979  17.984  0.00  0.00    +0.000 C 
ATOM      2  N   UNL     1       0.851  10.797  19.160  0.00  0.00    +0.000 N 
ATOM      3  C   UNL     1       0.359  10.421  20.365  0.00  0.00    +0.000 C 
ATOM      4  O   UNL     1      -0.112   9.342  20.683  0.00  0.00    +0.000 OA
ATOM      5  C   UNL     1       0.488  11.571  21.289  0.00  0.00    +0.000 C 
ATOM      6  C   UNL     1       1.496  12.508  20.641  0.00  0.00    +0.000 C 
ATOM      7  C   UNL     1       1.548  11.972  19.219  0.00  0.00    +0.000 C 
ATOM      8  O   UNL     1       2.223  12.445  18.318  0.00  0.00    +0.000 OA
ATOM      9  C   UNL     1       0.997  13.918  21.011  0.00  0.00    +0.000 C 
ATOM     10  N   UNL     1      -0.292  13.693  21.708  0.00  0.00    +0.000 N 
ATOM     11  C   UNL     1      -0.921  14.628  22.498  0.00  0.00    +0.000 C 
ATOM     12  O   UNL     1      -0.396  15.644  22.927  0.00  0.00    +0.000 OA
ATOM     13  C   UNL     1      -2.333  14.319  22.821  0.00  0.00    +0.000 A 
ATOM     14  C   UNL     1      -2.711  14.113  24.153  0.00  0.00    +0.000 A 
ATOM     15  C   UNL     1      -3.997  13.646  24.431  0.00  0.00    +0.000 A 
ATOM     16  C   UNL     1      -4.943  13.549  23.407  0.00  0.00    +0.000 A 
ATOM     17  C   UNL     1      -4.579  13.795  22.082  0.00  0.00    +0.000 A 
ATOM     18  C   UNL     1      -3.233  14.022  21.783  0.00  0.00    +0.000 A 
ATOM     19  N   UNL     1      -2.812  13.601  20.496  0.00  0.00    +0.000 N 
ATOM     20  C   UNL     1      -1.824  12.635  20.301  0.00  0.00    +0.000 C 
ATOM     21  O   UNL     1      -1.825  11.973  19.256  0.00  0.00    +0.000 OA
ATOM     22  C   UNL     1      -0.821  12.342  21.467  0.00  0.00    +0.000 C 
ATOM     23  C   UNL     1      -1.552  11.561  22.587  0.00  0.00    +0.000 C 
ATOM     24  H   UNL     1      -3.504  13.580  19.757  0.00  0.00    +0.000 HD
ENDROOT
BRANCH   9  25
ATOM     25  C   UNL     1       1.008  14.890  19.828  0.00  0.00    +0.000 A 
ATOM     26  C   UNL     1       2.156  15.594  19.418  0.00  0.00    +0.000 A 
ATOM     27  C   UNL     1       2.070  16.691  18.551  0.00  0.00    +0.000 A 
ATOM     28  C   UNL     1       0.839  17.072  18.044  0.00  0.00    +0.000 A 
ATOM     29  F   UNL     1       0.749  18.157  17.263  0.00  0.00    +0.000 F 
ATOM     30  C   UNL     1      -0.303  16.350  18.358  0.00  0.00    +0.000 A 
ATOM     31  C   UNL     1      -0.219  15.266  19.243  0.00  0.00    +0.000 A 
ENDBRANCH   9  25
TORSDOF 1
ENDMDL
MODEL 8
REMARK VINA RESULT:      -6.6      2.591      5.633
REMARK  Name = 
REMARK  3 active torsions:
REMARK  status: ('A' for Active; 'I' for Inactive)
REMARK    1  A    between atoms: C_1  and  N_2
REMARK    2  A    between atoms: C_9  and  C_10
REMARK    3  A    between atoms: C_29  and  C_30
REMARK                            x       y       z     vdW  Elec       q    Type
REMARK                         _______ _______ _______ _____ _____    ______ ____
ROOT
ATOM      1  C   UNL     1       0.027  15.885  23.716  0.00  0.00    +0.000 C 
ATOM      2  N   UNL     1      -0.576  15.422  22.494  0.00  0.00    +0.000 N 
ATOM      3  C   UNL     1      -1.640  16.045  21.933  0.00  0.00    +0.000 C 
ATOM      4  O   UNL     1      -2.140  17.112  22.246  0.00  0.00    +0.000 OA
ATOM      5  C   UNL     1      -2.131  15.196  20.823  0.00  0.00    +0.000 C 
ATOM      6  C   UNL     1      -0.995  14.237  20.505  0.00  0.00    +0.000 C 
ATOM      7  C   UNL     1      -0.111  14.385  21.734  0.00  0.00    +0.000 C 
ATOM      8  O   UNL     1       0.925  13.768  21.929  0.00  0.00    +0.000 OA
ATOM      9  C   UNL     1      -1.703  12.927  20.109  0.00  0.00    +0.000 C 
ATOM     10  N   UNL     1      -3.143  13.187  20.349  0.00  0.00    +0.000 N 
ATOM     11  C   UNL     1      -4.167  12.429  19.828  0.00  0.00    +0.000 C 
ATOM     12  O   UNL     1      -4.043  11.622  18.919  0.00  0.00    +0.000 OA
ATOM     13  C   UNL     1      -5.489  12.659  20.453  0.00  0.00    +0.000 A 
ATOM     14  C   UNL     1      -6.542  13.164  19.681  0.00  0.00    +0.000 A 
ATOM     15  C   UNL     1      -7.727  13.547  20.315  0.00  0.00    +0.000 A 
ATOM     16  C   UNL     1      -7.916  13.271  21.671  0.00  0.00    +0.000 A 
ATOM     17  C   UNL     1      -6.881  12.728  22.434  0.00  0.00    +0.000 A 
ATOM     18  C   UNL     1      -5.620  12.576  21.850  0.00  0.00    +0.000 A 
ATOM     19  N   UNL     1      -4.518  12.689  22.734  0.00  0.00    +0.000 N 
ATOM     20  C   UNL     1      -3.535  13.670  22.598  0.00  0.00    +0.000 C 
ATOM     21  O   UNL     1      -2.901  14.033  23.597  0.00  0.00    +0.000 OA
ATOM     22  C   UNL     1      -3.355  14.363  21.206  0.00  0.00    +0.000 C 
ATOM     23  C   UNL     1      -4.542  15.327  20.956  0.00  0.00    +0.000 C 
ATOM     24  H   UNL     1      -4.665  12.442  23.705  0.00  0.00    +0.000 HD
ENDROOT
BRANCH   9  25
ATOM     25  C   UNL     1      -1.083  11.687  20.759  0.00  0.00    +0.000 A 
ATOM     26  C   UNL     1      -1.329  11.310  22.092  0.00  0.00    +0.000 A 
ATOM     27  C   UNL     1      -0.523  10.370  22.747  0.00  0.00    +0.000 A 
ATOM     28  C   UNL     1       0.514   9.758  22.062  0.00  0.00    +0.000 A 
ATOM     29  F   UNL     1       1.322   8.904  22.706  0.00  0.00    +0.000 F 
ATOM     30  C   UNL     1       0.734  10.042  20.723  0.00  0.00    +0.000 A 
ATOM     31  C   UNL     1      -0.060  10.999  20.075  0.00  0.00    +0.000 A 
ENDBRANCH   9  25
TORSDOF 1
ENDMDL
MODEL 9
REMARK VINA RESULT:      -6.5      2.617      4.348
REMARK  Name = 
REMARK  3 active torsions:
REMARK  status: ('A' for Active; 'I' for Inactive)
REMARK    1  A    between atoms: C_1  and  N_2
REMARK    2  A    between atoms: C_9  and  C_10
REMARK    3  A    between atoms: C_29  and  C_30
REMARK                            x       y       z     vdW  Elec       q    Type
REMARK                         _______ _______ _______ _____ _____    ______ ____
ROOT
ATOM      1  C   UNL     1      -6.231  14.634  22.846  0.00  0.00    +0.000 C 
ATOM      2  N   UNL     1      -4.952  14.681  22.188  0.00  0.00    +0.000 N 
ATOM      3  C   UNL     1      -4.652  13.882  21.136  0.00  0.00    +0.000 C 
ATOM      4  O   UNL     1      -5.399  13.152  20.507  0.00  0.00    +0.000 OA
ATOM      5  C   UNL     1      -3.208  14.036  20.845  0.00  0.00    +0.000 C 
ATOM      6  C   UNL     1      -2.784  15.323  21.537  0.00  0.00    +0.000 C 
ATOM      7  C   UNL     1      -3.952  15.567  22.479  0.00  0.00    +0.000 C 
ATOM      8  O   UNL     1      -4.033  16.497  23.267  0.00  0.00    +0.000 OA
ATOM      9  C   UNL     1      -1.344  15.043  22.009  0.00  0.00    +0.000 C 
ATOM     10  N   UNL     1      -1.106  13.617  21.677  0.00  0.00    +0.000 N 
ATOM     11  C   UNL     1       0.137  13.032  21.613  0.00  0.00    +0.000 C 
ATOM     12  O   UNL     1       1.194  13.644  21.568  0.00  0.00    +0.000 OA
ATOM     13  C   UNL     1       0.126  11.551  21.595  0.00  0.00    +0.000 A 
ATOM     14  C   UNL     1       0.629  10.868  20.481  0.00  0.00    +0.000 A 
ATOM     15  C   UNL     1       0.450   9.486  20.393  0.00  0.00    +0.000 A 
ATOM     16  C   UNL     1      -0.072   8.777  21.478  0.00  0.00    +0.000 A 
ATOM     17  C   UNL     1      -0.536   9.454  22.607  0.00  0.00    +0.000 A 
ATOM     18  C   UNL     1      -0.580  10.850  22.588  0.00  0.00    +0.000 A 
ATOM     19  N   UNL     1      -1.607  11.442  23.364  0.00  0.00    +0.000 N 
ATOM     20  C   UNL     1      -2.611  12.240  22.812  0.00  0.00    +0.000 C 
ATOM     21  O   UNL     1      -3.699  12.330  23.392  0.00  0.00    +0.000 OA
ATOM     22  C   UNL     1      -2.360  12.897  21.413  0.00  0.00    +0.000 C 
ATOM     23  C   UNL     1      -2.436  11.807  20.314  0.00  0.00    +0.000 C 
ATOM     24  H   UNL     1      -1.941  10.932  24.172  0.00  0.00    +0.000 HD
ENDROOT
BRANCH   9  25
ATOM     25  C   UNL     1      -1.083  15.495  23.448  0.00  0.00    +0.000 A 
ATOM     26  C   UNL     1      -1.526  14.776  24.575  0.00  0.00    +0.000 A 
ATOM     27  C   UNL     1      -1.550  15.356  25.850  0.00  0.00    +0.000 A 
ATOM     28  C   UNL     1      -1.089  16.650  26.024  0.00  0.00    +0.000 A 
ATOM     29  F   UNL     1      -1.168  17.226  27.232  0.00  0.00    +0.000 F 
ATOM     30  C   UNL     1      -0.567  17.361  24.953  0.00  0.00    +0.000 A 
ATOM     31  C   UNL     1      -0.563  16.786  23.674  0.00  0.00    +0.000 A 
ENDBRANCH   9  25
TORSDOF 1
ENDMDL
