MODEL 1
REMARK VINA RESULT:      -6.5      0.000      0.000
REMARK  Name = 
REMARK  8 active torsions:
REMARK  status: ('A' for Active; 'I' for Inactive)
REMARK    1  A    between atoms: C_1  and  C_2
REMARK    2  A    between atoms: C_6  and  C_7
REMARK    3  A    between atoms: C_7  and  C_8
REMARK    4  A    between atoms: C_7  and  C_9
REMARK    5  A    between atoms: C_7  and  C_10
REMARK    6  A    between atoms: C_11  and  N_12
REMARK    7  A    between atoms: C_13  and  C_15
REMARK    8  A    between atoms: C_15  and  C_16
REMARK                            x       y       z     vdW  Elec       q    Type
REMARK                         _______ _______ _______ _____ _____    ______ ____
ROOT
ATOM      1  N   UNL     1      -0.153  12.482  20.571  0.00  0.00    +0.000 N 
ATOM      2  C   UNL     1      -1.129  13.074  19.780  0.00  0.00    +0.000 C 
ATOM      3  O   UNL     1      -2.223  12.598  19.498  0.00  0.00    +0.000 OA
ATOM      4  H   UNL     1       0.758  12.907  20.567  0.00  0.00    +0.000 HD
ENDROOT
BRANCH   1  11
ATOM      5  C   UNL     1      -1.308  12.129  23.237  0.00  0.00    +0.000 C 
ATOM      6  C   UNL     1      -0.775  10.996  22.396  0.00  0.00    +0.000 A 
ATOM      7  C   UNL     1      -0.801   9.719  22.973  0.00  0.00    +0.000 A 
ATOM      8  C   UNL     1      -0.262   8.636  22.302  0.00  0.00    +0.000 A 
ATOM      9  C   UNL     1       0.303   8.815  21.042  0.00  0.00    +0.000 A 
ATOM     10  C   UNL     1       0.370  10.078  20.400  0.00  0.00    +0.000 A 
ATOM     11  C   UNL     1      -0.221  11.175  21.099  0.00  0.00    +0.000 A 
BRANCH  10  12
ATOM     12  C   UNL     1       0.936  10.100  18.945  0.00  0.00    +0.000 C 
ATOM     13  C   UNL     1      -0.262  10.076  17.970  0.00  0.00    +0.000 C 
ATOM     14  C   UNL     1       1.829  11.304  18.576  0.00  0.00    +0.000 C 
ATOM     15  C   UNL     1       1.820   8.858  18.629  0.00  0.00    +0.000 C 
ENDBRANCH  10  12
ENDBRANCH   1  11
BRANCH   2  16
ATOM     16  C   UNL     1      -0.679  14.399  19.193  0.00  0.00    +0.000 C 
BRANCH  16  17
ATOM     17  C   UNL     1      -0.600  15.530  20.222  0.00  0.00    +0.000 C 
ATOM     18  S   UNL     1       1.005  16.403  20.196  0.00  0.00    +0.000 S 
ATOM     19  C   UNL     1       0.836  17.142  18.587  0.00  0.00    +0.000 A 
ATOM     20  C   UNL     1       1.973  17.305  17.794  0.00  0.00    +0.000 A 
ATOM     21  C   UNL     1       1.862  17.870  16.525  0.00  0.00    +0.000 A 
ATOM     22  C   UNL     1       0.621  18.305  16.062  0.00  0.00    +0.000 A 
ATOM     23  C   UNL     1      -0.516  18.173  16.861  0.00  0.00    +0.000 A 
ATOM     24  C   UNL     1      -0.417  17.563  18.113  0.00  0.00    +0.000 A 
ATOM     25  N   UNL     1      -1.592  17.371  18.862  0.00  0.00    +0.000 N 
ATOM     26  C   UNL     1      -1.725  16.527  19.941  0.00  0.00    +0.000 C 
ATOM     27  O   UNL     1      -2.793  16.496  20.553  0.00  0.00    +0.000 OA
ATOM     28  H   UNL     1      -2.430  17.882  18.611  0.00  0.00    +0.000 HD
ENDBRANCH  16  17
ENDBRANCH   2  16
TORSDOF 4
ENDMDL
MODEL 2
REMARK VINA RESULT:      -6.5      4.859      9.179
REMARK  Name = 
REMARK  8 active torsions:
REMARK  status: ('A' for Active; 'I' for Inactive)
REMARK    1  A    between atoms: C_1  and  C_2
REMARK    2  A    between atoms: C_6  and  C_7
REMARK    3  A    between atoms: C_7  and  C_8
REMARK    4  A    between atoms: C_7  and  C_9
REMARK    5  A    between atoms: C_7  and  C_10
REMARK    6  A    between atoms: C_11  and  N_12
REMARK    7  A    between atoms: C_13  and  C_15
REMARK    8  A    between atoms: C_15  and  C_16
REMARK                            x       y       z     vdW  Elec       q    Type
REMARK                         _______ _______ _______ _____ _____    ______ ____
ROOT
ATOM      1  N   UNL     1      -0.142   9.005  18.547  0.00  0.00    +0.000 N 
ATOM      2  C   UNL     1       1.117   9.101  17.970  0.00  0.00    +0.000 C 
ATOM      3  O   UNL     1       1.700  10.135  17.664  0.00  0.00    +0.000 OA
ATOM      4  H   UNL     1      -0.563   8.093  18.576  0.00  0.00    +0.000 HD
ENDROOT
BRANCH   1  11
ATOM      5  C   UNL     1      -2.002   9.766  16.419  0.00  0.00    +0.000 C 
ATOM      6  C   UNL     1      -1.915  10.471  17.749  0.00  0.00    +0.000 A 
ATOM      7  C   UNL     1      -2.748  11.584  17.927  0.00  0.00    +0.000 A 
ATOM      8  C   UNL     1      -2.676  12.334  19.086  0.00  0.00    +0.000 A 
ATOM      9  C   UNL     1      -1.775  11.978  20.086  0.00  0.00    +0.000 A 
ATOM     10  C   UNL     1      -0.897  10.870  19.973  0.00  0.00    +0.000 A 
ATOM     11  C   UNL     1      -1.012  10.092  18.780  0.00  0.00    +0.000 A 
BRANCH  10  12
ATOM     12  C   UNL     1      -0.022  10.534  21.222  0.00  0.00    +0.000 C 
ATOM     13  C   UNL     1      -0.644  11.247  22.443  0.00  0.00    +0.000 C 
ATOM     14  C   UNL     1       0.129   9.037  21.567  0.00  0.00    +0.000 C 
ATOM     15  C   UNL     1       1.442  11.042  21.080  0.00  0.00    +0.000 C 
ENDBRANCH  10  12
ENDBRANCH   1  11
BRANCH   2  16
ATOM     16  C   UNL     1       1.721   7.743  17.659  0.00  0.00    +0.000 C 
BRANCH  16  17
ATOM     17  C   UNL     1       3.035   7.473  18.395  0.00  0.00    +0.000 C 
ATOM     18  S   UNL     1       2.788   6.684  20.024  0.00  0.00    +0.000 S 
ATOM     19  C   UNL     1       2.167   5.126  19.430  0.00  0.00    +0.000 A 
ATOM     20  C   UNL     1       1.199   4.454  20.177  0.00  0.00    +0.000 A 
ATOM     21  C   UNL     1       0.689   3.238  19.725  0.00  0.00    +0.000 A 
ATOM     22  C   UNL     1       1.172   2.676  18.544  0.00  0.00    +0.000 A 
ATOM     23  C   UNL     1       2.162   3.328  17.806  0.00  0.00    +0.000 A 
ATOM     24  C   UNL     1       2.641   4.570  18.231  0.00  0.00    +0.000 A 
ATOM     25  N   UNL     1       3.579   5.239  17.426  0.00  0.00    +0.000 N 
ATOM     26  C   UNL     1       3.910   6.572  17.521  0.00  0.00    +0.000 C 
ATOM     27  O   UNL     1       4.796   7.027  16.798  0.00  0.00    +0.000 OA
ATOM     28  H   UNL     1       4.072   4.726  16.704  0.00  0.00    +0.000 HD
ENDBRANCH  16  17
ENDBRANCH   2  16
TORSDOF 4
ENDMDL
MODEL 3
REMARK VINA RESULT:      -6.4      3.544      5.925
REMARK  Name = 
REMARK  8 active torsions:
REMARK  status: ('A' for Active; 'I' for Inactive)
REMARK    1  A    between atoms: C_1  and  C_2
REMARK    2  A    between atoms: C_6  and  C_7
REMARK    3  A    between atoms: C_7  and  C_8
REMARK    4  A    between atoms: C_7  and  C_9
REMARK    5  A    between atoms: C_7  and  C_10
REMARK    6  A    between atoms: C_11  and  N_12
REMARK    7  A    between atoms: C_13  and  C_15
REMARK    8  A    between atoms: C_15  and  C_16
REMARK                            x       y       z     vdW  Elec       q    Type
REMARK                         _______ _______ _______ _____ _____    ______ ____
ROOT
ATOM      1  N   UNL     1      -1.448  11.157  21.772  0.00  0.00    +0.000 N 
ATOM      2  C   UNL     1      -1.132  12.340  22.428  0.00  0.00    +0.000 C 
ATOM      3  O   UNL     1      -0.079  12.961  22.338  0.00  0.00    +0.000 OA
ATOM      4  H   UNL     1      -2.272  10.670  22.079  0.00  0.00    +0.000 HD
ENDROOT
BRANCH   1  11
ATOM      5  C   UNL     1       0.345   9.256  23.090  0.00  0.00    +0.000 C 
ATOM      6  C   UNL     1       0.320   9.492  21.600  0.00  0.00    +0.000 A 
ATOM      7  C   UNL     1       1.256   8.784  20.835  0.00  0.00    +0.000 A 
ATOM      8  C   UNL     1       1.353   8.998  19.473  0.00  0.00    +0.000 A 
ATOM      9  C   UNL     1       0.510   9.919  18.856  0.00  0.00    +0.000 A 
ATOM     10  C   UNL     1      -0.456  10.676  19.567  0.00  0.00    +0.000 A 
ATOM     11  C   UNL     1      -0.559  10.414  20.967  0.00  0.00    +0.000 A 
BRANCH  10  12
ATOM     12  C   UNL     1      -1.399  11.587  18.720  0.00  0.00    +0.000 C 
ATOM     13  C   UNL     1      -1.607  10.909  17.347  0.00  0.00    +0.000 C 
ATOM     14  C   UNL     1      -2.789  11.881  19.324  0.00  0.00    +0.000 C 
ATOM     15  C   UNL     1      -0.792  12.996  18.458  0.00  0.00    +0.000 C 
ENDBRANCH  10  12
ENDBRANCH   1  11
BRANCH   2  16
ATOM     16  C   UNL     1      -2.226  12.788  23.381  0.00  0.00    +0.000 C 
BRANCH  16  17
ATOM     17  C   UNL     1      -2.617  14.259  23.215  0.00  0.00    +0.000 C 
ATOM     18  S   UNL     1      -3.615  14.563  21.714  0.00  0.00    +0.000 S 
ATOM     19  C   UNL     1      -5.065  13.667  22.220  0.00  0.00    +0.000 A 
ATOM     20  C   UNL     1      -5.813  12.990  21.255  0.00  0.00    +0.000 A 
ATOM     21  C   UNL     1      -6.947  12.271  21.630  0.00  0.00    +0.000 A 
ATOM     22  C   UNL     1      -7.354  12.256  22.963  0.00  0.00    +0.000 A 
ATOM     23  C   UNL     1      -6.627  12.956  23.930  0.00  0.00    +0.000 A 
ATOM     24  C   UNL     1      -5.464  13.637  23.566  0.00  0.00    +0.000 A 
ATOM     25  N   UNL     1      -4.710  14.265  24.573  0.00  0.00    +0.000 N 
ATOM     26  C   UNL     1      -3.409  14.696  24.448  0.00  0.00    +0.000 C 
ATOM     27  O   UNL     1      -2.879  15.291  25.387  0.00  0.00    +0.000 OA
ATOM     28  H   UNL     1      -5.131  14.428  25.481  0.00  0.00    +0.000 HD
ENDBRANCH  16  17
ENDBRANCH   2  16
TORSDOF 4
ENDMDL
MODEL 4
REMARK VINA RESULT:      -6.3      3.869      6.233
REMARK  Name = 
REMARK  8 active torsions:
REMARK  status: ('A' for Active; 'I' for Inactive)
REMARK    1  A    between atoms: C_1  and  C_2
REMARK    2  A    between atoms: C_6  and  C_7
REMARK    3  A    between atoms: C_7  and  C_8
REMARK    4  A    between atoms: C_7  and  C_9
REMARK    5  A    between atoms: C_7  and  C_10
REMARK    6  A    between atoms: C_11  and  N_12
REMARK    7  A    between atoms: C_13  and  C_15
REMARK    8  A    between atoms: C_15  and  C_16
REMARK                            x       y       z     vdW  Elec       q    Type
REMARK                         _______ _______ _______ _____ _____    ______ ____
ROOT
ATOM      1  N   UNL     1      -2.050  11.580  20.150  0.00  0.00    +0.000 N 
ATOM      2  C   UNL     1      -2.086  12.966  20.209  0.00  0.00    +0.000 C 
ATOM      3  O   UNL     1      -1.379  13.740  19.572  0.00  0.00    +0.000 OA
ATOM      4  H   UNL     1      -2.559  11.078  20.857  0.00  0.00    +0.000 HD
ENDROOT
BRANCH   1  11
ATOM      5  C   UNL     1       0.643  11.274  21.253  0.00  0.00    +0.000 C 
ATOM      6  C   UNL     1       0.200  10.675  19.942  0.00  0.00    +0.000 A 
ATOM      7  C   UNL     1       1.172   9.982  19.207  0.00  0.00    +0.000 A 
ATOM      8  C   UNL     1       0.872   9.468  17.959  0.00  0.00    +0.000 A 
ATOM      9  C   UNL     1      -0.406   9.634  17.432  0.00  0.00    +0.000 A 
ATOM     10  C   UNL     1      -1.437  10.329  18.115  0.00  0.00    +0.000 A 
ATOM     11  C   UNL     1      -1.112  10.824  19.415  0.00  0.00    +0.000 A 
BRANCH  10  12
ATOM     12  C   UNL     1      -2.846  10.338  17.442  0.00  0.00    +0.000 C 
ATOM     13  C   UNL     1      -3.720   9.286  18.158  0.00  0.00    +0.000 C 
ATOM     14  C   UNL     1      -3.603  11.683  17.461  0.00  0.00    +0.000 C 
ATOM     15  C   UNL     1      -2.791   9.953  15.935  0.00  0.00    +0.000 C 
ENDBRANCH  10  12
ENDBRANCH   1  11
BRANCH   2  16
ATOM     16  C   UNL     1      -3.072  13.480  21.243  0.00  0.00    +0.000 C 
BRANCH  16  17
ATOM     17  C   UNL     1      -2.494  13.549  22.659  0.00  0.00    +0.000 C 
ATOM     18  S   UNL     1      -3.124  14.974  23.614  0.00  0.00    +0.000 S 
ATOM     19  C   UNL     1      -4.814  14.434  23.741  0.00  0.00    +0.000 A 
ATOM     20  C   UNL     1      -5.832  15.389  23.727  0.00  0.00    +0.000 A 
ATOM     21  C   UNL     1      -7.164  14.988  23.812  0.00  0.00    +0.000 A 
ATOM     22  C   UNL     1      -7.478  13.636  23.947  0.00  0.00    +0.000 A 
ATOM     23  C   UNL     1      -6.463  12.678  23.992  0.00  0.00    +0.000 A 
ATOM     24  C   UNL     1      -5.130  13.071  23.858  0.00  0.00    +0.000 A 
ATOM     25  N   UNL     1      -4.136  12.077  23.826  0.00  0.00    +0.000 N 
ATOM     26  C   UNL     1      -2.842  12.253  23.393  0.00  0.00    +0.000 C 
ATOM     27  O   UNL     1      -2.046  11.316  23.475  0.00  0.00    +0.000 OA
ATOM     28  H   UNL     1      -4.359  11.140  24.142  0.00  0.00    +0.000 HD
ENDBRANCH  16  17
ENDBRANCH   2  16
TORSDOF 4
ENDMDL
MODEL 5
REMARK VINA RESULT:      -6.3      4.262      9.056
REMARK  Name = 
REMARK  8 active torsions:
REMARK  status: ('A' for Active; 'I' for Inactive)
REMARK    1  A    between atoms: C_1  and  C_2
REMARK    2  A    between atoms: C_6  and  C_7
REMARK    3  A    between atoms: C_7  and  C_8
REMARK    4  A    between atoms: C_7  and  C_9
REMARK    5  A    between atoms: C_7  and  C_10
REMARK    6  A    between atoms: C_11  and  N_12
REMARK    7  A    between atoms: C_13  and  C_15
REMARK    8  A    between atoms: C_15  and  C_16
REMARK                            x       y       z     vdW  Elec       q    Type
REMARK                         _______ _______ _______ _____ _____    ______ ____
ROOT
ATOM      1  N   UNL     1       1.553   9.869  19.281  0.00  0.00    +0.000 N 
ATOM      2  C   UNL     1       0.897   9.205  18.253  0.00  0.00    +0.000 C 
ATOM      3  O   UNL     1      -0.073   9.614  17.625  0.00  0.00    +0.000 OA
ATOM      4  H   UNL     1       2.214   9.339  19.820  0.00  0.00    +0.000 HD
ENDROOT
BRANCH   1  11
ATOM      5  C   UNL     1       2.198  12.341  17.854  0.00  0.00    +0.000 C 
ATOM      6  C   UNL     1       1.452  12.299  19.164  0.00  0.00    +0.000 A 
ATOM      7  C   UNL     1       1.108  13.533  19.732  0.00  0.00    +0.000 A 
ATOM      8  C   UNL     1       0.491  13.588  20.968  0.00  0.00    +0.000 A 
ATOM      9  C   UNL     1       0.205  12.408  21.651  0.00  0.00    +0.000 A 
ATOM     10  C   UNL     1       0.530  11.125  21.141  0.00  0.00    +0.000 A 
ATOM     11  C   UNL     1       1.138  11.093  19.849  0.00  0.00    +0.000 A 
BRANCH  10  12
ATOM     12  C   UNL     1       0.049   9.894  21.973  0.00  0.00    +0.000 C 
ATOM     13  C   UNL     1      -0.896  10.411  23.081  0.00  0.00    +0.000 C 
ATOM     14  C   UNL     1      -0.691   8.788  21.190  0.00  0.00    +0.000 C 
ATOM     15  C   UNL     1       1.223   9.147  22.670  0.00  0.00    +0.000 C 
ENDBRANCH  10  12
ENDBRANCH   1  11
BRANCH   2  16
ATOM     16  C   UNL     1       1.461   7.817  18.004  0.00  0.00    +0.000 C 
BRANCH  16  17
ATOM     17  C   UNL     1       2.777   7.549  18.738  0.00  0.00    +0.000 C 
ATOM     18  S   UNL     1       2.545   6.612  20.290  0.00  0.00    +0.000 S 
ATOM     19  C   UNL     1       2.011   5.083  19.555  0.00  0.00    +0.000 A 
ATOM     20  C   UNL     1       1.067   4.304  20.225  0.00  0.00    +0.000 A 
ATOM     21  C   UNL     1       0.624   3.108  19.662  0.00  0.00    +0.000 A 
ATOM     22  C   UNL     1       1.151   2.673  18.446  0.00  0.00    +0.000 A 
ATOM     23  C   UNL     1       2.118   3.432  17.785  0.00  0.00    +0.000 A 
ATOM     24  C   UNL     1       2.528   4.655  18.322  0.00  0.00    +0.000 A 
ATOM     25  N   UNL     1       3.443   5.435  17.594  0.00  0.00    +0.000 N 
ATOM     26  C   UNL     1       3.707   6.769  17.807  0.00  0.00    +0.000 C 
ATOM     27  O   UNL     1       4.580   7.326  17.141  0.00  0.00    +0.000 OA
ATOM     28  H   UNL     1       3.971   5.010  16.840  0.00  0.00    +0.000 HD
ENDBRANCH  16  17
ENDBRANCH   2  16
TORSDOF 4
ENDMDL
MODEL 6
REMARK VINA RESULT:      -6.3      4.088      5.777
REMARK  Name = 
REMARK  8 active torsions:
REMARK  status: ('A' for Active; 'I' for Inactive)
REMARK    1  A    between atoms: C_1  and  C_2
REMARK    2  A    between atoms: C_6  and  C_7
REMARK    3  A    between atoms: C_7  and  C_8
REMARK    4  A    between atoms: C_7  and  C_9
REMARK    5  A    between atoms: C_7  and  C_10
REMARK    6  A    between atoms: C_11  and  N_12
REMARK    7  A    between atoms: C_13  and  C_15
REMARK    8  A    between atoms: C_15  and  C_16
REMARK                            x       y       z     vdW  Elec       q    Type
REMARK                         _______ _______ _______ _____ _____    ______ ____
ROOT
ATOM      1  N   UNL     1      -1.977  12.968  19.049  0.00  0.00    +0.000 N 
ATOM      2  C   UNL     1      -2.782  12.756  20.161  0.00  0.00    +0.000 C 
ATOM      3  O   UNL     1      -2.414  12.734  21.330  0.00  0.00    +0.000 OA
ATOM      4  H   UNL     1      -2.383  12.780  18.149  0.00  0.00    +0.000 HD
ENDROOT
BRANCH   1  11
ATOM      5  C   UNL     1      -0.831  15.631  19.445  0.00  0.00    +0.000 C 
ATOM      6  C   UNL     1      -0.006  14.381  19.264  0.00  0.00    +0.000 A 
ATOM      7  C   UNL     1       1.385  14.543  19.236  0.00  0.00    +0.000 A 
ATOM      8  C   UNL     1       2.212  13.461  18.998  0.00  0.00    +0.000 A 
ATOM      9  C   UNL     1       1.658  12.200  18.790  0.00  0.00    +0.000 A 
ATOM     10  C   UNL     1       0.260  11.962  18.798  0.00  0.00    +0.000 A 
ATOM     11  C   UNL     1      -0.572  13.089  19.077  0.00  0.00    +0.000 A 
BRANCH  10  12
ATOM     12  C   UNL     1      -0.202  10.477  18.658  0.00  0.00    +0.000 C 
ATOM     13  C   UNL     1      -0.520   9.944  20.073  0.00  0.00    +0.000 C 
ATOM     14  C   UNL     1      -1.436  10.227  17.764  0.00  0.00    +0.000 C 
ATOM     15  C   UNL     1       0.901   9.562  18.050  0.00  0.00    +0.000 C 
ENDBRANCH  10  12
ENDBRANCH   1  11
BRANCH   2  16
ATOM     16  C   UNL     1      -4.223  12.458  19.789  0.00  0.00    +0.000 C 
BRANCH  16  17
ATOM     17  C   UNL     1      -5.225  12.804  20.894  0.00  0.00    +0.000 C 
ATOM     18  S   UNL     1      -5.591  14.591  20.986  0.00  0.00    +0.000 S 
ATOM     19  C   UNL     1      -6.432  14.732  19.425  0.00  0.00    +0.000 A 
ATOM     20  C   UNL     1      -6.298  15.909  18.688  0.00  0.00    +0.000 A 
ATOM     21  C   UNL     1      -6.938  16.037  17.456  0.00  0.00    +0.000 A 
ATOM     22  C   UNL     1      -7.741  15.002  16.977  0.00  0.00    +0.000 A 
ATOM     23  C   UNL     1      -7.904  13.833  17.723  0.00  0.00    +0.000 A 
ATOM     24  C   UNL     1      -7.225  13.682  18.935  0.00  0.00    +0.000 A 
ATOM     25  N   UNL     1      -7.345  12.463  19.624  0.00  0.00    +0.000 N 
ATOM     26  C   UNL     1      -6.521  12.032  20.639  0.00  0.00    +0.000 C 
ATOM     27  O   UNL     1      -6.770  10.969  21.208  0.00  0.00    +0.000 OA
ATOM     28  H   UNL     1      -8.092  11.823  19.378  0.00  0.00    +0.000 HD
ENDBRANCH  16  17
ENDBRANCH   2  16
TORSDOF 4
ENDMDL
MODEL 7
REMARK VINA RESULT:      -6.3      3.466      5.677
REMARK  Name = 
REMARK  8 active torsions:
REMARK  status: ('A' for Active; 'I' for Inactive)
REMARK    1  A    between atoms: C_1  and  C_2
REMARK    2  A    between atoms: C_6  and  C_7
REMARK    3  A    between atoms: C_7  and  C_8
REMARK    4  A    between atoms: C_7  and  C_9
REMARK    5  A    between atoms: C_7  and  C_10
REMARK    6  A    between atoms: C_11  and  N_12
REMARK    7  A    between atoms: C_13  and  C_15
REMARK    8  A    between atoms: C_15  and  C_16
REMARK                            x       y       z     vdW  Elec       q    Type
REMARK                         _______ _______ _______ _____ _____    ______ ____
ROOT
ATOM      1  N   UNL     1      -0.989  11.158  21.431  0.00  0.00    +0.000 N 
ATOM      2  C   UNL     1      -0.534  12.312  22.055  0.00  0.00    +0.000 C 
ATOM      3  O   UNL     1       0.511  12.906  21.813  0.00  0.00    +0.000 OA
ATOM      4  H   UNL     1      -1.769  10.687  21.854  0.00  0.00    +0.000 HD
ENDROOT
BRANCH   1  11
ATOM      5  C   UNL     1       0.929   9.171  22.400  0.00  0.00    +0.000 C 
ATOM      6  C   UNL     1       0.674   9.450  20.939  0.00  0.00    +0.000 A 
ATOM      7  C   UNL     1       1.454   8.737  20.018  0.00  0.00    +0.000 A 
ATOM      8  C   UNL     1       1.340   8.987  18.663  0.00  0.00    +0.000 A 
ATOM      9  C   UNL     1       0.439   9.948  18.210  0.00  0.00    +0.000 A 
ATOM     10  C   UNL     1      -0.376  10.711  19.084  0.00  0.00    +0.000 A 
ATOM     11  C   UNL     1      -0.263  10.413  20.477  0.00  0.00    +0.000 A 
BRANCH  10  12
ATOM     12  C   UNL     1      -1.412  11.673  18.421  0.00  0.00    +0.000 C 
ATOM     13  C   UNL     1      -0.764  13.071  18.318  0.00  0.00    +0.000 C 
ATOM     14  C   UNL     1      -1.914  11.273  17.016  0.00  0.00    +0.000 C 
ATOM     15  C   UNL     1      -2.714  11.822  19.262  0.00  0.00    +0.000 C 
ENDBRANCH  10  12
ENDBRANCH   1  11
BRANCH   2  16
ATOM     16  C   UNL     1      -1.447  12.764  23.181  0.00  0.00    +0.000 C 
BRANCH  16  17
ATOM     17  C   UNL     1      -1.704  14.273  23.193  0.00  0.00    +0.000 C 
ATOM     18  S   UNL     1      -2.732  14.829  21.788  0.00  0.00    +0.000 S 
ATOM     19  C   UNL     1      -4.238  14.017  22.272  0.00  0.00    +0.000 A 
ATOM     20  C   UNL     1      -5.088  13.520  21.282  0.00  0.00    +0.000 A 
ATOM     21  C   UNL     1      -6.267  12.869  21.639  0.00  0.00    +0.000 A 
ATOM     22  C   UNL     1      -6.615  12.744  22.983  0.00  0.00    +0.000 A 
ATOM     23  C   UNL     1      -5.785  13.264  23.978  0.00  0.00    +0.000 A 
ATOM     24  C   UNL     1      -4.579  13.874  23.627  0.00  0.00    +0.000 A 
ATOM     25  N   UNL     1      -3.726  14.317  24.653  0.00  0.00    +0.000 N 
ATOM     26  C   UNL     1      -2.397  14.641  24.506  0.00  0.00    +0.000 C 
ATOM     27  O   UNL     1      -1.772  15.079  25.472  0.00  0.00    +0.000 OA
ATOM     28  H   UNL     1      -4.090  14.416  25.594  0.00  0.00    +0.000 HD
ENDBRANCH  16  17
ENDBRANCH   2  16
TORSDOF 4
ENDMDL
MODEL 8
REMARK VINA RESULT:      -6.2      3.357      5.298
REMARK  Name = 
REMARK  8 active torsions:
REMARK  status: ('A' for Active; 'I' for Inactive)
REMARK    1  A    between atoms: C_1  and  C_2
REMARK    2  A    between atoms: C_6  and  C_7
REMARK    3  A    between atoms: C_7  and  C_8
REMARK    4  A    between atoms: C_7  and  C_9
REMARK    5  A    between atoms: C_7  and  C_10
REMARK    6  A    between atoms: C_11  and  N_12
REMARK    7  A    between atoms: C_13  and  C_15
REMARK    8  A    between atoms: C_15  and  C_16
REMARK                            x       y       z     vdW  Elec       q    Type
REMARK                         _______ _______ _______ _____ _____    ______ ____
ROOT
ATOM      1  N   UNL     1      -2.833  12.578  18.821  0.00  0.00    +0.000 N 
ATOM      2  C   UNL     1      -1.670  11.824  18.904  0.00  0.00    +0.000 C 
ATOM      3  O   UNL     1      -1.596  10.626  19.152  0.00  0.00    +0.000 OA
ATOM      4  H   UNL     1      -2.729  13.577  18.789  0.00  0.00    +0.000 HD
ENDROOT
BRANCH   1  11
ATOM      5  C   UNL     1      -4.267  11.101  16.740  0.00  0.00    +0.000 C 
ATOM      6  C   UNL     1      -4.835  11.389  18.108  0.00  0.00    +0.000 A 
ATOM      7  C   UNL     1      -6.146  10.957  18.349  0.00  0.00    +0.000 A 
ATOM      8  C   UNL     1      -6.770  11.247  19.548  0.00  0.00    +0.000 A 
ATOM      9  C   UNL     1      -6.088  11.967  20.526  0.00  0.00    +0.000 A 
ATOM     10  C   UNL     1      -4.763  12.442  20.349  0.00  0.00    +0.000 A 
ATOM     11  C   UNL     1      -4.129  12.103  19.115  0.00  0.00    +0.000 A 
BRANCH  10  12
ATOM     12  C   UNL     1      -4.096  13.139  21.577  0.00  0.00    +0.000 C 
ATOM     13  C   UNL     1      -5.167  13.284  22.681  0.00  0.00    +0.000 C 
ATOM     14  C   UNL     1      -2.872  12.423  22.188  0.00  0.00    +0.000 C 
ATOM     15  C   UNL     1      -3.574  14.567  21.242  0.00  0.00    +0.000 C 
ENDBRANCH  10  12
ENDBRANCH   1  11
BRANCH   2  16
ATOM     16  C   UNL     1      -0.417  12.665  18.731  0.00  0.00    +0.000 C 
BRANCH  16  17
ATOM     17  C   UNL     1       0.849  11.995  19.269  0.00  0.00    +0.000 C 
ATOM     18  S   UNL     1       2.343  12.424  18.308  0.00  0.00    +0.000 S 
ATOM     19  C   UNL     1       2.409  14.146  18.747  0.00  0.00    +0.000 A 
ATOM     20  C   UNL     1       2.869  15.068  17.805  0.00  0.00    +0.000 A 
ATOM     21  C   UNL     1       2.918  16.424  18.123  0.00  0.00    +0.000 A 
ATOM     22  C   UNL     1       2.541  16.856  19.394  0.00  0.00    +0.000 A 
ATOM     23  C   UNL     1       2.108  15.936  20.352  0.00  0.00    +0.000 A 
ATOM     24  C   UNL     1       2.012  14.583  20.021  0.00  0.00    +0.000 A 
ATOM     25  N   UNL     1       1.497  13.692  20.979  0.00  0.00    +0.000 N 
ATOM     26  C   UNL     1       1.045  12.417  20.727  0.00  0.00    +0.000 C 
ATOM     27  O   UNL     1       0.676  11.711  21.665  0.00  0.00    +0.000 OA
ATOM     28  H   UNL     1       1.439  13.983  21.949  0.00  0.00    +0.000 HD
ENDBRANCH  16  17
ENDBRANCH   2  16
TORSDOF 4
ENDMDL
MODEL 9
REMARK VINA RESULT:      -6.2      3.507      5.693
REMARK  Name = 
REMARK  8 active torsions:
REMARK  status: ('A' for Active; 'I' for Inactive)
REMARK    1  A    between atoms: C_1  and  C_2
REMARK    2  A    between atoms: C_6  and  C_7
REMARK    3  A    between atoms: C_7  and  C_8
REMARK    4  A    between atoms: C_7  and  C_9
REMARK    5  A    between atoms: C_7  and  C_10
REMARK    6  A    between atoms: C_11  and  N_12
REMARK    7  A    between atoms: C_13  and  C_15
REMARK    8  A    between atoms: C_15  and  C_16
REMARK                            x       y       z     vdW  Elec       q    Type
REMARK                         _______ _______ _______ _____ _____    ______ ____
ROOT
ATOM      1  N   UNL     1      -1.728  11.980  20.172  0.00  0.00    +0.000 N 
ATOM      2  C   UNL     1      -1.191  13.255  20.290  0.00  0.00    +0.000 C 
ATOM      3  O   UNL     1      -0.966  14.037  19.374  0.00  0.00    +0.000 OA
ATOM      4  H   UNL     1      -1.689  11.390  20.984  0.00  0.00    +0.000 HD
ENDROOT
BRANCH   1  11
ATOM      5  C   UNL     1      -4.407  12.277  19.030  0.00  0.00    +0.000 C 
ATOM      6  C   UNL     1      -3.308  11.464  18.393  0.00  0.00    +0.000 A 
ATOM      7  C   UNL     1      -3.634  10.780  17.214  0.00  0.00    +0.000 A 
ATOM      8  C   UNL     1      -2.710   9.951  16.606  0.00  0.00    +0.000 A 
ATOM      9  C   UNL     1      -1.444   9.799  17.166  0.00  0.00    +0.000 A 
ATOM     10  C   UNL     1      -1.046  10.453  18.360  0.00  0.00    +0.000 A 
ATOM     11  C   UNL     1      -2.007  11.329  18.952  0.00  0.00    +0.000 A 
BRANCH  10  12
ATOM     12  C   UNL     1       0.439  10.268  18.803  0.00  0.00    +0.000 C 
ATOM     13  C   UNL     1       0.441   9.814  20.280  0.00  0.00    +0.000 C 
ATOM     14  C   UNL     1       1.274   9.255  17.990  0.00  0.00    +0.000 C 
ATOM     15  C   UNL     1       1.258  11.590  18.719  0.00  0.00    +0.000 C 
ENDBRANCH  10  12
ENDBRANCH   1  11
BRANCH   2  16
ATOM     16  C   UNL     1      -0.810  13.597  21.720  0.00  0.00    +0.000 C 
BRANCH  16  17
ATOM     17  C   UNL     1      -1.194  15.020  22.133  0.00  0.00    +0.000 C 
ATOM     18  S   UNL     1      -2.905  15.458  21.667  0.00  0.00    +0.000 S 
ATOM     19  C   UNL     1      -3.735  14.330  22.763  0.00  0.00    +0.000 A 
ATOM     20  C   UNL     1      -4.934  13.745  22.352  0.00  0.00    +0.000 A 
ATOM     21  C   UNL     1      -5.596  12.849  23.190  0.00  0.00    +0.000 A 
ATOM     22  C   UNL     1      -5.078  12.564  24.453  0.00  0.00    +0.000 A 
ATOM     23  C   UNL     1      -3.895  13.168  24.883  0.00  0.00    +0.000 A 
ATOM     24  C   UNL     1      -3.204  14.028  24.028  0.00  0.00    +0.000 A 
ATOM     25  N   UNL     1      -1.975  14.558  24.457  0.00  0.00    +0.000 N 
ATOM     26  C   UNL     1      -1.031  15.150  23.649  0.00  0.00    +0.000 C 
ATOM     27  O   UNL     1      -0.019  15.634  24.157  0.00  0.00    +0.000 OA
ATOM     28  H   UNL     1      -1.731  14.517  25.441  0.00  0.00    +0.000 HD
ENDBRANCH  16  17
ENDBRANCH   2  16
TORSDOF 4
ENDMDL
