MODEL 1
REMARK VINA RESULT:      -6.5      0.000      0.000
REMARK  Name = 
REMARK  4 active torsions:
REMARK  status: ('A' for Active; 'I' for Inactive)
REMARK    1  A    between atoms: C_1  and  C_2
REMARK    2  A    between atoms: C_5  and  O_6
REMARK    3  A    between atoms: O_6  and  C_7
REMARK    4  A    between atoms: N_10  and  C_11
REMARK                            x       y       z     vdW  Elec       q    Type
REMARK                         _______ _______ _______ _____ _____    ______ ____
ROOT
ATOM      1  O   UNL     1       3.600   3.603  16.830  0.00  0.00    +0.000 OA
ENDROOT
BRANCH   1   6
ATOM      2  C   UNL     1       1.269   2.565  21.910  0.00  0.00    +0.000 C 
ATOM      3  C   UNL     1       1.879   2.852  20.568  0.00  0.00    +0.000 A 
ATOM      4  C   UNL     1       3.245   2.634  20.332  0.00  0.00    +0.000 A 
ATOM      5  C   UNL     1       3.795   2.896  19.072  0.00  0.00    +0.000 A 
ATOM      6  C   UNL     1       2.986   3.380  18.045  0.00  0.00    +0.000 A 
ATOM      7  C   UNL     1       1.638   3.655  18.294  0.00  0.00    +0.000 A 
ATOM      8  C   UNL     1       1.082   3.364  19.541  0.00  0.00    +0.000 A 
ENDBRANCH   1   6
BRANCH   1   9
ATOM      9  C   UNL     1       4.639   4.518  16.718  0.00  0.00    +0.000 C 
ATOM     10  C   UNL     1       5.891   4.231  16.333  0.00  0.00    +0.000 C 
ATOM     11  C   UNL     1       6.977   5.236  16.158  0.00  0.00    +0.000 C 
ATOM     12  N   UNL     1       6.678   6.620  16.494  0.00  0.00    +0.000 NA
ATOM     13  C   UNL     1       7.568   7.169  17.500  0.00  0.00    +0.000 C 
ATOM     14  C   UNL     1       5.273   6.988  16.652  0.00  0.00    +0.000 C 
ATOM     15  C   UNL     1       4.283   5.914  17.134  0.00  0.00    +0.000 C 
ENDBRANCH   1   9
TORSDOF 2
ENDMDL
MODEL 2
REMARK VINA RESULT:      -6.5      2.089      5.775
REMARK  Name = 
REMARK  4 active torsions:
REMARK  status: ('A' for Active; 'I' for Inactive)
REMARK    1  A    between atoms: C_1  and  C_2
REMARK    2  A    between atoms: C_5  and  O_6
REMARK    3  A    between atoms: O_6  and  C_7
REMARK    4  A    between atoms: N_10  and  C_11
REMARK                            x       y       z     vdW  Elec       q    Type
REMARK                         _______ _______ _______ _____ _____    ______ ____
ROOT
ATOM      1  O   UNL     1       4.693   3.626  16.838  0.00  0.00    +0.000 OA
ENDROOT
BRANCH   1   6
ATOM      2  C   UNL     1       7.906   8.238  17.694  0.00  0.00    +0.000 C 
ATOM      3  C   UNL     1       7.054   7.024  17.455  0.00  0.00    +0.000 A 
ATOM      4  C   UNL     1       7.561   5.731  17.657  0.00  0.00    +0.000 A 
ATOM      5  C   UNL     1       6.750   4.612  17.440  0.00  0.00    +0.000 A 
ATOM      6  C   UNL     1       5.431   4.777  17.018  0.00  0.00    +0.000 A 
ATOM      7  C   UNL     1       4.942   6.060  16.758  0.00  0.00    +0.000 A 
ATOM      8  C   UNL     1       5.740   7.178  17.005  0.00  0.00    +0.000 A 
ENDBRANCH   1   6
BRANCH   1   9
ATOM      9  C   UNL     1       3.766   3.222  17.789  0.00  0.00    +0.000 C 
ATOM     10  C   UNL     1       2.504   2.845  17.535  0.00  0.00    +0.000 C 
ATOM     11  C   UNL     1       1.542   2.354  18.562  0.00  0.00    +0.000 C 
ATOM     12  N   UNL     1       1.979   2.347  19.950  0.00  0.00    +0.000 NA
ATOM     13  C   UNL     1       1.119   3.124  20.824  0.00  0.00    +0.000 C 
ATOM     14  C   UNL     1       3.409   2.494  20.208  0.00  0.00    +0.000 C 
ATOM     15  C   UNL     1       4.258   3.292  19.204  0.00  0.00    +0.000 C 
ENDBRANCH   1   9
TORSDOF 2
ENDMDL
MODEL 3
REMARK VINA RESULT:      -6.5      0.103      1.249
REMARK  Name = 
REMARK  4 active torsions:
REMARK  status: ('A' for Active; 'I' for Inactive)
REMARK    1  A    between atoms: C_1  and  C_2
REMARK    2  A    between atoms: C_5  and  O_6
REMARK    3  A    between atoms: O_6  and  C_7
REMARK    4  A    between atoms: N_10  and  C_11
REMARK                            x       y       z     vdW  Elec       q    Type
REMARK                         _______ _______ _______ _____ _____    ______ ____
ROOT
ATOM      1  O   UNL     1       3.558   3.605  16.880  0.00  0.00    +0.000 OA
ENDROOT
BRANCH   1   6
ATOM      2  C   UNL     1       1.251   2.527  21.963  0.00  0.00    +0.000 C 
ATOM      3  C   UNL     1       1.867   2.799  20.620  0.00  0.00    +0.000 A 
ATOM      4  C   UNL     1       1.081   3.204  19.531  0.00  0.00    +0.000 A 
ATOM      5  C   UNL     1       1.672   3.464  18.290  0.00  0.00    +0.000 A 
ATOM      6  C   UNL     1       3.050   3.319  18.129  0.00  0.00    +0.000 A 
ATOM      7  C   UNL     1       3.827   2.859  19.195  0.00  0.00    +0.000 A 
ATOM      8  C   UNL     1       3.243   2.630  20.442  0.00  0.00    +0.000 A 
ENDBRANCH   1   6
BRANCH   1   9
ATOM      9  C   UNL     1       4.599   4.512  16.728  0.00  0.00    +0.000 C 
ATOM     10  C   UNL     1       5.832   4.216  16.291  0.00  0.00    +0.000 C 
ATOM     11  C   UNL     1       6.918   5.213  16.075  0.00  0.00    +0.000 C 
ATOM     12  N   UNL     1       6.645   6.598  16.428  0.00  0.00    +0.000 NA
ATOM     13  C   UNL     1       7.581   7.136  17.399  0.00  0.00    +0.000 C 
ATOM     14  C   UNL     1       5.251   6.977  16.646  0.00  0.00    +0.000 C 
ATOM     15  C   UNL     1       4.272   5.909  17.164  0.00  0.00    +0.000 C 
ENDBRANCH   1   9
TORSDOF 2
ENDMDL
MODEL 4
REMARK VINA RESULT:      -6.5      2.091      5.895
REMARK  Name = 
REMARK  4 active torsions:
REMARK  status: ('A' for Active; 'I' for Inactive)
REMARK    1  A    between atoms: C_1  and  C_2
REMARK    2  A    between atoms: C_5  and  O_6
REMARK    3  A    between atoms: O_6  and  C_7
REMARK    4  A    between atoms: N_10  and  C_11
REMARK                            x       y       z     vdW  Elec       q    Type
REMARK                         _______ _______ _______ _____ _____    ______ ____
ROOT
ATOM      1  O   UNL     1       4.588   3.618  16.792  0.00  0.00    +0.000 OA
ENDROOT
BRANCH   1   6
ATOM      2  C   UNL     1       7.856   8.196  17.618  0.00  0.00    +0.000 C 
ATOM      3  C   UNL     1       6.995   6.982  17.412  0.00  0.00    +0.000 A 
ATOM      4  C   UNL     1       5.655   7.102  17.017  0.00  0.00    +0.000 A 
ATOM      5  C   UNL     1       4.871   5.960  16.819  0.00  0.00    +0.000 A 
ATOM      6  C   UNL     1       5.420   4.694  17.018  0.00  0.00    +0.000 A 
ATOM      7  C   UNL     1       6.737   4.572  17.470  0.00  0.00    +0.000 A 
ATOM      8  C   UNL     1       7.529   5.710  17.636  0.00  0.00    +0.000 A 
ENDBRANCH   1   6
BRANCH   1   9
ATOM      9  C   UNL     1       3.679   3.209  17.760  0.00  0.00    +0.000 C 
ATOM     10  C   UNL     1       2.402   2.870  17.535  0.00  0.00    +0.000 C 
ATOM     11  C   UNL     1       1.459   2.372  18.577  0.00  0.00    +0.000 C 
ATOM     12  N   UNL     1       1.937   2.314  19.950  0.00  0.00    +0.000 NA
ATOM     13  C   UNL     1       1.124   3.086  20.871  0.00  0.00    +0.000 C 
ATOM     14  C   UNL     1       3.378   2.421  20.167  0.00  0.00    +0.000 C 
ATOM     15  C   UNL     1       4.216   3.227  19.161  0.00  0.00    +0.000 C 
ENDBRANCH   1   9
TORSDOF 2
ENDMDL
MODEL 5
REMARK VINA RESULT:      -6.4      2.212      5.863
REMARK  Name = 
REMARK  4 active torsions:
REMARK  status: ('A' for Active; 'I' for Inactive)
REMARK    1  A    between atoms: C_1  and  C_2
REMARK    2  A    between atoms: C_5  and  O_6
REMARK    3  A    between atoms: O_6  and  C_7
REMARK    4  A    between atoms: N_10  and  C_11
REMARK                            x       y       z     vdW  Elec       q    Type
REMARK                         _______ _______ _______ _____ _____    ______ ____
ROOT
ATOM      1  O   UNL     1       4.404   3.761  17.129  0.00  0.00    +0.000 OA
ENDROOT
BRANCH   1   6
ATOM      2  C   UNL     1       8.028   8.095  17.761  0.00  0.00    +0.000 C 
ATOM      3  C   UNL     1       7.072   6.951  17.580  0.00  0.00    +0.000 A 
ATOM      4  C   UNL     1       7.287   5.719  18.215  0.00  0.00    +0.000 A 
ATOM      5  C   UNL     1       6.380   4.667  18.045  0.00  0.00    +0.000 A 
ATOM      6  C   UNL     1       5.256   4.840  17.238  0.00  0.00    +0.000 A 
ATOM      7  C   UNL     1       5.070   6.045  16.555  0.00  0.00    +0.000 A 
ATOM      8  C   UNL     1       5.958   7.105  16.751  0.00  0.00    +0.000 A 
ENDBRANCH   1   6
BRANCH   1   9
ATOM      9  C   UNL     1       3.400   3.552  18.066  0.00  0.00    +0.000 C 
ATOM     10  C   UNL     1       2.627   4.507  18.603  0.00  0.00    +0.000 C 
ATOM     11  C   UNL     1       1.512   4.257  19.561  0.00  0.00    +0.000 C 
ATOM     12  N   UNL     1       1.289   2.887  19.997  0.00  0.00    +0.000 NA
ATOM     13  C   UNL     1       1.358   2.728  21.438  0.00  0.00    +0.000 C 
ATOM     14  C   UNL     1       1.933   1.822  19.232  0.00  0.00    +0.000 C 
ATOM     15  C   UNL     1       3.260   2.129  18.518  0.00  0.00    +0.000 C 
ENDBRANCH   1   9
TORSDOF 2
ENDMDL
MODEL 6
REMARK VINA RESULT:      -6.4      2.244      6.000
REMARK  Name = 
REMARK  4 active torsions:
REMARK  status: ('A' for Active; 'I' for Inactive)
REMARK    1  A    between atoms: C_1  and  C_2
REMARK    2  A    between atoms: C_5  and  O_6
REMARK    3  A    between atoms: O_6  and  C_7
REMARK    4  A    between atoms: N_10  and  C_11
REMARK                            x       y       z     vdW  Elec       q    Type
REMARK                         _______ _______ _______ _____ _____    ______ ____
ROOT
ATOM      1  O   UNL     1       4.311   3.817  17.226  0.00  0.00    +0.000 OA
ENDROOT
BRANCH   1   6
ATOM      2  C   UNL     1       7.997   8.123  17.668  0.00  0.00    +0.000 C 
ATOM      3  C   UNL     1       7.022   6.984  17.566  0.00  0.00    +0.000 A 
ATOM      4  C   UNL     1       5.856   7.095  16.793  0.00  0.00    +0.000 A 
ATOM      5  C   UNL     1       4.965   6.021  16.700  0.00  0.00    +0.000 A 
ATOM      6  C   UNL     1       5.231   4.832  17.378  0.00  0.00    +0.000 A 
ATOM      7  C   UNL     1       6.361   4.739  18.196  0.00  0.00    +0.000 A 
ATOM      8  C   UNL     1       7.266   5.799  18.265  0.00  0.00    +0.000 A 
ENDBRANCH   1   6
BRANCH   1   9
ATOM      9  C   UNL     1       3.330   3.599  18.186  0.00  0.00    +0.000 C 
ATOM     10  C   UNL     1       2.627   4.555  18.810  0.00  0.00    +0.000 C 
ATOM     11  C   UNL     1       1.534   4.300  19.791  0.00  0.00    +0.000 C 
ATOM     12  N   UNL     1       1.254   2.918  20.149  0.00  0.00    +0.000 NA
ATOM     13  C   UNL     1       1.364   2.663  21.574  0.00  0.00    +0.000 C 
ATOM     14  C   UNL     1       1.815   1.873  19.295  0.00  0.00    +0.000 C 
ATOM     15  C   UNL     1       3.131   2.158  18.553  0.00  0.00    +0.000 C 
ENDBRANCH   1   9
TORSDOF 2
ENDMDL
MODEL 7
REMARK VINA RESULT:      -6.3      2.408      6.111
REMARK  Name = 
REMARK  4 active torsions:
REMARK  status: ('A' for Active; 'I' for Inactive)
REMARK    1  A    between atoms: C_1  and  C_2
REMARK    2  A    between atoms: C_5  and  O_6
REMARK    3  A    between atoms: O_6  and  C_7
REMARK    4  A    between atoms: N_10  and  C_11
REMARK                            x       y       z     vdW  Elec       q    Type
REMARK                         _______ _______ _______ _____ _____    ______ ____
ROOT
ATOM      1  O   UNL     1       5.779   3.813  18.601  0.00  0.00    +0.000 OA
ENDROOT
BRANCH   1   6
ATOM      2  C   UNL     1       8.159   8.885  17.633  0.00  0.00    +0.000 C 
ATOM      3  C   UNL     1       7.531   7.542  17.875  0.00  0.00    +0.000 A 
ATOM      4  C   UNL     1       8.057   6.656  18.827  0.00  0.00    +0.000 A 
ATOM      5  C   UNL     1       7.452   5.414  19.048  0.00  0.00    +0.000 A 
ATOM      6  C   UNL     1       6.322   5.048  18.317  0.00  0.00    +0.000 A 
ATOM      7  C   UNL     1       5.831   5.902  17.326  0.00  0.00    +0.000 A 
ATOM      8  C   UNL     1       6.415   7.155  17.127  0.00  0.00    +0.000 A 
ENDBRANCH   1   6
BRANCH   1   9
ATOM      9  C   UNL     1       4.511   3.708  19.158  0.00  0.00    +0.000 C 
ATOM     10  C   UNL     1       3.847   4.695  19.777  0.00  0.00    +0.000 C 
ATOM     11  C   UNL     1       2.462   4.581  20.314  0.00  0.00    +0.000 C 
ATOM     12  N   UNL     1       1.805   3.285  20.223  0.00  0.00    +0.000 NA
ATOM     13  C   UNL     1       1.378   2.769  21.510  0.00  0.00    +0.000 C 
ATOM     14  C   UNL     1       2.396   2.291  19.329  0.00  0.00    +0.000 C 
ATOM     15  C   UNL     1       3.914   2.333  19.084  0.00  0.00    +0.000 C 
ENDBRANCH   1   9
TORSDOF 2
ENDMDL
MODEL 8
REMARK VINA RESULT:      -6.3      2.516      6.130
REMARK  Name = 
REMARK  4 active torsions:
REMARK  status: ('A' for Active; 'I' for Inactive)
REMARK    1  A    between atoms: C_1  and  C_2
REMARK    2  A    between atoms: C_5  and  O_6
REMARK    3  A    between atoms: O_6  and  C_7
REMARK    4  A    between atoms: N_10  and  C_11
REMARK                            x       y       z     vdW  Elec       q    Type
REMARK                         _______ _______ _______ _____ _____    ______ ____
ROOT
ATOM      1  O   UNL     1       4.970   5.714  19.074  0.00  0.00    +0.000 OA
ENDROOT
BRANCH   1   6
ATOM      2  C   UNL     1       7.031   4.749  13.865  0.00  0.00    +0.000 C 
ATOM      3  C   UNL     1       6.499   5.009  15.245  0.00  0.00    +0.000 A 
ATOM      4  C   UNL     1       5.328   5.757  15.442  0.00  0.00    +0.000 A 
ATOM      5  C   UNL     1       4.840   5.979  16.734  0.00  0.00    +0.000 A 
ATOM      6  C   UNL     1       5.520   5.461  17.836  0.00  0.00    +0.000 A 
ATOM      7  C   UNL     1       6.719   4.767  17.647  0.00  0.00    +0.000 A 
ATOM      8  C   UNL     1       7.189   4.518  16.357  0.00  0.00    +0.000 A 
ENDBRANCH   1   6
BRANCH   1   9
ATOM      9  C   UNL     1       3.871   4.992  19.524  0.00  0.00    +0.000 C 
ATOM     10  C   UNL     1       2.737   5.520  20.007  0.00  0.00    +0.000 C 
ATOM     11  C   UNL     1       1.545   4.731  20.427  0.00  0.00    +0.000 C 
ATOM     12  N   UNL     1       1.640   3.280  20.373  0.00  0.00    +0.000 NA
ATOM     13  C   UNL     1       1.386   2.643  21.652  0.00  0.00    +0.000 C 
ATOM     14  C   UNL     1       2.746   2.704  19.611  0.00  0.00    +0.000 C 
ATOM     15  C   UNL     1       4.055   3.504  19.498  0.00  0.00    +0.000 C 
ENDBRANCH   1   9
TORSDOF 2
ENDMDL
MODEL 9
REMARK VINA RESULT:      -6.2      2.502      6.029
REMARK  Name = 
REMARK  4 active torsions:
REMARK  status: ('A' for Active; 'I' for Inactive)
REMARK    1  A    between atoms: C_1  and  C_2
REMARK    2  A    between atoms: C_5  and  O_6
REMARK    3  A    between atoms: O_6  and  C_7
REMARK    4  A    between atoms: N_10  and  C_11
REMARK                            x       y       z     vdW  Elec       q    Type
REMARK                         _______ _______ _______ _____ _____    ______ ____
ROOT
ATOM      1  O   UNL     1       5.211   5.462  19.061  0.00  0.00    +0.000 OA
ENDROOT
BRANCH   1   6
ATOM      2  C   UNL     1       7.147   4.840  13.753  0.00  0.00    +0.000 C 
ATOM      3  C   UNL     1       6.624   4.997  15.152  0.00  0.00    +0.000 A 
ATOM      4  C   UNL     1       7.367   4.558  16.258  0.00  0.00    +0.000 A 
ATOM      5  C   UNL     1       6.869   4.724  17.555  0.00  0.00    +0.000 A 
ATOM      6  C   UNL     1       5.626   5.325  17.754  0.00  0.00    +0.000 A 
ATOM      7  C   UNL     1       4.857   5.709  16.652  0.00  0.00    +0.000 A 
ATOM      8  C   UNL     1       5.367   5.573  15.360  0.00  0.00    +0.000 A 
ENDBRANCH   1   6
BRANCH   1   9
ATOM      9  C   UNL     1       4.065   4.819  19.513  0.00  0.00    +0.000 C 
ATOM     10  C   UNL     1       2.955   5.426  19.956  0.00  0.00    +0.000 C 
ATOM     11  C   UNL     1       1.711   4.721  20.378  0.00  0.00    +0.000 C 
ATOM     12  N   UNL     1       1.724   3.266  20.373  0.00  0.00    +0.000 NA
ATOM     13  C   UNL     1       1.411   2.687  21.667  0.00  0.00    +0.000 C 
ATOM     14  C   UNL     1       2.809   2.603  19.652  0.00  0.00    +0.000 C 
ATOM     15  C   UNL     1       4.164   3.322  19.539  0.00  0.00    +0.000 C 
ENDBRANCH   1   9
TORSDOF 2
ENDMDL
