MODEL 1
REMARK VINA RESULT:      -8.7      0.000      0.000
REMARK  Name = 
REMARK  7 active torsions:
REMARK  status: ('A' for Active; 'I' for Inactive)
REMARK    1  A    between atoms: N_4  and  C_5
REMARK    2  A    between atoms: C_9  and  C_10
REMARK    3  A    between atoms: N_12  and  C_13
REMARK    4  A    between atoms: C_16  and  C_17
REMARK    5  A    between atoms: C_18  and  C_19
REMARK    6  A    between atoms: C_19  and  O_21
REMARK    7  A    between atoms: C_23  and  C_24
REMARK                            x       y       z     vdW  Elec       q    Type
REMARK                         _______ _______ _______ _____ _____    ______ ____
ROOT
ATOM      1  C   UNL     1       2.230   8.169  18.377  0.00  0.00    +0.000 C 
ATOM      2  O   UNL     1       2.178   8.743  17.292  0.00  0.00    +0.000 OA
ATOM      3  N   UNL     1       2.839   6.942  18.618  0.00  0.00    +0.000 N 
ATOM      4  H   UNL     1       2.594   6.468  19.487  0.00  0.00    +0.000 HD
ENDROOT
BRANCH   1   9
ATOM      5  C   UNL     1       0.081  10.546  20.435  0.00  0.00    +0.000 A 
ATOM      6  C   UNL     1       0.094   9.853  21.660  0.00  0.00    +0.000 A 
ATOM      7  C   UNL     1       0.787   8.653  21.805  0.00  0.00    +0.000 A 
ATOM      8  C   UNL     1       1.484   8.132  20.724  0.00  0.00    +0.000 A 
ATOM      9  C   UNL     1       1.516   8.818  19.503  0.00  0.00    +0.000 A 
ATOM     10  C   UNL     1       0.817  10.022  19.362  0.00  0.00    +0.000 A 
BRANCH   5  14
ATOM     11  N   UNL     1      -2.287  11.332  18.767  0.00  0.00    +0.000 NA
ATOM     12  C   UNL     1      -1.718  12.077  19.651  0.00  0.00    +0.000 C 
ATOM     13  N   UNL     1      -2.203  13.312  19.925  0.00  0.00    +0.000 N 
ATOM     14  N   UNL     1      -0.614  11.769  20.377  0.00  0.00    +0.000 N 
ATOM     15  H   UNL     1      -3.103  11.807  18.383  0.00  0.00    +0.000 HD
ATOM     16  H   UNL     1      -2.843  13.690  19.238  0.00  0.00    +0.000 HD
ATOM     17  H   UNL     1      -1.529  14.005  20.223  0.00  0.00    +0.000 HD
ATOM     18  H   UNL     1      -0.260  12.471  21.008  0.00  0.00    +0.000 HD
ENDBRANCH   5  14
ENDBRANCH   1   9
BRANCH   3  19
ATOM     19  C   UNL     1       3.611   6.226  17.662  0.00  0.00    +0.000 A 
ATOM     20  C   UNL     1       4.616   6.886  16.941  0.00  0.00    +0.000 A 
ATOM     21  C   UNL     1       5.377   6.242  15.967  0.00  0.00    +0.000 A 
ATOM     22  C   UNL     1       5.172   4.895  15.681  0.00  0.00    +0.000 A 
ATOM     23  C   UNL     1       4.214   4.205  16.433  0.00  0.00    +0.000 A 
ATOM     24  C   UNL     1       3.419   4.854  17.417  0.00  0.00    +0.000 A 
BRANCH  24  25
ATOM     25  C   UNL     1       2.365   4.019  18.098  0.00  0.00    +0.000 C 
ATOM     26  F   UNL     1       2.420   4.041  19.459  0.00  0.00    +0.000 F 
ATOM     27  F   UNL     1       1.102   4.417  17.774  0.00  0.00    +0.000 F 
ATOM     28  F   UNL     1       2.434   2.703  17.747  0.00  0.00    +0.000 F 
ENDBRANCH  24  25
BRANCH  22  29
ATOM     29  C   UNL     1       5.967   4.203  14.658  0.00  0.00    +0.000 C 
ATOM     30  C   UNL     1       5.575   4.087  13.379  0.00  0.00    +0.000 C 
BRANCH  30  31
ATOM     31  C   UNL     1       6.436   3.400  12.397  0.00  0.00    +0.000 C 
ATOM     32  O   UNL     1       7.389   3.907  11.839  0.00  0.00    +0.000 OA
BRANCH  31  33
ATOM     33  O   UNL     1       6.034   2.131  12.179  0.00  0.00    +0.000 OA
ATOM     34  H   UNL     1       6.178   1.505  12.910  0.00  0.00    +0.000 HD
ENDBRANCH  31  33
ENDBRANCH  30  31
ENDBRANCH  22  29
ENDBRANCH   3  19
TORSDOF 7
ENDMDL
MODEL 2
REMARK VINA RESULT:      -8.7      0.724      1.039
REMARK  Name = 
REMARK  7 active torsions:
REMARK  status: ('A' for Active; 'I' for Inactive)
REMARK    1  A    between atoms: N_4  and  C_5
REMARK    2  A    between atoms: C_9  and  C_10
REMARK    3  A    between atoms: N_12  and  C_13
REMARK    4  A    between atoms: C_16  and  C_17
REMARK    5  A    between atoms: C_18  and  C_19
REMARK    6  A    between atoms: C_19  and  O_21
REMARK    7  A    between atoms: C_23  and  C_24
REMARK                            x       y       z     vdW  Elec       q    Type
REMARK                         _______ _______ _______ _____ _____    ______ ____
ROOT
ATOM      1  C   UNL     1       2.268   8.078  18.444  0.00  0.00    +0.000 C 
ATOM      2  O   UNL     1       2.173   8.654  17.362  0.00  0.00    +0.000 OA
ATOM      3  N   UNL     1       2.910   6.864  18.665  0.00  0.00    +0.000 N 
ATOM      4  H   UNL     1       2.699   6.383  19.538  0.00  0.00    +0.000 HD
ENDROOT
BRANCH   1   9
ATOM      5  C   UNL     1       0.170  10.434  20.578  0.00  0.00    +0.000 A 
ATOM      6  C   UNL     1       0.180   9.710  21.784  0.00  0.00    +0.000 A 
ATOM      7  C   UNL     1       0.855   8.495  21.893  0.00  0.00    +0.000 A 
ATOM      8  C   UNL     1       1.536   7.991  20.794  0.00  0.00    +0.000 A 
ATOM      9  C   UNL     1       1.571   8.709  19.591  0.00  0.00    +0.000 A 
ATOM     10  C   UNL     1       0.890   9.927  19.487  0.00  0.00    +0.000 A 
BRANCH   5  14
ATOM     11  N   UNL     1       1.091  13.143  21.485  0.00  0.00    +0.000 NA
ATOM     12  C   UNL     1      -0.041  12.890  20.923  0.00  0.00    +0.000 C 
ATOM     13  N   UNL     1      -0.915  13.890  20.656  0.00  0.00    +0.000 N 
ATOM     14  N   UNL     1      -0.505  11.669  20.556  0.00  0.00    +0.000 N 
ATOM     15  H   UNL     1       1.186  14.145  21.642  0.00  0.00    +0.000 HD
ATOM     16  H   UNL     1      -0.742  14.760  21.142  0.00  0.00    +0.000 HD
ATOM     17  H   UNL     1      -1.897  13.647  20.672  0.00  0.00    +0.000 HD
ATOM     18  H   UNL     1      -1.430  11.622  20.158  0.00  0.00    +0.000 HD
ENDBRANCH   5  14
ENDBRANCH   1   9
BRANCH   3  19
ATOM     19  C   UNL     1       3.670   6.167  17.685  0.00  0.00    +0.000 A 
ATOM     20  C   UNL     1       4.729   6.813  17.034  0.00  0.00    +0.000 A 
ATOM     21  C   UNL     1       5.483   6.190  16.041  0.00  0.00    +0.000 A 
ATOM     22  C   UNL     1       5.215   4.878  15.664  0.00  0.00    +0.000 A 
ATOM     23  C   UNL     1       4.199   4.196  16.345  0.00  0.00    +0.000 A 
ATOM     24  C   UNL     1       3.411   4.826  17.348  0.00  0.00    +0.000 A 
BRANCH  24  25
ATOM     25  C   UNL     1       2.294   4.010  17.946  0.00  0.00    +0.000 C 
ATOM     26  F   UNL     1       2.290   3.972  19.308  0.00  0.00    +0.000 F 
ATOM     27  F   UNL     1       1.064   4.477  17.587  0.00  0.00    +0.000 F 
ATOM     28  F   UNL     1       2.323   2.708  17.541  0.00  0.00    +0.000 F 
ENDBRANCH  24  25
BRANCH  22  29
ATOM     29  C   UNL     1       6.001   4.207  14.620  0.00  0.00    +0.000 C 
ATOM     30  C   UNL     1       5.559   4.041  13.364  0.00  0.00    +0.000 C 
BRANCH  30  31
ATOM     31  C   UNL     1       6.413   3.380  12.357  0.00  0.00    +0.000 C 
ATOM     32  O   UNL     1       7.339   3.914  11.779  0.00  0.00    +0.000 OA
BRANCH  31  33
ATOM     33  O   UNL     1       6.038   2.103  12.141  0.00  0.00    +0.000 OA
ATOM     34  H   UNL     1       6.757   1.469  11.970  0.00  0.00    +0.000 HD
ENDBRANCH  31  33
ENDBRANCH  30  31
ENDBRANCH  22  29
ENDBRANCH   3  19
TORSDOF 7
ENDMDL
MODEL 3
REMARK VINA RESULT:      -8.5      4.394      9.677
REMARK  Name = 
REMARK  7 active torsions:
REMARK  status: ('A' for Active; 'I' for Inactive)
REMARK    1  A    between atoms: N_4  and  C_5
REMARK    2  A    between atoms: C_9  and  C_10
REMARK    3  A    between atoms: N_12  and  C_13
REMARK    4  A    between atoms: C_16  and  C_17
REMARK    5  A    between atoms: C_18  and  C_19
REMARK    6  A    between atoms: C_19  and  O_21
REMARK    7  A    between atoms: C_23  and  C_24
REMARK                            x       y       z     vdW  Elec       q    Type
REMARK                         _______ _______ _______ _____ _____    ______ ____
ROOT
ATOM      1  C   UNL     1       1.948   5.845  20.359  0.00  0.00    +0.000 C 
ATOM      2  O   UNL     1       0.830   5.442  20.672  0.00  0.00    +0.000 OA
ATOM      3  N   UNL     1       2.332   7.177  20.257  0.00  0.00    +0.000 N 
ATOM      4  H   UNL     1       3.196   7.371  19.752  0.00  0.00    +0.000 HD
ENDROOT
BRANCH   1   9
ATOM      5  C   UNL     1       5.091   4.104  19.095  0.00  0.00    +0.000 A 
ATOM      6  C   UNL     1       4.790   2.787  19.488  0.00  0.00    +0.000 A 
ATOM      7  C   UNL     1       3.596   2.482  20.141  0.00  0.00    +0.000 A 
ATOM      8  C   UNL     1       2.683   3.494  20.402  0.00  0.00    +0.000 A 
ATOM      9  C   UNL     1       2.943   4.808  19.990  0.00  0.00    +0.000 A 
ATOM     10  C   UNL     1       4.143   5.109  19.337  0.00  0.00    +0.000 A 
BRANCH   5  14
ATOM     11  N   UNL     1       5.755   3.727  16.191  0.00  0.00    +0.000 NA
ATOM     12  C   UNL     1       6.555   4.200  17.084  0.00  0.00    +0.000 C 
ATOM     13  N   UNL     1       7.798   4.616  16.742  0.00  0.00    +0.000 N 
ATOM     14  N   UNL     1       6.301   4.327  18.411  0.00  0.00    +0.000 N 
ATOM     15  H   UNL     1       6.198   3.755  15.275  0.00  0.00    +0.000 HD
ATOM     16  H   UNL     1       8.129   4.299  15.839  0.00  0.00    +0.000 HD
ATOM     17  H   UNL     1       8.515   4.526  17.450  0.00  0.00    +0.000 HD
ATOM     18  H   UNL     1       7.042   4.682  18.995  0.00  0.00    +0.000 HD
ENDBRANCH   5  14
ENDBRANCH   1   9
BRANCH   3  19
ATOM     19  C   UNL     1       1.516   8.280  20.631  0.00  0.00    +0.000 A 
ATOM     20  C   UNL     1       1.146   8.452  21.971  0.00  0.00    +0.000 A 
ATOM     21  C   UNL     1       0.318   9.494  22.386  0.00  0.00    +0.000 A 
ATOM     22  C   UNL     1      -0.167  10.423  21.471  0.00  0.00    +0.000 A 
ATOM     23  C   UNL     1       0.240  10.302  20.137  0.00  0.00    +0.000 A 
ATOM     24  C   UNL     1       1.070   9.235  19.698  0.00  0.00    +0.000 A 
BRANCH  24  25
ATOM     25  C   UNL     1       1.369   9.170  18.222  0.00  0.00    +0.000 C 
ATOM     26  F   UNL     1       2.392   9.974  17.818  0.00  0.00    +0.000 F 
ATOM     27  F   UNL     1       1.708   7.912  17.818  0.00  0.00    +0.000 F 
ATOM     28  F   UNL     1       0.298   9.523  17.456  0.00  0.00    +0.000 F 
ENDBRANCH  24  25
BRANCH  22  29
ATOM     29  C   UNL     1      -1.040  11.527  21.894  0.00  0.00    +0.000 C 
ATOM     30  C   UNL     1      -1.800  11.479  22.999  0.00  0.00    +0.000 C 
BRANCH  30  31
ATOM     31  C   UNL     1      -2.634  12.636  23.379  0.00  0.00    +0.000 C 
ATOM     32  O   UNL     1      -2.236  13.782  23.445  0.00  0.00    +0.000 OA
BRANCH  31  33
ATOM     33  O   UNL     1      -3.901  12.270  23.657  0.00  0.00    +0.000 OA
ATOM     34  H   UNL     1      -4.169  12.333  24.591  0.00  0.00    +0.000 HD
ENDBRANCH  31  33
ENDBRANCH  30  31
ENDBRANCH  22  29
ENDBRANCH   3  19
TORSDOF 7
ENDMDL
MODEL 4
REMARK VINA RESULT:      -8.5      4.500      9.678
REMARK  Name = 
REMARK  7 active torsions:
REMARK  status: ('A' for Active; 'I' for Inactive)
REMARK    1  A    between atoms: N_4  and  C_5
REMARK    2  A    between atoms: C_9  and  C_10
REMARK    3  A    between atoms: N_12  and  C_13
REMARK    4  A    between atoms: C_16  and  C_17
REMARK    5  A    between atoms: C_18  and  C_19
REMARK    6  A    between atoms: C_19  and  O_21
REMARK    7  A    between atoms: C_23  and  C_24
REMARK                            x       y       z     vdW  Elec       q    Type
REMARK                         _______ _______ _______ _____ _____    ______ ____
ROOT
ATOM      1  C   UNL     1       1.930   5.835  20.284  0.00  0.00    +0.000 C 
ATOM      2  O   UNL     1       0.822   5.445  20.644  0.00  0.00    +0.000 OA
ATOM      3  N   UNL     1       2.326   7.163  20.169  0.00  0.00    +0.000 N 
ATOM      4  H   UNL     1       3.169   7.348  19.628  0.00  0.00    +0.000 HD
ENDROOT
BRANCH   1   9
ATOM      5  C   UNL     1       4.859   4.025  18.655  0.00  0.00    +0.000 A 
ATOM      6  C   UNL     1       4.734   2.779  19.297  0.00  0.00    +0.000 A 
ATOM      7  C   UNL     1       3.723   2.541  20.226  0.00  0.00    +0.000 A 
ATOM      8  C   UNL     1       2.816   3.550  20.521  0.00  0.00    +0.000 A 
ATOM      9  C   UNL     1       2.897   4.789  19.872  0.00  0.00    +0.000 A 
ATOM     10  C   UNL     1       3.915   5.022  18.941  0.00  0.00    +0.000 A 
BRANCH   5  14
ATOM     11  N   UNL     1       7.614   5.175  18.969  0.00  0.00    +0.000 NA
ATOM     12  C   UNL     1       7.143   4.652  17.890  0.00  0.00    +0.000 C 
ATOM     13  N   UNL     1       7.916   4.545  16.782  0.00  0.00    +0.000 N 
ATOM     14  N   UNL     1       5.885   4.177  17.704  0.00  0.00    +0.000 N 
ATOM     15  H   UNL     1       8.589   5.437  18.833  0.00  0.00    +0.000 HD
ATOM     16  H   UNL     1       8.752   5.115  16.780  0.00  0.00    +0.000 HD
ATOM     17  H   UNL     1       7.437   4.589  15.892  0.00  0.00    +0.000 HD
ATOM     18  H   UNL     1       5.649   3.828  16.788  0.00  0.00    +0.000 HD
ENDBRANCH   5  14
ENDBRANCH   1   9
BRANCH   3  19
ATOM     19  C   UNL     1       1.539   8.275  20.579  0.00  0.00    +0.000 A 
ATOM     20  C   UNL     1       1.228   8.448  21.935  0.00  0.00    +0.000 A 
ATOM     21  C   UNL     1       0.430   9.498  22.386  0.00  0.00    +0.000 A 
ATOM     22  C   UNL     1      -0.082  10.435  21.495  0.00  0.00    +0.000 A 
ATOM     23  C   UNL     1       0.266  10.313  20.144  0.00  0.00    +0.000 A 
ATOM     24  C   UNL     1       1.065   9.237  19.668  0.00  0.00    +0.000 A 
BRANCH  24  25
ATOM     25  C   UNL     1       1.300   9.173  18.181  0.00  0.00    +0.000 C 
ATOM     26  F   UNL     1       1.651   7.940  17.718  0.00  0.00    +0.000 F 
ATOM     27  F   UNL     1       0.194   9.531  17.467  0.00  0.00    +0.000 F 
ATOM     28  F   UNL     1       2.288  10.017  17.770  0.00  0.00    +0.000 F 
ENDBRANCH  24  25
BRANCH  22  29
ATOM     29  C   UNL     1      -0.923  11.548  21.956  0.00  0.00    +0.000 C 
ATOM     30  C   UNL     1      -1.773  11.445  22.990  0.00  0.00    +0.000 C 
BRANCH  30  31
ATOM     31  C   UNL     1      -2.569  12.612  23.417  0.00  0.00    +0.000 C 
ATOM     32  O   UNL     1      -2.161  13.756  23.438  0.00  0.00    +0.000 OA
BRANCH  31  33
ATOM     33  O   UNL     1      -3.814  12.258  23.796  0.00  0.00    +0.000 OA
ATOM     34  H   UNL     1      -3.884  11.451  24.336  0.00  0.00    +0.000 HD
ENDBRANCH  31  33
ENDBRANCH  30  31
ENDBRANCH  22  29
ENDBRANCH   3  19
TORSDOF 7
ENDMDL
MODEL 5
REMARK VINA RESULT:      -8.4      4.434     10.109
REMARK  Name = 
REMARK  7 active torsions:
REMARK  status: ('A' for Active; 'I' for Inactive)
REMARK    1  A    between atoms: N_4  and  C_5
REMARK    2  A    between atoms: C_9  and  C_10
REMARK    3  A    between atoms: N_12  and  C_13
REMARK    4  A    between atoms: C_16  and  C_17
REMARK    5  A    between atoms: C_18  and  C_19
REMARK    6  A    between atoms: C_19  and  O_21
REMARK    7  A    between atoms: C_23  and  C_24
REMARK                            x       y       z     vdW  Elec       q    Type
REMARK                         _______ _______ _______ _____ _____    ______ ____
ROOT
ATOM      1  C   UNL     1       1.895   6.888  19.957  0.00  0.00    +0.000 C 
ATOM      2  O   UNL     1       1.177   6.182  20.661  0.00  0.00    +0.000 OA
ATOM      3  N   UNL     1       1.822   8.273  19.855  0.00  0.00    +0.000 N 
ATOM      4  H   UNL     1       2.295   8.703  19.061  0.00  0.00    +0.000 HD
ENDROOT
BRANCH   1   9
ATOM      5  C   UNL     1       4.005   4.179  18.310  0.00  0.00    +0.000 A 
ATOM      6  C   UNL     1       4.618   4.953  17.308  0.00  0.00    +0.000 A 
ATOM      7  C   UNL     1       4.352   6.315  17.181  0.00  0.00    +0.000 A 
ATOM      8  C   UNL     1       3.470   6.923  18.064  0.00  0.00    +0.000 A 
ATOM      9  C   UNL     1       2.871   6.183  19.092  0.00  0.00    +0.000 A 
ATOM     10  C   UNL     1       3.141   4.815  19.213  0.00  0.00    +0.000 A 
BRANCH   5  14
ATOM     11  N   UNL     1       2.306   1.737  17.907  0.00  0.00    +0.000 NA
ATOM     12  C   UNL     1       3.571   1.733  18.153  0.00  0.00    +0.000 C 
ATOM     13  N   UNL     1       4.258   0.566  18.208  0.00  0.00    +0.000 N 
ATOM     14  N   UNL     1       4.350   2.817  18.395  0.00  0.00    +0.000 N 
ATOM     15  H   UNL     1       1.978   0.785  17.755  0.00  0.00    +0.000 HD
ATOM     16  H   UNL     1       3.691  -0.268  18.303  0.00  0.00    +0.000 HD
ATOM     17  H   UNL     1       5.057   0.542  18.828  0.00  0.00    +0.000 HD
ATOM     18  H   UNL     1       5.322   2.654  18.610  0.00  0.00    +0.000 HD
ENDBRANCH   5  14
ENDBRANCH   1   9
BRANCH   3  19
ATOM     19  C   UNL     1       0.983   9.095  20.657  0.00  0.00    +0.000 A 
ATOM     20  C   UNL     1       0.894   8.866  22.037  0.00  0.00    +0.000 A 
ATOM     21  C   UNL     1       0.060   9.617  22.863  0.00  0.00    +0.000 A 
ATOM     22  C   UNL     1      -0.716  10.647  22.342  0.00  0.00    +0.000 A 
ATOM     23  C   UNL     1      -0.596  10.930  20.976  0.00  0.00    +0.000 A 
ATOM     24  C   UNL     1       0.238  10.161  20.118  0.00  0.00    +0.000 A 
BRANCH  24  25
ATOM     25  C   UNL     1       0.216  10.514  18.654  0.00  0.00    +0.000 C 
ATOM     26  F   UNL     1      -0.421  11.684  18.365  0.00  0.00    +0.000 F 
ATOM     27  F   UNL     1       1.471  10.641  18.134  0.00  0.00    +0.000 F 
ATOM     28  F   UNL     1      -0.398   9.562  17.896  0.00  0.00    +0.000 F 
ENDBRANCH  24  25
BRANCH  22  29
ATOM     29  C   UNL     1      -1.599  11.448  23.200  0.00  0.00    +0.000 C 
ATOM     30  C   UNL     1      -2.573  12.236  22.718  0.00  0.00    +0.000 C 
BRANCH  30  31
ATOM     31  C   UNL     1      -3.441  12.994  23.640  0.00  0.00    +0.000 C 
ATOM     32  O   UNL     1      -3.506  14.206  23.688  0.00  0.00    +0.000 OA
BRANCH  31  33
ATOM     33  O   UNL     1      -4.157  12.178  24.440  0.00  0.00    +0.000 OA
ATOM     34  H   UNL     1      -4.894  12.591  24.922  0.00  0.00    +0.000 HD
ENDBRANCH  31  33
ENDBRANCH  30  31
ENDBRANCH  22  29
ENDBRANCH   3  19
TORSDOF 7
ENDMDL
MODEL 6
REMARK VINA RESULT:      -8.2      4.525      9.864
REMARK  Name = 
REMARK  7 active torsions:
REMARK  status: ('A' for Active; 'I' for Inactive)
REMARK    1  A    between atoms: N_4  and  C_5
REMARK    2  A    between atoms: C_9  and  C_10
REMARK    3  A    between atoms: N_12  and  C_13
REMARK    4  A    between atoms: C_16  and  C_17
REMARK    5  A    between atoms: C_18  and  C_19
REMARK    6  A    between atoms: C_19  and  O_21
REMARK    7  A    between atoms: C_23  and  C_24
REMARK                            x       y       z     vdW  Elec       q    Type
REMARK                         _______ _______ _______ _____ _____    ______ ____
ROOT
ATOM      1  C   UNL     1       1.984   6.183  19.872  0.00  0.00    +0.000 C 
ATOM      2  O   UNL     1       1.369   5.652  20.794  0.00  0.00    +0.000 OA
ATOM      3  N   UNL     1       1.957   7.536  19.550  0.00  0.00    +0.000 N 
ATOM      4  H   UNL     1       2.303   7.797  18.628  0.00  0.00    +0.000 HD
ENDROOT
BRANCH   1   9
ATOM      5  C   UNL     1       4.822   4.179  18.311  0.00  0.00    +0.000 A 
ATOM      6  C   UNL     1       4.081   3.439  17.371  0.00  0.00    +0.000 A 
ATOM      7  C   UNL     1       2.701   3.597  17.252  0.00  0.00    +0.000 A 
ATOM      8  C   UNL     1       2.044   4.505  18.070  0.00  0.00    +0.000 A 
ATOM      9  C   UNL     1       2.763   5.279  18.991  0.00  0.00    +0.000 A 
ATOM     10  C   UNL     1       4.148   5.115  19.107  0.00  0.00    +0.000 A 
BRANCH   5  14
ATOM     11  N   UNL     1       6.978   5.436  16.643  0.00  0.00    +0.000 NA
ATOM     12  C   UNL     1       7.172   4.615  17.616  0.00  0.00    +0.000 C 
ATOM     13  N   UNL     1       8.429   4.280  17.994  0.00  0.00    +0.000 N 
ATOM     14  N   UNL     1       6.216   3.988  18.348  0.00  0.00    +0.000 N 
ATOM     15  H   UNL     1       7.871   5.763  16.279  0.00  0.00    +0.000 HD
ATOM     16  H   UNL     1       9.157   4.500  17.325  0.00  0.00    +0.000 HD
ATOM     17  H   UNL     1       8.553   3.355  18.384  0.00  0.00    +0.000 HD
ATOM     18  H   UNL     1       6.522   3.341  19.058  0.00  0.00    +0.000 HD
ENDBRANCH   5  14
ENDBRANCH   1   9
BRANCH   3  19
ATOM     19  C   UNL     1       1.308   8.534  20.328  0.00  0.00    +0.000 A 
ATOM     20  C   UNL     1       1.086   8.319  21.695  0.00  0.00    +0.000 A 
ATOM     21  C   UNL     1       0.422   9.247  22.495  0.00  0.00    +0.000 A 
ATOM     22  C   UNL     1      -0.038  10.446  21.960  0.00  0.00    +0.000 A 
ATOM     23  C   UNL     1       0.228  10.705  20.610  0.00  0.00    +0.000 A 
ATOM     24  C   UNL     1       0.888   9.760  19.778  0.00  0.00    +0.000 A 
BRANCH  24  25
ATOM     25  C   UNL     1       1.039  10.124  18.324  0.00  0.00    +0.000 C 
ATOM     26  F   UNL     1       0.694  11.407  18.024  0.00  0.00    +0.000 F 
ATOM     27  F   UNL     1       2.323   9.977  17.885  0.00  0.00    +0.000 F 
ATOM     28  F   UNL     1       0.283   9.338  17.507  0.00  0.00    +0.000 F 
ENDBRANCH  24  25
BRANCH  22  29
ATOM     29  C   UNL     1      -0.738  11.435  22.791  0.00  0.00    +0.000 C 
ATOM     30  C   UNL     1      -2.070  11.596  22.773  0.00  0.00    +0.000 C 
BRANCH  30  31
ATOM     31  C   UNL     1      -2.711  12.591  23.655  0.00  0.00    +0.000 C 
ATOM     32  O   UNL     1      -2.263  13.697  23.888  0.00  0.00    +0.000 OA
BRANCH  31  33
ATOM     33  O   UNL     1      -3.859  12.126  24.186  0.00  0.00    +0.000 OA
ATOM     34  H   UNL     1      -4.301  12.710  24.828  0.00  0.00    +0.000 HD
ENDBRANCH  31  33
ENDBRANCH  30  31
ENDBRANCH  22  29
ENDBRANCH   3  19
TORSDOF 7
ENDMDL
MODEL 7
REMARK VINA RESULT:      -8.2      1.592      2.209
REMARK  Name = 
REMARK  7 active torsions:
REMARK  status: ('A' for Active; 'I' for Inactive)
REMARK    1  A    between atoms: N_4  and  C_5
REMARK    2  A    between atoms: C_9  and  C_10
REMARK    3  A    between atoms: N_12  and  C_13
REMARK    4  A    between atoms: C_16  and  C_17
REMARK    5  A    between atoms: C_18  and  C_19
REMARK    6  A    between atoms: C_19  and  O_21
REMARK    7  A    between atoms: C_23  and  C_24
REMARK                            x       y       z     vdW  Elec       q    Type
REMARK                         _______ _______ _______ _____ _____    ______ ____
ROOT
ATOM      1  C   UNL     1       1.064   9.011  19.728  0.00  0.00    +0.000 C 
ATOM      2  O   UNL     1       0.945   9.450  18.587  0.00  0.00    +0.000 OA
ATOM      3  N   UNL     1       1.773   7.871  20.090  0.00  0.00    +0.000 N 
ATOM      4  H   UNL     1       1.584   7.483  21.013  0.00  0.00    +0.000 HD
ENDROOT
BRANCH   1   9
ATOM      5  C   UNL     1      -1.135  11.510  21.579  0.00  0.00    +0.000 A 
ATOM      6  C   UNL     1      -1.149  10.898  22.846  0.00  0.00    +0.000 A 
ATOM      7  C   UNL     1      -0.458   9.711  23.084  0.00  0.00    +0.000 A 
ATOM      8  C   UNL     1       0.265   9.123  22.055  0.00  0.00    +0.000 A 
ATOM      9  C   UNL     1       0.323   9.730  20.793  0.00  0.00    +0.000 A 
ATOM     10  C   UNL     1      -0.374  10.920  20.559  0.00  0.00    +0.000 A 
BRANCH   5  14
ATOM     11  N   UNL     1      -2.959  12.415  19.374  0.00  0.00    +0.000 NA
ATOM     12  C   UNL     1      -2.692  13.084  20.442  0.00  0.00    +0.000 C 
ATOM     13  N   UNL     1      -3.281  14.283  20.668  0.00  0.00    +0.000 N 
ATOM     14  N   UNL     1      -1.829  12.725  21.426  0.00  0.00    +0.000 N 
ATOM     15  H   UNL     1      -3.649  12.913  18.814  0.00  0.00    +0.000 HD
ATOM     16  H   UNL     1      -3.713  14.714  19.861  0.00  0.00    +0.000 HD
ATOM     17  H   UNL     1      -2.746  14.954  21.203  0.00  0.00    +0.000 HD
ATOM     18  H   UNL     1      -1.695  13.371  22.188  0.00  0.00    +0.000 HD
ENDBRANCH   5  14
ENDBRANCH   1   9
BRANCH   3  19
ATOM     19  C   UNL     1       2.580   7.109  19.199  0.00  0.00    +0.000 A 
ATOM     20  C   UNL     1       3.293   7.754  18.179  0.00  0.00    +0.000 A 
ATOM     21  C   UNL     1       4.069   7.054  17.257  0.00  0.00    +0.000 A 
ATOM     22  C   UNL     1       4.176   5.669  17.326  0.00  0.00    +0.000 A 
ATOM     23  C   UNL     1       3.519   5.013  18.374  0.00  0.00    +0.000 A 
ATOM     24  C   UNL     1       2.711   5.713  19.311  0.00  0.00    +0.000 A 
BRANCH  24  25
ATOM     25  C   UNL     1       1.990   4.881  20.341  0.00  0.00    +0.000 C 
ATOM     26  F   UNL     1       2.469   5.015  21.609  0.00  0.00    +0.000 F 
ATOM     27  F   UNL     1       0.663   5.188  20.415  0.00  0.00    +0.000 F 
ATOM     28  F   UNL     1       2.041   3.548  20.065  0.00  0.00    +0.000 F 
ENDBRANCH  24  25
BRANCH  22  29
ATOM     29  C   UNL     1       4.991   4.917  16.362  0.00  0.00    +0.000 C 
ATOM     30  C   UNL     1       5.642   5.498  15.342  0.00  0.00    +0.000 C 
BRANCH  30  31
ATOM     31  C   UNL     1       6.465   4.685  14.426  0.00  0.00    +0.000 C 
ATOM     32  O   UNL     1       6.100   3.652  13.902  0.00  0.00    +0.000 OA
BRANCH  31  33
ATOM     33  O   UNL     1       7.689   5.221  14.242  0.00  0.00    +0.000 OA
ATOM     34  H   UNL     1       8.354   5.012  14.922  0.00  0.00    +0.000 HD
ENDBRANCH  31  33
ENDBRANCH  30  31
ENDBRANCH  22  29
ENDBRANCH   3  19
TORSDOF 7
ENDMDL
MODEL 8
REMARK VINA RESULT:      -8.2      1.763      2.446
REMARK  Name = 
REMARK  7 active torsions:
REMARK  status: ('A' for Active; 'I' for Inactive)
REMARK    1  A    between atoms: N_4  and  C_5
REMARK    2  A    between atoms: C_9  and  C_10
REMARK    3  A    between atoms: N_12  and  C_13
REMARK    4  A    between atoms: C_16  and  C_17
REMARK    5  A    between atoms: C_18  and  C_19
REMARK    6  A    between atoms: C_19  and  O_21
REMARK    7  A    between atoms: C_23  and  C_24
REMARK                            x       y       z     vdW  Elec       q    Type
REMARK                         _______ _______ _______ _____ _____    ______ ____
ROOT
ATOM      1  C   UNL     1       1.234   8.896  19.863  0.00  0.00    +0.000 C 
ATOM      2  O   UNL     1       1.186   9.446  18.765  0.00  0.00    +0.000 OA
ATOM      3  N   UNL     1       1.849   7.678  20.134  0.00  0.00    +0.000 N 
ATOM      4  H   UNL     1       1.601   7.221  21.011  0.00  0.00    +0.000 HD
ENDROOT
BRANCH   1   9
ATOM      5  C   UNL     1      -0.907  11.327  21.865  0.00  0.00    +0.000 A 
ATOM      6  C   UNL     1      -0.938  10.639  23.091  0.00  0.00    +0.000 A 
ATOM      7  C   UNL     1      -0.277   9.423  23.255  0.00  0.00    +0.000 A 
ATOM      8  C   UNL     1       0.433   8.883  22.192  0.00  0.00    +0.000 A 
ATOM      9  C   UNL     1       0.509   9.565  20.970  0.00  0.00    +0.000 A 
ATOM     10  C   UNL     1      -0.159  10.784  20.810  0.00  0.00    +0.000 A 
BRANCH   5  14
ATOM     11  N   UNL     1       0.030  14.064  22.665  0.00  0.00    +0.000 NA
ATOM     12  C   UNL     1      -1.100  13.797  22.106  0.00  0.00    +0.000 C 
ATOM     13  N   UNL     1      -1.964  14.792  21.791  0.00  0.00    +0.000 N 
ATOM     14  N   UNL     1      -1.572  12.566  21.787  0.00  0.00    +0.000 N 
ATOM     15  H   UNL     1       0.132  15.071  22.782  0.00  0.00    +0.000 HD
ATOM     16  H   UNL     1      -1.787  15.681  22.243  0.00  0.00    +0.000 HD
ATOM     17  H   UNL     1      -2.948  14.558  21.811  0.00  0.00    +0.000 HD
ATOM     18  H   UNL     1      -2.495  12.510  21.384  0.00  0.00    +0.000 HD
ENDBRANCH   5  14
ENDBRANCH   1   9
BRANCH   3  19
ATOM     19  C   UNL     1       2.631   6.946  19.198  0.00  0.00    +0.000 A 
ATOM     20  C   UNL     1       3.317   7.624  18.181  0.00  0.00    +0.000 A 
ATOM     21  C   UNL     1       4.067   6.954  17.217  0.00  0.00    +0.000 A 
ATOM     22  C   UNL     1       4.175   5.567  17.237  0.00  0.00    +0.000 A 
ATOM     23  C   UNL     1       3.545   4.877  18.280  0.00  0.00    +0.000 A 
ATOM     24  C   UNL     1       2.762   5.546  19.261  0.00  0.00    +0.000 A 
BRANCH  24  25
ATOM     25  C   UNL     1       2.068   4.682  20.282  0.00  0.00    +0.000 C 
ATOM     26  F   UNL     1       2.289   3.346  20.133  0.00  0.00    +0.000 F 
ATOM     27  F   UNL     1       2.452   4.979  21.557  0.00  0.00    +0.000 F 
ATOM     28  F   UNL     1       0.714   4.837  20.264  0.00  0.00    +0.000 F 
ENDBRANCH  24  25
BRANCH  22  29
ATOM     29  C   UNL     1       4.963   4.846  16.228  0.00  0.00    +0.000 C 
ATOM     30  C   UNL     1       5.791   5.461  15.369  0.00  0.00    +0.000 C 
BRANCH  30  31
ATOM     31  C   UNL     1       6.573   4.672  14.398  0.00  0.00    +0.000 C 
ATOM     32  O   UNL     1       7.404   5.135  13.641  0.00  0.00    +0.000 OA
BRANCH  31  33
ATOM     33  O   UNL     1       6.251   3.364  14.438  0.00  0.00    +0.000 OA
ATOM     34  H   UNL     1       6.788   2.773  13.880  0.00  0.00    +0.000 HD
ENDBRANCH  31  33
ENDBRANCH  30  31
ENDBRANCH  22  29
ENDBRANCH   3  19
TORSDOF 7
ENDMDL
MODEL 9
REMARK VINA RESULT:      -8.2      4.544      9.873
REMARK  Name = 
REMARK  7 active torsions:
REMARK  status: ('A' for Active; 'I' for Inactive)
REMARK    1  A    between atoms: N_4  and  C_5
REMARK    2  A    between atoms: C_9  and  C_10
REMARK    3  A    between atoms: N_12  and  C_13
REMARK    4  A    between atoms: C_16  and  C_17
REMARK    5  A    between atoms: C_18  and  C_19
REMARK    6  A    between atoms: C_19  and  O_21
REMARK    7  A    between atoms: C_23  and  C_24
REMARK                            x       y       z     vdW  Elec       q    Type
REMARK                         _______ _______ _______ _____ _____    ______ ____
ROOT
ATOM      1  C   UNL     1       2.066   6.250  19.963  0.00  0.00    +0.000 C 
ATOM      2  O   UNL     1       1.616   5.745  20.990  0.00  0.00    +0.000 OA
ATOM      3  N   UNL     1       1.875   7.565  19.554  0.00  0.00    +0.000 N 
ATOM      4  H   UNL     1       2.083   7.780  18.580  0.00  0.00    +0.000 HD
ENDROOT
BRANCH   1   9
ATOM      5  C   UNL     1       4.846   4.227  18.325  0.00  0.00    +0.000 A 
ATOM      6  C   UNL     1       4.078   3.509  17.391  0.00  0.00    +0.000 A 
ATOM      7  C   UNL     1       2.698   3.686  17.300  0.00  0.00    +0.000 A 
ATOM      8  C   UNL     1       2.069   4.593  18.141  0.00  0.00    +0.000 A 
ATOM      9  C   UNL     1       2.816   5.347  19.057  0.00  0.00    +0.000 A 
ATOM     10  C   UNL     1       4.200   5.163  19.146  0.00  0.00    +0.000 A 
BRANCH   5  14
ATOM     11  N   UNL     1       6.977   5.407  16.571  0.00  0.00    +0.000 NA
ATOM     12  C   UNL     1       7.184   4.610  17.562  0.00  0.00    +0.000 C 
ATOM     13  N   UNL     1       8.446   4.269  17.918  0.00  0.00    +0.000 N 
ATOM     14  N   UNL     1       6.239   4.018  18.334  0.00  0.00    +0.000 N 
ATOM     15  H   UNL     1       7.866   5.711  16.175  0.00  0.00    +0.000 HD
ATOM     16  H   UNL     1       9.160   4.459  17.226  0.00  0.00    +0.000 HD
ATOM     17  H   UNL     1       8.566   3.353  18.330  0.00  0.00    +0.000 HD
ATOM     18  H   UNL     1       6.553   3.387  19.054  0.00  0.00    +0.000 HD
ENDBRANCH   5  14
ENDBRANCH   1   9
BRANCH   3  19
ATOM     19  C   UNL     1       1.233   8.565  20.335  0.00  0.00    +0.000 A 
ATOM     20  C   UNL     1       1.020   8.352  21.704  0.00  0.00    +0.000 A 
ATOM     21  C   UNL     1       0.363   9.282  22.508  0.00  0.00    +0.000 A 
ATOM     22  C   UNL     1      -0.100  10.480  21.975  0.00  0.00    +0.000 A 
ATOM     23  C   UNL     1       0.155  10.737  20.623  0.00  0.00    +0.000 A 
ATOM     24  C   UNL     1       0.809   9.790  19.787  0.00  0.00    +0.000 A 
BRANCH  24  25
ATOM     25  C   UNL     1       0.949  10.152  18.331  0.00  0.00    +0.000 C 
ATOM     26  F   UNL     1       2.180   9.901  17.803  0.00  0.00    +0.000 F 
ATOM     27  F   UNL     1       0.066   9.473  17.543  0.00  0.00    +0.000 F 
ATOM     28  F   UNL     1       0.707  11.472  18.095  0.00  0.00    +0.000 F 
ENDBRANCH  24  25
BRANCH  22  29
ATOM     29  C   UNL     1      -0.793  11.470  22.810  0.00  0.00    +0.000 C 
ATOM     30  C   UNL     1      -0.671  12.795  22.630  0.00  0.00    +0.000 C 
BRANCH  30  31
ATOM     31  C   UNL     1      -1.417  13.734  23.490  0.00  0.00    +0.000 C 
ATOM     32  O   UNL     1      -2.577  13.592  23.825  0.00  0.00    +0.000 OA
BRANCH  31  33
ATOM     33  O   UNL     1      -0.660  14.787  23.859  0.00  0.00    +0.000 OA
ATOM     34  H   UNL     1       0.224  14.576  24.208  0.00  0.00    +0.000 HD
ENDBRANCH  31  33
ENDBRANCH  30  31
ENDBRANCH  22  29
ENDBRANCH   3  19
TORSDOF 7
ENDMDL
