MODEL 1
REMARK VINA RESULT:      -6.8      0.000      0.000
REMARK  Name = 
REMARK  8 active torsions:
REMARK  status: ('A' for Active; 'I' for Inactive)
REMARK    1  A    between atoms: C_1  and  C_2
REMARK    2  A    between atoms: C_2  and  C_3
REMARK    3  A    between atoms: C_2  and  C_4
REMARK    4  A    between atoms: C_4  and  C_5
REMARK    5  A    between atoms: C_8  and  C_9
REMARK    6  A    between atoms: C_9  and  C_10
REMARK    7  A    between atoms: C_9  and  C_11
REMARK    8  A    between atoms: C_11  and  O_13
REMARK                            x       y       z     vdW  Elec       q    Type
REMARK                         _______ _______ _______ _____ _____    ______ ____
ROOT
ATOM      1  C   UNL     1       3.012   5.183  19.561  0.00  0.00    +0.000 A 
ATOM      2  C   UNL     1       4.043   4.255  19.374  0.00  0.00    +0.000 A 
ATOM      3  C   UNL     1       4.916   4.366  18.285  0.00  0.00    +0.000 A 
ATOM      4  C   UNL     1       4.768   5.405  17.355  0.00  0.00    +0.000 A 
ATOM      5  C   UNL     1       3.757   6.352  17.564  0.00  0.00    +0.000 A 
ATOM      6  C   UNL     1       2.889   6.241  18.652  0.00  0.00    +0.000 A 
ENDROOT
BRANCH   4   7
ATOM      7  C   UNL     1       5.662   5.476  16.126  0.00  0.00    +0.000 C 
ATOM      8  C   UNL     1       5.371   4.327  15.158  0.00  0.00    +0.000 C 
BRANCH   7   9
ATOM      9  C   UNL     1       7.146   5.522  16.488  0.00  0.00    +0.000 C 
ATOM     10  O   UNL     1       7.870   4.544  16.608  0.00  0.00    +0.000 OA
BRANCH   9  11
ATOM     11  O   UNL     1       7.634   6.782  16.625  0.00  0.00    +0.000 OA
ATOM     12  H   UNL     1       8.101   6.925  17.474  0.00  0.00    +0.000 HD
ENDBRANCH   9  11
ENDBRANCH   7   9
ENDBRANCH   4   7
BRANCH   1  13
ATOM     13  C   UNL     1       2.006   5.033  20.681  0.00  0.00    +0.000 C 
BRANCH  13  15
ATOM     14  C   UNL     1       1.026   3.218  19.186  0.00  0.00    +0.000 C 
ATOM     15  C   UNL     1       1.106   3.784  20.606  0.00  0.00    +0.000 C 
ATOM     16  C   UNL     1       1.638   2.705  21.556  0.00  0.00    +0.000 C 
ENDBRANCH  13  15
ENDBRANCH   1  13
TORSDOF 5
ENDMDL
MODEL 2
REMARK VINA RESULT:      -6.8      1.034      1.709
REMARK  Name = 
REMARK  8 active torsions:
REMARK  status: ('A' for Active; 'I' for Inactive)
REMARK    1  A    between atoms: C_1  and  C_2
REMARK    2  A    between atoms: C_2  and  C_3
REMARK    3  A    between atoms: C_2  and  C_4
REMARK    4  A    between atoms: C_4  and  C_5
REMARK    5  A    between atoms: C_8  and  C_9
REMARK    6  A    between atoms: C_9  and  C_10
REMARK    7  A    between atoms: C_9  and  C_11
REMARK    8  A    between atoms: C_11  and  O_13
REMARK                            x       y       z     vdW  Elec       q    Type
REMARK                         _______ _______ _______ _____ _____    ______ ____
ROOT
ATOM      1  C   UNL     1       2.684   4.748  18.387  0.00  0.00    +0.000 A 
ATOM      2  C   UNL     1       3.267   6.016  18.275  0.00  0.00    +0.000 A 
ATOM      3  C   UNL     1       4.279   6.258  17.339  0.00  0.00    +0.000 A 
ATOM      4  C   UNL     1       4.737   5.231  16.501  0.00  0.00    +0.000 A 
ATOM      5  C   UNL     1       4.128   3.972  16.591  0.00  0.00    +0.000 A 
ATOM      6  C   UNL     1       3.116   3.734  17.523  0.00  0.00    +0.000 A 
ENDROOT
BRANCH   4   7
ATOM      7  C   UNL     1       5.895   5.471  15.544  0.00  0.00    +0.000 C 
ATOM      8  C   UNL     1       5.900   4.446  14.408  0.00  0.00    +0.000 C 
BRANCH   7   9
ATOM      9  C   UNL     1       7.244   5.500  16.260  0.00  0.00    +0.000 C 
ATOM     10  O   UNL     1       7.889   4.512  16.585  0.00  0.00    +0.000 OA
BRANCH   9  11
ATOM     11  O   UNL     1       7.720   6.753  16.477  0.00  0.00    +0.000 OA
ATOM     12  H   UNL     1       8.684   6.778  16.641  0.00  0.00    +0.000 HD
ENDBRANCH   9  11
ENDBRANCH   7   9
ENDBRANCH   4   7
BRANCH   1  13
ATOM     13  C   UNL     1       1.651   4.443  19.448  0.00  0.00    +0.000 C 
BRANCH  13  15
ATOM     14  C   UNL     1       1.281   2.872  21.419  0.00  0.00    +0.000 C 
ATOM     15  C   UNL     1       1.597   2.979  19.926  0.00  0.00    +0.000 C 
ATOM     16  C   UNL     1       0.538   2.212  19.125  0.00  0.00    +0.000 C 
ENDBRANCH  13  15
ENDBRANCH   1  13
TORSDOF 5
ENDMDL
MODEL 3
REMARK VINA RESULT:      -6.6      1.576      2.359
REMARK  Name = 
REMARK  8 active torsions:
REMARK  status: ('A' for Active; 'I' for Inactive)
REMARK    1  A    between atoms: C_1  and  C_2
REMARK    2  A    between atoms: C_2  and  C_3
REMARK    3  A    between atoms: C_2  and  C_4
REMARK    4  A    between atoms: C_4  and  C_5
REMARK    5  A    between atoms: C_8  and  C_9
REMARK    6  A    between atoms: C_9  and  C_10
REMARK    7  A    between atoms: C_9  and  C_11
REMARK    8  A    between atoms: C_11  and  O_13
REMARK                            x       y       z     vdW  Elec       q    Type
REMARK                         _______ _______ _______ _____ _____    ______ ____
ROOT
ATOM      1  C   UNL     1       2.947   2.898  18.653  0.00  0.00    +0.000 A 
ATOM      2  C   UNL     1       2.941   3.350  17.327  0.00  0.00    +0.000 A 
ATOM      3  C   UNL     1       4.026   4.069  16.813  0.00  0.00    +0.000 A 
ATOM      4  C   UNL     1       5.136   4.361  17.618  0.00  0.00    +0.000 A 
ATOM      5  C   UNL     1       5.155   3.878  18.933  0.00  0.00    +0.000 A 
ATOM      6  C   UNL     1       4.073   3.158  19.444  0.00  0.00    +0.000 A 
ENDROOT
BRANCH   4   7
ATOM      7  C   UNL     1       6.276   5.216  17.085  0.00  0.00    +0.000 C 
ATOM      8  C   UNL     1       6.589   4.879  15.626  0.00  0.00    +0.000 C 
BRANCH   7   9
ATOM      9  C   UNL     1       7.532   5.115  17.950  0.00  0.00    +0.000 C 
ATOM     10  O   UNL     1       7.839   5.899  18.837  0.00  0.00    +0.000 OA
BRANCH   9  11
ATOM     11  O   UNL     1       8.290   4.020  17.683  0.00  0.00    +0.000 OA
ATOM     12  H   UNL     1       8.343   3.395  18.434  0.00  0.00    +0.000 HD
ENDBRANCH   9  11
ENDBRANCH   7   9
ENDBRANCH   4   7
BRANCH   1  13
ATOM     13  C   UNL     1       1.750   2.194  19.253  0.00  0.00    +0.000 C 
BRANCH  13  15
ATOM     14  C   UNL     1       1.621   2.609  21.763  0.00  0.00    +0.000 C 
ATOM     15  C   UNL     1       1.035   2.948  20.391  0.00  0.00    +0.000 C 
ATOM     16  C   UNL     1       1.136   4.459  20.154  0.00  0.00    +0.000 C 
ENDBRANCH  13  15
ENDBRANCH   1  13
TORSDOF 5
ENDMDL
MODEL 4
REMARK VINA RESULT:      -6.6      1.321      2.171
REMARK  Name = 
REMARK  8 active torsions:
REMARK  status: ('A' for Active; 'I' for Inactive)
REMARK    1  A    between atoms: C_1  and  C_2
REMARK    2  A    between atoms: C_2  and  C_3
REMARK    3  A    between atoms: C_2  and  C_4
REMARK    4  A    between atoms: C_4  and  C_5
REMARK    5  A    between atoms: C_8  and  C_9
REMARK    6  A    between atoms: C_9  and  C_10
REMARK    7  A    between atoms: C_9  and  C_11
REMARK    8  A    between atoms: C_11  and  O_13
REMARK                            x       y       z     vdW  Elec       q    Type
REMARK                         _______ _______ _______ _____ _____    ______ ____
ROOT
ATOM      1  C   UNL     1       2.820   3.597  18.634  0.00  0.00    +0.000 A 
ATOM      2  C   UNL     1       2.804   4.596  17.653  0.00  0.00    +0.000 A 
ATOM      3  C   UNL     1       3.970   5.300  17.331  0.00  0.00    +0.000 A 
ATOM      4  C   UNL     1       5.176   5.025  17.991  0.00  0.00    +0.000 A 
ATOM      5  C   UNL     1       5.197   4.000  18.947  0.00  0.00    +0.000 A 
ATOM      6  C   UNL     1       4.033   3.297  19.266  0.00  0.00    +0.000 A 
ENDROOT
BRANCH   4   7
ATOM      7  C   UNL     1       6.422   5.848  17.702  0.00  0.00    +0.000 C 
ATOM      8  C   UNL     1       6.063   7.215  17.116  0.00  0.00    +0.000 C 
BRANCH   7   9
ATOM      9  C   UNL     1       7.410   5.109  16.799  0.00  0.00    +0.000 C 
ATOM     10  O   UNL     1       8.119   4.176  17.149  0.00  0.00    +0.000 OA
BRANCH   9  11
ATOM     11  O   UNL     1       7.409   5.552  15.515  0.00  0.00    +0.000 OA
ATOM     12  H   UNL     1       6.871   6.359  15.385  0.00  0.00    +0.000 HD
ENDBRANCH   9  11
ENDBRANCH   7   9
ENDBRANCH   4   7
BRANCH   1  13
ATOM     13  C   UNL     1       1.555   2.884  19.058  0.00  0.00    +0.000 C 
BRANCH  13  15
ATOM     14  C   UNL     1       1.497   2.604  21.589  0.00  0.00    +0.000 C 
ATOM     15  C   UNL     1       0.933   3.362  20.385  0.00  0.00    +0.000 C 
ATOM     16  C   UNL     1       1.187   4.863  20.564  0.00  0.00    +0.000 C 
ENDBRANCH  13  15
ENDBRANCH   1  13
TORSDOF 5
ENDMDL
MODEL 5
REMARK VINA RESULT:      -6.6      0.999      1.576
REMARK  Name = 
REMARK  8 active torsions:
REMARK  status: ('A' for Active; 'I' for Inactive)
REMARK    1  A    between atoms: C_1  and  C_2
REMARK    2  A    between atoms: C_2  and  C_3
REMARK    3  A    between atoms: C_2  and  C_4
REMARK    4  A    between atoms: C_4  and  C_5
REMARK    5  A    between atoms: C_8  and  C_9
REMARK    6  A    between atoms: C_9  and  C_10
REMARK    7  A    between atoms: C_9  and  C_11
REMARK    8  A    between atoms: C_11  and  O_13
REMARK                            x       y       z     vdW  Elec       q    Type
REMARK                         _______ _______ _______ _____ _____    ______ ____
ROOT
ATOM      1  C   UNL     1       2.791   4.597  18.505  0.00  0.00    +0.000 A 
ATOM      2  C   UNL     1       3.325   3.596  17.685  0.00  0.00    +0.000 A 
ATOM      3  C   UNL     1       4.329   3.893  16.755  0.00  0.00    +0.000 A 
ATOM      4  C   UNL     1       4.812   5.202  16.621  0.00  0.00    +0.000 A 
ATOM      5  C   UNL     1       4.301   6.196  17.467  0.00  0.00    +0.000 A 
ATOM      6  C   UNL     1       3.301   5.896  18.395  0.00  0.00    +0.000 A 
ENDROOT
BRANCH   4   7
ATOM      7  C   UNL     1       5.841   5.542  15.552  0.00  0.00    +0.000 C 
ATOM      8  C   UNL     1       5.833   4.509  14.424  0.00  0.00    +0.000 C 
BRANCH   7   9
ATOM      9  C   UNL     1       7.246   5.708  16.130  0.00  0.00    +0.000 C 
ATOM     10  O   UNL     1       7.783   6.780  16.372  0.00  0.00    +0.000 OA
BRANCH   9  11
ATOM     11  O   UNL     1       7.862   4.531  16.412  0.00  0.00    +0.000 OA
ATOM     12  H   UNL     1       8.796   4.639  16.680  0.00  0.00    +0.000 HD
ENDBRANCH   9  11
ENDBRANCH   7   9
ENDBRANCH   4   7
BRANCH   1  13
ATOM     13  C   UNL     1       1.648   4.315  19.454  0.00  0.00    +0.000 C 
BRANCH  13  15
ATOM     14  C   UNL     1       1.253   2.832  21.487  0.00  0.00    +0.000 C 
ATOM     15  C   UNL     1       1.567   2.872  19.990  0.00  0.00    +0.000 C 
ATOM     16  C   UNL     1       0.492   2.094  19.223  0.00  0.00    +0.000 C 
ENDBRANCH  13  15
ENDBRANCH   1  13
TORSDOF 5
ENDMDL
MODEL 6
REMARK VINA RESULT:      -6.6      0.356      1.503
REMARK  Name = 
REMARK  8 active torsions:
REMARK  status: ('A' for Active; 'I' for Inactive)
REMARK    1  A    between atoms: C_1  and  C_2
REMARK    2  A    between atoms: C_2  and  C_3
REMARK    3  A    between atoms: C_2  and  C_4
REMARK    4  A    between atoms: C_4  and  C_5
REMARK    5  A    between atoms: C_8  and  C_9
REMARK    6  A    between atoms: C_9  and  C_10
REMARK    7  A    between atoms: C_9  and  C_11
REMARK    8  A    between atoms: C_11  and  O_13
REMARK                            x       y       z     vdW  Elec       q    Type
REMARK                         _______ _______ _______ _____ _____    ______ ____
ROOT
ATOM      1  C   UNL     1       2.847   5.100  19.528  0.00  0.00    +0.000 A 
ATOM      2  C   UNL     1       2.643   6.110  18.579  0.00  0.00    +0.000 A 
ATOM      3  C   UNL     1       3.553   6.303  17.533  0.00  0.00    +0.000 A 
ATOM      4  C   UNL     1       4.693   5.495  17.421  0.00  0.00    +0.000 A 
ATOM      5  C   UNL     1       4.877   4.462  18.351  0.00  0.00    +0.000 A 
ATOM      6  C   UNL     1       3.966   4.270  19.392  0.00  0.00    +0.000 A 
ENDROOT
BRANCH   4   7
ATOM      7  C   UNL     1       5.725   5.760  16.335  0.00  0.00    +0.000 C 
ATOM      8  C   UNL     1       5.559   4.793  15.160  0.00  0.00    +0.000 C 
BRANCH   7   9
ATOM      9  C   UNL     1       7.156   5.724  16.872  0.00  0.00    +0.000 C 
ATOM     10  O   UNL     1       7.653   6.569  17.603  0.00  0.00    +0.000 OA
BRANCH   9  11
ATOM     11  O   UNL     1       7.848   4.615  16.503  0.00  0.00    +0.000 OA
ATOM     12  H   UNL     1       8.731   4.818  16.132  0.00  0.00    +0.000 HD
ENDBRANCH   9  11
ENDBRANCH   7   9
ENDBRANCH   4   7
BRANCH   1  13
ATOM     13  C   UNL     1       1.923   4.930  20.713  0.00  0.00    +0.000 C 
BRANCH  13  15
ATOM     14  C   UNL     1       0.910   3.071  19.296  0.00  0.00    +0.000 C 
ATOM     15  C   UNL     1       1.052   3.658  20.701  0.00  0.00    +0.000 C 
ATOM     16  C   UNL     1       1.662   2.606  21.634  0.00  0.00    +0.000 C 
ENDBRANCH  13  15
ENDBRANCH   1  13
TORSDOF 5
ENDMDL
MODEL 7
REMARK VINA RESULT:      -6.6      1.297      2.146
REMARK  Name = 
REMARK  8 active torsions:
REMARK  status: ('A' for Active; 'I' for Inactive)
REMARK    1  A    between atoms: C_1  and  C_2
REMARK    2  A    between atoms: C_2  and  C_3
REMARK    3  A    between atoms: C_2  and  C_4
REMARK    4  A    between atoms: C_4  and  C_5
REMARK    5  A    between atoms: C_8  and  C_9
REMARK    6  A    between atoms: C_9  and  C_10
REMARK    7  A    between atoms: C_9  and  C_11
REMARK    8  A    between atoms: C_11  and  O_13
REMARK                            x       y       z     vdW  Elec       q    Type
REMARK                         _______ _______ _______ _____ _____    ______ ____
ROOT
ATOM      1  C   UNL     1       2.466   4.322  17.829  0.00  0.00    +0.000 A 
ATOM      2  C   UNL     1       2.863   5.663  17.899  0.00  0.00    +0.000 A 
ATOM      3  C   UNL     1       4.133   6.056  17.458  0.00  0.00    +0.000 A 
ATOM      4  C   UNL     1       5.035   5.112  16.947  0.00  0.00    +0.000 A 
ATOM      5  C   UNL     1       4.622   3.777  16.846  0.00  0.00    +0.000 A 
ATOM      6  C   UNL     1       3.354   3.387  17.284  0.00  0.00    +0.000 A 
ENDROOT
BRANCH   4   7
ATOM      7  C   UNL     1       6.444   5.526  16.549  0.00  0.00    +0.000 C 
ATOM      8  C   UNL     1       6.955   4.695  15.370  0.00  0.00    +0.000 C 
BRANCH   7   9
ATOM      9  C   UNL     1       7.421   5.467  17.722  0.00  0.00    +0.000 C 
ATOM     10  O   UNL     1       7.744   6.420  18.417  0.00  0.00    +0.000 OA
BRANCH   9  11
ATOM     11  O   UNL     1       7.888   4.217  17.980  0.00  0.00    +0.000 OA
ATOM     12  H   UNL     1       8.567   4.196  18.684  0.00  0.00    +0.000 HD
ENDBRANCH   9  11
ENDBRANCH   7   9
ENDBRANCH   4   7
BRANCH   1  13
ATOM     13  C   UNL     1       1.133   3.863  18.378  0.00  0.00    +0.000 C 
BRANCH  13  15
ATOM     14  C   UNL     1       1.939   2.465  20.350  0.00  0.00    +0.000 C 
ATOM     15  C   UNL     1       1.079   3.650  19.904  0.00  0.00    +0.000 C 
ATOM     16  C   UNL     1       1.550   4.920  20.621  0.00  0.00    +0.000 C 
ENDBRANCH  13  15
ENDBRANCH   1  13
TORSDOF 5
ENDMDL
MODEL 8
REMARK VINA RESULT:      -6.5      1.326      2.188
REMARK  Name = 
REMARK  8 active torsions:
REMARK  status: ('A' for Active; 'I' for Inactive)
REMARK    1  A    between atoms: C_1  and  C_2
REMARK    2  A    between atoms: C_2  and  C_3
REMARK    3  A    between atoms: C_2  and  C_4
REMARK    4  A    between atoms: C_4  and  C_5
REMARK    5  A    between atoms: C_8  and  C_9
REMARK    6  A    between atoms: C_9  and  C_10
REMARK    7  A    between atoms: C_9  and  C_11
REMARK    8  A    between atoms: C_11  and  O_13
REMARK                            x       y       z     vdW  Elec       q    Type
REMARK                         _______ _______ _______ _____ _____    ______ ____
ROOT
ATOM      1  C   UNL     1       2.567   4.442  17.907  0.00  0.00    +0.000 A 
ATOM      2  C   UNL     1       2.995   5.522  18.689  0.00  0.00    +0.000 A 
ATOM      3  C   UNL     1       4.315   5.981  18.613  0.00  0.00    +0.000 A 
ATOM      4  C   UNL     1       5.238   5.363  17.757  0.00  0.00    +0.000 A 
ATOM      5  C   UNL     1       4.798   4.306  16.949  0.00  0.00    +0.000 A 
ATOM      6  C   UNL     1       3.480   3.851  17.025  0.00  0.00    +0.000 A 
ENDROOT
BRANCH   4   7
ATOM      7  C   UNL     1       6.693   5.806  17.738  0.00  0.00    +0.000 C 
ATOM      8  C   UNL     1       6.829   7.247  17.239  0.00  0.00    +0.000 C 
BRANCH   7   9
ATOM      9  C   UNL     1       7.578   4.862  16.925  0.00  0.00    +0.000 C 
ATOM     10  O   UNL     1       7.705   4.890  15.709  0.00  0.00    +0.000 OA
BRANCH   9  11
ATOM     11  O   UNL     1       8.280   3.983  17.687  0.00  0.00    +0.000 OA
ATOM     12  H   UNL     1       9.193   4.280  17.877  0.00  0.00    +0.000 HD
ENDBRANCH   9  11
ENDBRANCH   7   9
ENDBRANCH   4   7
BRANCH   1  13
ATOM     13  C   UNL     1       1.170   3.876  18.037  0.00  0.00    +0.000 C 
BRANCH  13  15
ATOM     14  C   UNL     1       2.085   1.827  19.241  0.00  0.00    +0.000 C 
ATOM     15  C   UNL     1       0.965   2.867  19.183  0.00  0.00    +0.000 C 
ATOM     16  C   UNL     1       0.890   3.611  20.521  0.00  0.00    +0.000 C 
ENDBRANCH  13  15
ENDBRANCH   1  13
TORSDOF 5
ENDMDL
MODEL 9
REMARK VINA RESULT:      -6.5      1.476      1.917
REMARK  Name = 
REMARK  8 active torsions:
REMARK  status: ('A' for Active; 'I' for Inactive)
REMARK    1  A    between atoms: C_1  and  C_2
REMARK    2  A    between atoms: C_2  and  C_3
REMARK    3  A    between atoms: C_2  and  C_4
REMARK    4  A    between atoms: C_4  and  C_5
REMARK    5  A    between atoms: C_8  and  C_9
REMARK    6  A    between atoms: C_9  and  C_10
REMARK    7  A    between atoms: C_9  and  C_11
REMARK    8  A    between atoms: C_11  and  O_13
REMARK                            x       y       z     vdW  Elec       q    Type
REMARK                         _______ _______ _______ _____ _____    ______ ____
ROOT
ATOM      1  C   UNL     1       2.594   4.375  17.847  0.00  0.00    +0.000 A 
ATOM      2  C   UNL     1       3.567   3.439  17.475  0.00  0.00    +0.000 A 
ATOM      3  C   UNL     1       4.898   3.829  17.283  0.00  0.00    +0.000 A 
ATOM      4  C   UNL     1       5.281   5.167  17.451  0.00  0.00    +0.000 A 
ATOM      5  C   UNL     1       4.313   6.095  17.858  0.00  0.00    +0.000 A 
ATOM      6  C   UNL     1       2.986   5.703  18.051  0.00  0.00    +0.000 A 
ENDROOT
BRANCH   4   7
ATOM      7  C   UNL     1       6.708   5.606  17.159  0.00  0.00    +0.000 C 
ATOM      8  C   UNL     1       7.113   5.265  15.723  0.00  0.00    +0.000 C 
BRANCH   7   9
ATOM      9  C   UNL     1       7.709   5.030  18.159  0.00  0.00    +0.000 C 
ATOM     10  O   UNL     1       7.858   5.421  19.309  0.00  0.00    +0.000 OA
BRANCH   9  11
ATOM     11  O   UNL     1       8.419   3.978  17.675  0.00  0.00    +0.000 OA
ATOM     12  H   UNL     1       7.892   3.156  17.608  0.00  0.00    +0.000 HD
ENDBRANCH   9  11
ENDBRANCH   7   9
ENDBRANCH   4   7
BRANCH   1  13
ATOM     13  C   UNL     1       1.137   3.991  17.977  0.00  0.00    +0.000 C 
BRANCH  13  15
ATOM     14  C   UNL     1       1.472   1.871  19.347  0.00  0.00    +0.000 C 
ATOM     15  C   UNL     1       0.761   3.223  19.258  0.00  0.00    +0.000 C 
ATOM     16  C   UNL     1       1.113   4.066  20.489  0.00  0.00    +0.000 C 
ENDBRANCH  13  15
ENDBRANCH   1  13
TORSDOF 5
ENDMDL
