MODEL 1
REMARK VINA RESULT:      -7.1      0.000      0.000
REMARK  Name = 
REMARK  6 active torsions:
REMARK  status: ('A' for Active; 'I' for Inactive)
REMARK    1  A    between atoms: C_1  and  C_2
REMARK    2  A    between atoms: C_4  and  C_5
REMARK    3  A    between atoms: C_8  and  S_9
REMARK    4  A    between atoms: S_9  and  C_10
REMARK    5  A    between atoms: C_10  and  C_11
REMARK    6  A    between atoms: C_17  and  C_18
REMARK                            x       y       z     vdW  Elec       q    Type
REMARK                         _______ _______ _______ _____ _____    ______ ____
ROOT
ATOM      1  C   UNL     1       8.353   7.500  18.591  0.00  0.00    +0.000 C 
ATOM      2  C   UNL     1       7.399   6.420  18.137  0.00  0.00    +0.000 A 
ATOM      3  C   UNL     1       7.160   6.326  16.659  0.00  0.00    +0.000 A 
ATOM      4  C   UNL     1       6.320   5.367  16.248  0.00  0.00    +0.000 A 
ATOM      5  C   UNL     1       5.985   5.143  14.806  0.00  0.00    +0.000 C 
ATOM      6  N   UNL     1       5.730   4.531  17.204  0.00  0.00    +0.000 N 
ATOM      7  N   UNL     1       4.892   3.494  17.011  0.00  0.00    +0.000 NA
ATOM      8  C   UNL     1       4.643   3.087  18.255  0.00  0.00    +0.000 A 
ATOM      9  N   UNL     1       5.316   3.758  19.238  0.00  0.00    +0.000 NA
ATOM     10  C   UNL     1       5.997   4.677  18.574  0.00  0.00    +0.000 A 
ATOM     11  N   UNL     1       6.853   5.643  19.032  0.00  0.00    +0.000 NA
ENDROOT
BRANCH   8  12
ATOM     12  S   UNL     1       3.632   1.684  18.496  0.00  0.00    +0.000 S 
BRANCH  12  13
ATOM     13  C   UNL     1       1.988   2.283  18.035  0.00  0.00    +0.000 C 
BRANCH  13  14
ATOM     14  C   UNL     1       1.272   3.037  19.157  0.00  0.00    +0.000 C 
ATOM     15  O   UNL     1       0.568   2.473  19.993  0.00  0.00    +0.000 OA
ATOM     16  N   UNL     1       1.524   4.414  19.250  0.00  0.00    +0.000 N 
ATOM     17  C   UNL     1       0.941   5.148  20.372  0.00  0.00    +0.000 C 
ATOM     18  C   UNL     1       1.881   6.252  20.857  0.00  0.00    +0.000 C 
ATOM     19  C   UNL     1       2.313   7.163  19.711  0.00  0.00    +0.000 C 
ATOM     20  C   UNL     1       2.903   6.343  18.556  0.00  0.00    +0.000 C 
ATOM     21  C   UNL     1       3.259   7.239  17.372  0.00  0.00    +0.000 C 
ATOM     22  C   UNL     1       1.932   5.241  18.118  0.00  0.00    +0.000 C 
ENDBRANCH  13  14
ENDBRANCH  12  13
ENDBRANCH   8  12
TORSDOF 3
ENDMDL
MODEL 2
REMARK VINA RESULT:      -6.6      2.658      4.558
REMARK  Name = 
REMARK  6 active torsions:
REMARK  status: ('A' for Active; 'I' for Inactive)
REMARK    1  A    between atoms: C_1  and  C_2
REMARK    2  A    between atoms: C_4  and  C_5
REMARK    3  A    between atoms: C_8  and  S_9
REMARK    4  A    between atoms: S_9  and  C_10
REMARK    5  A    between atoms: C_10  and  C_11
REMARK    6  A    between atoms: C_17  and  C_18
REMARK                            x       y       z     vdW  Elec       q    Type
REMARK                         _______ _______ _______ _____ _____    ______ ____
ROOT
ATOM      1  C   UNL     1       5.624   2.269  11.336  0.00  0.00    +0.000 C 
ATOM      2  C   UNL     1       5.972   3.250  12.431  0.00  0.00    +0.000 A 
ATOM      3  C   UNL     1       7.181   4.106  12.194  0.00  0.00    +0.000 A 
ATOM      4  C   UNL     1       7.492   4.983  13.158  0.00  0.00    +0.000 A 
ATOM      5  C   UNL     1       8.664   5.910  13.065  0.00  0.00    +0.000 C 
ATOM      6  N   UNL     1       6.687   5.044  14.301  0.00  0.00    +0.000 N 
ATOM      7  N   UNL     1       6.796   5.865  15.364  0.00  0.00    +0.000 NA
ATOM      8  C   UNL     1       5.788   5.469  16.140  0.00  0.00    +0.000 A 
ATOM      9  N   UNL     1       4.995   4.485  15.619  0.00  0.00    +0.000 NA
ATOM     10  C   UNL     1       5.569   4.210  14.459  0.00  0.00    +0.000 A 
ATOM     11  N   UNL     1       5.216   3.304  13.494  0.00  0.00    +0.000 NA
ENDROOT
BRANCH   8  12
ATOM     12  S   UNL     1       5.492   6.321  17.635  0.00  0.00    +0.000 S 
BRANCH  12  13
ATOM     13  C   UNL     1       3.708   6.617  17.588  0.00  0.00    +0.000 C 
BRANCH  13  14
ATOM     14  C   UNL     1       3.018   6.433  18.941  0.00  0.00    +0.000 C 
ATOM     15  O   UNL     1       2.647   7.380  19.633  0.00  0.00    +0.000 OA
ATOM     16  N   UNL     1       2.740   5.114  19.331  0.00  0.00    +0.000 N 
ATOM     17  C   UNL     1       1.988   4.903  20.567  0.00  0.00    +0.000 C 
ATOM     18  C   UNL     1       1.055   3.698  20.446  0.00  0.00    +0.000 C 
ATOM     19  C   UNL     1       1.808   2.451  19.989  0.00  0.00    +0.000 C 
ATOM     20  C   UNL     1       2.591   2.730  18.699  0.00  0.00    +0.000 C 
ATOM     21  C   UNL     1       3.413   1.514  18.282  0.00  0.00    +0.000 C 
ATOM     22  C   UNL     1       3.497   3.956  18.865  0.00  0.00    +0.000 C 
ENDBRANCH  13  14
ENDBRANCH  12  13
ENDBRANCH   8  12
TORSDOF 3
ENDMDL
MODEL 3
REMARK VINA RESULT:      -6.5      3.176      4.512
REMARK  Name = 
REMARK  6 active torsions:
REMARK  status: ('A' for Active; 'I' for Inactive)
REMARK    1  A    between atoms: C_1  and  C_2
REMARK    2  A    between atoms: C_4  and  C_5
REMARK    3  A    between atoms: C_8  and  S_9
REMARK    4  A    between atoms: S_9  and  C_10
REMARK    5  A    between atoms: C_10  and  C_11
REMARK    6  A    between atoms: C_17  and  C_18
REMARK                            x       y       z     vdW  Elec       q    Type
REMARK                         _______ _______ _______ _____ _____    ______ ____
ROOT
ATOM      1  C   UNL     1       6.678   4.049  14.301  0.00  0.00    +0.000 C 
ATOM      2  C   UNL     1       6.122   4.408  15.659  0.00  0.00    +0.000 A 
ATOM      3  C   UNL     1       7.115   4.882  16.678  0.00  0.00    +0.000 A 
ATOM      4  C   UNL     1       6.629   5.209  17.882  0.00  0.00    +0.000 A 
ATOM      5  C   UNL     1       7.492   5.704  19.000  0.00  0.00    +0.000 C 
ATOM      6  N   UNL     1       5.253   5.088  18.111  0.00  0.00    +0.000 N 
ATOM      7  N   UNL     1       4.555   5.390  19.223  0.00  0.00    +0.000 NA
ATOM      8  C   UNL     1       3.310   5.063  18.881  0.00  0.00    +0.000 A 
ATOM      9  N   UNL     1       3.148   4.626  17.595  0.00  0.00    +0.000 NA
ATOM     10  C   UNL     1       4.379   4.634  17.111  0.00  0.00    +0.000 A 
ATOM     11  N   UNL     1       4.838   4.295  15.865  0.00  0.00    +0.000 NA
ENDROOT
BRANCH   8  12
ATOM     12  S   UNL     1       2.019   5.357  20.020  0.00  0.00    +0.000 S 
BRANCH  12  13
ATOM     13  C   UNL     1       2.259   7.094  20.467  0.00  0.00    +0.000 C 
BRANCH  13  14
ATOM     14  C   UNL     1       1.934   8.070  19.335  0.00  0.00    +0.000 C 
ATOM     15  O   UNL     1       2.323   7.905  18.181  0.00  0.00    +0.000 OA
ATOM     16  N   UNL     1       1.083   9.140  19.654  0.00  0.00    +0.000 N 
ATOM     17  C   UNL     1       0.665  10.034  18.575  0.00  0.00    +0.000 C 
ATOM     18  C   UNL     1      -0.771  10.514  18.782  0.00  0.00    +0.000 C 
ATOM     19  C   UNL     1      -0.963  11.126  20.167  0.00  0.00    +0.000 C 
ATOM     20  C   UNL     1      -0.496  10.154  21.260  0.00  0.00    +0.000 C 
ATOM     21  C   UNL     1      -0.605  10.791  22.643  0.00  0.00    +0.000 C 
ATOM     22  C   UNL     1       0.941   9.690  20.999  0.00  0.00    +0.000 C 
ENDBRANCH  13  14
ENDBRANCH  12  13
ENDBRANCH   8  12
TORSDOF 3
ENDMDL
MODEL 4
REMARK VINA RESULT:      -6.4      2.799      4.809
REMARK  Name = 
REMARK  6 active torsions:
REMARK  status: ('A' for Active; 'I' for Inactive)
REMARK    1  A    between atoms: C_1  and  C_2
REMARK    2  A    between atoms: C_4  and  C_5
REMARK    3  A    between atoms: C_8  and  S_9
REMARK    4  A    between atoms: S_9  and  C_10
REMARK    5  A    between atoms: C_10  and  C_11
REMARK    6  A    between atoms: C_17  and  C_18
REMARK                            x       y       z     vdW  Elec       q    Type
REMARK                         _______ _______ _______ _____ _____    ______ ____
ROOT
ATOM      1  C   UNL     1       5.261   2.545  11.636  0.00  0.00    +0.000 C 
ATOM      2  C   UNL     1       5.935   3.467  12.625  0.00  0.00    +0.000 A 
ATOM      3  C   UNL     1       7.089   4.270  12.101  0.00  0.00    +0.000 A 
ATOM      4  C   UNL     1       7.688   5.095  12.971  0.00  0.00    +0.000 A 
ATOM      5  C   UNL     1       8.848   5.966  12.598  0.00  0.00    +0.000 C 
ATOM      6  N   UNL     1       7.210   5.155  14.285  0.00  0.00    +0.000 N 
ATOM      7  N   UNL     1       7.636   5.930  15.301  0.00  0.00    +0.000 NA
ATOM      8  C   UNL     1       6.841   5.557  16.303  0.00  0.00    +0.000 A 
ATOM      9  N   UNL     1       5.886   4.633  15.983  0.00  0.00    +0.000 NA
ATOM     10  C   UNL     1       6.125   4.372  14.709  0.00  0.00    +0.000 A 
ATOM     11  N   UNL     1       5.484   3.520  13.848  0.00  0.00    +0.000 NA
ENDROOT
BRANCH   8  12
ATOM     12  S   UNL     1       6.990   6.369  17.842  0.00  0.00    +0.000 S 
BRANCH  12  13
ATOM     13  C   UNL     1       6.013   5.323  18.949  0.00  0.00    +0.000 C 
BRANCH  13  14
ATOM     14  C   UNL     1       4.518   5.645  18.939  0.00  0.00    +0.000 C 
ATOM     15  O   UNL     1       4.085   6.795  18.961  0.00  0.00    +0.000 OA
ATOM     16  N   UNL     1       3.642   4.556  18.812  0.00  0.00    +0.000 N 
ATOM     17  C   UNL     1       2.211   4.832  18.692  0.00  0.00    +0.000 C 
ATOM     18  C   UNL     1       1.533   3.831  17.757  0.00  0.00    +0.000 C 
ATOM     19  C   UNL     1       1.827   2.391  18.168  0.00  0.00    +0.000 C 
ATOM     20  C   UNL     1       3.340   2.159  18.293  0.00  0.00    +0.000 C 
ATOM     21  C   UNL     1       3.639   0.746  18.786  0.00  0.00    +0.000 C 
ATOM     22  C   UNL     1       3.974   3.196  19.227  0.00  0.00    +0.000 C 
ENDBRANCH  13  14
ENDBRANCH  12  13
ENDBRANCH   8  12
TORSDOF 3
ENDMDL
MODEL 5
REMARK VINA RESULT:      -6.4      2.296      5.533
REMARK  Name = 
REMARK  6 active torsions:
REMARK  status: ('A' for Active; 'I' for Inactive)
REMARK    1  A    between atoms: C_1  and  C_2
REMARK    2  A    between atoms: C_4  and  C_5
REMARK    3  A    between atoms: C_8  and  S_9
REMARK    4  A    between atoms: S_9  and  C_10
REMARK    5  A    between atoms: C_10  and  C_11
REMARK    6  A    between atoms: C_17  and  C_18
REMARK                            x       y       z     vdW  Elec       q    Type
REMARK                         _______ _______ _______ _____ _____    ______ ____
ROOT
ATOM      1  C   UNL     1       1.962  10.740  17.824  0.00  0.00    +0.000 C 
ATOM      2  C   UNL     1       1.845   9.514  18.699  0.00  0.00    +0.000 A 
ATOM      3  C   UNL     1       1.139   9.700  20.009  0.00  0.00    +0.000 A 
ATOM      4  C   UNL     1       1.026   8.615  20.787  0.00  0.00    +0.000 A 
ATOM      5  C   UNL     1       0.344   8.639  22.120  0.00  0.00    +0.000 C 
ATOM      6  N   UNL     1       1.562   7.402  20.338  0.00  0.00    +0.000 N 
ATOM      7  N   UNL     1       1.531   6.196  20.938  0.00  0.00    +0.000 NA
ATOM      8  C   UNL     1       2.200   5.429  20.078  0.00  0.00    +0.000 A 
ATOM      9  N   UNL     1       2.609   6.050  18.930  0.00  0.00    +0.000 NA
ATOM     10  C   UNL     1       2.213   7.300  19.099  0.00  0.00    +0.000 A 
ATOM     11  N   UNL     1       2.345   8.386  18.274  0.00  0.00    +0.000 NA
ENDROOT
BRANCH   8  12
ATOM     12  S   UNL     1       2.355   3.723  20.417  0.00  0.00    +0.000 S 
BRANCH  12  13
ATOM     13  C   UNL     1       4.027   3.344  19.839  0.00  0.00    +0.000 C 
BRANCH  13  14
ATOM     14  C   UNL     1       4.139   3.221  18.318  0.00  0.00    +0.000 C 
ATOM     15  O   UNL     1       3.417   2.478  17.656  0.00  0.00    +0.000 OA
ATOM     16  N   UNL     1       5.059   4.071  17.686  0.00  0.00    +0.000 N 
ATOM     17  C   UNL     1       5.119   4.058  16.225  0.00  0.00    +0.000 C 
ATOM     18  C   UNL     1       5.407   5.454  15.672  0.00  0.00    +0.000 C 
ATOM     19  C   UNL     1       6.652   6.064  16.312  0.00  0.00    +0.000 C 
ATOM     20  C   UNL     1       6.543   6.040  17.843  0.00  0.00    +0.000 C 
ATOM     21  C   UNL     1       7.820   6.570  18.491  0.00  0.00    +0.000 C 
ATOM     22  C   UNL     1       6.238   4.624  18.346  0.00  0.00    +0.000 C 
ENDBRANCH  13  14
ENDBRANCH  12  13
ENDBRANCH   8  12
TORSDOF 3
ENDMDL
MODEL 6
REMARK VINA RESULT:      -6.3      4.706      6.429
REMARK  Name = 
REMARK  6 active torsions:
REMARK  status: ('A' for Active; 'I' for Inactive)
REMARK    1  A    between atoms: C_1  and  C_2
REMARK    2  A    between atoms: C_4  and  C_5
REMARK    3  A    between atoms: C_8  and  S_9
REMARK    4  A    between atoms: S_9  and  C_10
REMARK    5  A    between atoms: C_10  and  C_11
REMARK    6  A    between atoms: C_17  and  C_18
REMARK                            x       y       z     vdW  Elec       q    Type
REMARK                         _______ _______ _______ _____ _____    ______ ____
ROOT
ATOM      1  C   UNL     1       1.538   2.525  21.946  0.00  0.00    +0.000 C 
ATOM      2  C   UNL     1       1.842   3.486  20.821  0.00  0.00    +0.000 A 
ATOM      3  C   UNL     1       2.130   2.871  19.484  0.00  0.00    +0.000 A 
ATOM      4  C   UNL     1       2.394   3.717  18.479  0.00  0.00    +0.000 A 
ATOM      5  C   UNL     1       2.695   3.256  17.087  0.00  0.00    +0.000 C 
ATOM      6  N   UNL     1       2.385   5.093  18.735  0.00  0.00    +0.000 N 
ATOM      7  N   UNL     1       2.588   6.110  17.874  0.00  0.00    +0.000 NA
ATOM      8  C   UNL     1       2.481   7.180  18.661  0.00  0.00    +0.000 A 
ATOM      9  N   UNL     1       2.161   6.922  19.965  0.00  0.00    +0.000 NA
ATOM     10  C   UNL     1       2.109   5.601  20.014  0.00  0.00    +0.000 A 
ATOM     11  N   UNL     1       1.830   4.769  21.065  0.00  0.00    +0.000 NA
ENDROOT
BRANCH   8  12
ATOM     12  S   UNL     1       2.605   8.767  17.944  0.00  0.00    +0.000 S 
BRANCH  12  13
ATOM     13  C   UNL     1       0.885   9.328  17.896  0.00  0.00    +0.000 C 
BRANCH  13  14
ATOM     14  C   UNL     1       0.431  10.027  19.178  0.00  0.00    +0.000 C 
ATOM     15  O   UNL     1       1.158  10.151  20.162  0.00  0.00    +0.000 OA
ATOM     16  N   UNL     1      -0.845  10.611  19.157  0.00  0.00    +0.000 N 
ATOM     17  C   UNL     1      -1.272  11.379  20.326  0.00  0.00    +0.000 C 
ATOM     18  C   UNL     1      -2.130  12.576  19.917  0.00  0.00    +0.000 C 
ATOM     19  C   UNL     1      -3.295  12.152  19.027  0.00  0.00    +0.000 C 
ATOM     20  C   UNL     1      -2.794  11.339  17.825  0.00  0.00    +0.000 C 
ATOM     21  C   UNL     1      -3.961  10.839  16.977  0.00  0.00    +0.000 C 
ATOM     22  C   UNL     1      -1.927  10.162  18.287  0.00  0.00    +0.000 C 
ENDBRANCH  13  14
ENDBRANCH  12  13
ENDBRANCH   8  12
TORSDOF 3
ENDMDL
MODEL 7
REMARK VINA RESULT:      -6.2      4.903      7.981
REMARK  Name = 
REMARK  6 active torsions:
REMARK  status: ('A' for Active; 'I' for Inactive)
REMARK    1  A    between atoms: C_1  and  C_2
REMARK    2  A    between atoms: C_4  and  C_5
REMARK    3  A    between atoms: C_8  and  S_9
REMARK    4  A    between atoms: S_9  and  C_10
REMARK    5  A    between atoms: C_10  and  C_11
REMARK    6  A    between atoms: C_17  and  C_18
REMARK                            x       y       z     vdW  Elec       q    Type
REMARK                         _______ _______ _______ _____ _____    ______ ____
ROOT
ATOM      1  C   UNL     1      -2.999  13.089  21.795  0.00  0.00    +0.000 C 
ATOM      2  C   UNL     1      -1.884  12.145  21.408  0.00  0.00    +0.000 A 
ATOM      3  C   UNL     1      -1.344  11.274  22.503  0.00  0.00    +0.000 A 
ATOM      4  C   UNL     1      -0.360  10.430  22.165  0.00  0.00    +0.000 A 
ATOM      5  C   UNL     1       0.278   9.493  23.144  0.00  0.00    +0.000 C 
ATOM      6  N   UNL     1       0.093  10.414  20.841  0.00  0.00    +0.000 N 
ATOM      7  N   UNL     1       1.038   9.631  20.284  0.00  0.00    +0.000 NA
ATOM      8  C   UNL     1       1.062  10.060  19.023  0.00  0.00    +0.000 A 
ATOM      9  N   UNL     1       0.149  11.030  18.713  0.00  0.00    +0.000 NA
ATOM     10  C   UNL     1      -0.457  11.261  19.866  0.00  0.00    +0.000 A 
ATOM     11  N   UNL     1      -1.468  12.134  20.171  0.00  0.00    +0.000 NA
ENDROOT
BRANCH   8  12
ATOM     12  S   UNL     1       2.118   9.263  17.883  0.00  0.00    +0.000 S 
BRANCH  12  13
ATOM     13  C   UNL     1       2.120   7.549  18.460  0.00  0.00    +0.000 C 
BRANCH  13  14
ATOM     14  C   UNL     1       3.262   6.708  17.886  0.00  0.00    +0.000 C 
ATOM     15  O   UNL     1       4.269   7.206  17.388  0.00  0.00    +0.000 OA
ATOM     16  N   UNL     1       3.153   5.317  18.033  0.00  0.00    +0.000 N 
ATOM     17  C   UNL     1       4.272   4.486  17.592  0.00  0.00    +0.000 C 
ATOM     18  C   UNL     1       4.453   3.273  18.505  0.00  0.00    +0.000 C 
ATOM     19  C   UNL     1       3.152   2.486  18.653  0.00  0.00    +0.000 C 
ATOM     20  C   UNL     1       2.008   3.406  19.103  0.00  0.00    +0.000 C 
ATOM     21  C   UNL     1       0.688   2.644  19.171  0.00  0.00    +0.000 C 
ATOM     22  C   UNL     1       1.880   4.613  18.167  0.00  0.00    +0.000 C 
ENDBRANCH  13  14
ENDBRANCH  12  13
ENDBRANCH   8  12
TORSDOF 3
ENDMDL
MODEL 8
REMARK VINA RESULT:      -6.1      2.775      4.537
REMARK  Name = 
REMARK  6 active torsions:
REMARK  status: ('A' for Active; 'I' for Inactive)
REMARK    1  A    between atoms: C_1  and  C_2
REMARK    2  A    between atoms: C_4  and  C_5
REMARK    3  A    between atoms: C_8  and  S_9
REMARK    4  A    between atoms: S_9  and  C_10
REMARK    5  A    between atoms: C_10  and  C_11
REMARK    6  A    between atoms: C_17  and  C_18
REMARK                            x       y       z     vdW  Elec       q    Type
REMARK                         _______ _______ _______ _____ _____    ______ ____
ROOT
ATOM      1  C   UNL     1       4.777   2.944  11.371  0.00  0.00    +0.000 C 
ATOM      2  C   UNL     1       5.574   3.655  12.439  0.00  0.00    +0.000 A 
ATOM      3  C   UNL     1       6.783   4.411  11.971  0.00  0.00    +0.000 A 
ATOM      4  C   UNL     1       7.491   5.049  12.912  0.00  0.00    +0.000 A 
ATOM      5  C   UNL     1       8.718   5.850  12.601  0.00  0.00    +0.000 C 
ATOM      6  N   UNL     1       7.069   4.972  14.244  0.00  0.00    +0.000 N 
ATOM      7  N   UNL     1       7.607   5.557  15.332  0.00  0.00    +0.000 NA
ATOM      8  C   UNL     1       6.816   5.127  16.313  0.00  0.00    +0.000 A 
ATOM      9  N   UNL     1       5.762   4.349  15.921  0.00  0.00    +0.000 NA
ATOM     10  C   UNL     1       5.928   4.244  14.613  0.00  0.00    +0.000 A 
ATOM     11  N   UNL     1       5.175   3.581  13.680  0.00  0.00    +0.000 NA
ENDROOT
BRANCH   8  12
ATOM     12  S   UNL     1       7.100   5.702  17.937  0.00  0.00    +0.000 S 
BRANCH  12  13
ATOM     13  C   UNL     1       5.463   5.593  18.700  0.00  0.00    +0.000 C 
BRANCH  13  14
ATOM     14  C   UNL     1       5.049   4.166  19.067  0.00  0.00    +0.000 C 
ATOM     15  O   UNL     1       5.790   3.198  18.908  0.00  0.00    +0.000 OA
ATOM     16  N   UNL     1       3.799   4.014  19.685  0.00  0.00    +0.000 N 
ATOM     17  C   UNL     1       3.416   2.680  20.146  0.00  0.00    +0.000 C 
ATOM     18  C   UNL     1       2.605   2.755  21.440  0.00  0.00    +0.000 C 
ATOM     19  C   UNL     1       1.415   3.701  21.302  0.00  0.00    +0.000 C 
ATOM     20  C   UNL     1       1.870   5.079  20.802  0.00  0.00    +0.000 C 
ATOM     21  C   UNL     1       0.676   6.004  20.580  0.00  0.00    +0.000 C 
ATOM     22  C   UNL     1       2.691   4.948  19.514  0.00  0.00    +0.000 C 
ENDBRANCH  13  14
ENDBRANCH  12  13
ENDBRANCH   8  12
TORSDOF 3
ENDMDL
MODEL 9
REMARK VINA RESULT:      -6.0      4.062      7.329
REMARK  Name = 
REMARK  6 active torsions:
REMARK  status: ('A' for Active; 'I' for Inactive)
REMARK    1  A    between atoms: C_1  and  C_2
REMARK    2  A    between atoms: C_4  and  C_5
REMARK    3  A    between atoms: C_8  and  S_9
REMARK    4  A    between atoms: S_9  and  C_10
REMARK    5  A    between atoms: C_10  and  C_11
REMARK    6  A    between atoms: C_17  and  C_18
REMARK                            x       y       z     vdW  Elec       q    Type
REMARK                         _______ _______ _______ _____ _____    ______ ____
ROOT
ATOM      1  C   UNL     1      -3.006  12.046  18.834  0.00  0.00    +0.000 C 
ATOM      2  C   UNL     1      -1.757  11.237  19.096  0.00  0.00    +0.000 A 
ATOM      3  C   UNL     1      -1.355  11.085  20.533  0.00  0.00    +0.000 A 
ATOM      4  C   UNL     1      -0.252  10.363  20.773  0.00  0.00    +0.000 A 
ATOM      5  C   UNL     1       0.273  10.117  22.153  0.00  0.00    +0.000 C 
ATOM      6  N   UNL     1       0.442   9.809  19.690  0.00  0.00    +0.000 N 
ATOM      7  N   UNL     1       1.542   9.031  19.706  0.00  0.00    +0.000 NA
ATOM      8  C   UNL     1       1.764   8.818  18.410  0.00  0.00    +0.000 A 
ATOM      9  N   UNL     1       0.841   9.359  17.558  0.00  0.00    +0.000 NA
ATOM     10  C   UNL     1       0.010   9.994  18.368  0.00  0.00    +0.000 A 
ATOM     11  N   UNL     1      -1.116  10.721  18.082  0.00  0.00    +0.000 NA
ENDROOT
BRANCH   8  12
ATOM     12  S   UNL     1       3.083   7.775  17.942  0.00  0.00    +0.000 S 
BRANCH  12  13
ATOM     13  C   UNL     1       2.657   6.202  18.728  0.00  0.00    +0.000 C 
BRANCH  13  14
ATOM     14  C   UNL     1       3.064   4.975  17.909  0.00  0.00    +0.000 C 
ATOM     15  O   UNL     1       2.244   4.227  17.380  0.00  0.00    +0.000 OA
ATOM     16  N   UNL     1       4.439   4.781  17.708  0.00  0.00    +0.000 N 
ATOM     17  C   UNL     1       4.861   3.681  16.844  0.00  0.00    +0.000 C 
ATOM     18  C   UNL     1       6.107   4.056  16.042  0.00  0.00    +0.000 C 
ATOM     19  C   UNL     1       7.226   4.562  16.949  0.00  0.00    +0.000 C 
ATOM     20  C   UNL     1       6.727   5.705  17.844  0.00  0.00    +0.000 C 
ATOM     21  C   UNL     1       7.815   6.158  18.813  0.00  0.00    +0.000 C 
ATOM     22  C   UNL     1       5.469   5.284  18.613  0.00  0.00    +0.000 C 
ENDBRANCH  13  14
ENDBRANCH  12  13
ENDBRANCH   8  12
TORSDOF 3
ENDMDL
