MODEL 1
REMARK VINA RESULT:      -7.7      0.000      0.000
REMARK  Name = 
REMARK  6 active torsions:
REMARK  status: ('A' for Active; 'I' for Inactive)
REMARK    1  A    between atoms: C_1  and  O_2
REMARK    2  A    between atoms: O_2  and  C_3
REMARK    3  A    between atoms: C_5  and  N_6
REMARK    4  A    between atoms: C_7  and  C_9
REMARK    5  A    between atoms: C_18  and  O_19
REMARK    6  A    between atoms: O_19  and  C_20
REMARK                            x       y       z     vdW  Elec       q    Type
REMARK                         _______ _______ _______ _____ _____    ______ ____
ROOT
ATOM      1  N   UNL     1       2.573   7.380  18.947  0.00  0.00    +0.000 N 
ATOM      2  C   UNL     1       1.895   8.545  18.627  0.00  0.00    +0.000 C 
ATOM      3  O   UNL     1       1.886   9.056  17.505  0.00  0.00    +0.000 OA
ATOM      4  H   UNL     1       2.563   7.092  19.920  0.00  0.00    +0.000 HD
ENDROOT
BRANCH   2   5
ATOM      5  C   UNL     1       1.192   9.197  19.710  0.00  0.00    +0.000 A 
ATOM      6  C   UNL     1       1.024   8.748  21.009  0.00  0.00    +0.000 A 
ATOM      7  C   UNL     1       0.174   9.664  21.662  0.00  0.00    +0.000 A 
ATOM      8  C   UNL     1      -0.417   9.740  22.935  0.00  0.00    +0.000 A 
ATOM      9  C   UNL     1      -1.270  10.813  23.214  0.00  0.00    +0.000 A 
ATOM     10  C   UNL     1      -1.510  11.805  22.258  0.00  0.00    +0.000 A 
ATOM     11  C   UNL     1      -0.912  11.757  20.991  0.00  0.00    +0.000 A 
ATOM     12  C   UNL     1      -0.091  10.661  20.730  0.00  0.00    +0.000 A 
ATOM     13  O   UNL     1       0.538  10.390  19.544  0.00  0.00    +0.000 OA
ENDBRANCH   2   5
BRANCH   1  16
ATOM     14  C   UNL     1       5.400   6.311  16.686  0.00  0.00    +0.000 A 
ATOM     15  C   UNL     1       4.566   7.101  17.496  0.00  0.00    +0.000 A 
ATOM     16  C   UNL     1       3.389   6.608  18.076  0.00  0.00    +0.000 A 
ATOM     17  C   UNL     1       3.013   5.282  17.801  0.00  0.00    +0.000 A 
ATOM     18  C   UNL     1       3.833   4.489  16.986  0.00  0.00    +0.000 A 
ATOM     19  C   UNL     1       5.027   4.991  16.437  0.00  0.00    +0.000 A 
ATOM     20 BR   UNL     1       6.068   3.729  15.472  0.00  0.00    +0.000 Br
BRANCH  14  22
ATOM     21  C   UNL     1       7.477   7.292  17.383  0.00  0.00    +0.000 C 
ATOM     22  O   UNL     1       6.560   6.957  16.356  0.00  0.00    +0.000 OA
ENDBRANCH  14  22
BRANCH  17  23
ATOM     23  O   UNL     1       1.866   4.834  18.414  0.00  0.00    +0.000 OA
ATOM     24  C   UNL     1       1.512   3.471  18.194  0.00  0.00    +0.000 C 
ENDBRANCH  17  23
ENDBRANCH   1  16
TORSDOF 4
ENDMDL
MODEL 2
REMARK VINA RESULT:      -7.6      0.587      1.237
REMARK  Name = 
REMARK  6 active torsions:
REMARK  status: ('A' for Active; 'I' for Inactive)
REMARK    1  A    between atoms: C_1  and  O_2
REMARK    2  A    between atoms: O_2  and  C_3
REMARK    3  A    between atoms: C_5  and  N_6
REMARK    4  A    between atoms: C_7  and  C_9
REMARK    5  A    between atoms: C_18  and  O_19
REMARK    6  A    between atoms: O_19  and  C_20
REMARK                            x       y       z     vdW  Elec       q    Type
REMARK                         _______ _______ _______ _____ _____    ______ ____
ROOT
ATOM      1  N   UNL     1       2.478   7.393  18.745  0.00  0.00    +0.000 N 
ATOM      2  C   UNL     1       1.921   8.618  18.418  0.00  0.00    +0.000 C 
ATOM      3  O   UNL     1       2.116   9.206  17.353  0.00  0.00    +0.000 OA
ATOM      4  H   UNL     1       2.300   7.039  19.679  0.00  0.00    +0.000 HD
ENDROOT
BRANCH   2   5
ATOM      5  C   UNL     1       1.092   9.236  19.429  0.00  0.00    +0.000 A 
ATOM      6  C   UNL     1       0.447  10.461  19.371  0.00  0.00    +0.000 A 
ATOM      7  C   UNL     1      -0.141  10.684  20.633  0.00  0.00    +0.000 A 
ATOM      8  C   UNL     1      -0.857  11.739  21.224  0.00  0.00    +0.000 A 
ATOM      9  C   UNL     1      -1.252  11.615  22.560  0.00  0.00    +0.000 A 
ATOM     10  C   UNL     1      -0.965  10.455  23.287  0.00  0.00    +0.000 A 
ATOM     11  C   UNL     1      -0.271   9.384  22.706  0.00  0.00    +0.000 A 
ATOM     12  C   UNL     1       0.136   9.548  21.384  0.00  0.00    +0.000 A 
ATOM     13  O   UNL     1       0.874   8.656  20.651  0.00  0.00    +0.000 OA
ENDBRANCH   2   5
BRANCH   1  16
ATOM     14  C   UNL     1       5.486   6.385  16.700  0.00  0.00    +0.000 A 
ATOM     15  C   UNL     1       4.570   7.160  17.431  0.00  0.00    +0.000 A 
ATOM     16  C   UNL     1       3.381   6.633  17.952  0.00  0.00    +0.000 A 
ATOM     17  C   UNL     1       3.079   5.284  17.696  0.00  0.00    +0.000 A 
ATOM     18  C   UNL     1       3.982   4.505  16.960  0.00  0.00    +0.000 A 
ATOM     19  C   UNL     1       5.187   5.043  16.470  0.00  0.00    +0.000 A 
ATOM     20 BR   UNL     1       6.340   3.802  15.612  0.00  0.00    +0.000 Br
BRANCH  14  22
ATOM     21  C   UNL     1       7.496   7.435  17.490  0.00  0.00    +0.000 C 
ATOM     22  O   UNL     1       6.637   7.072  16.423  0.00  0.00    +0.000 OA
ENDBRANCH  14  22
BRANCH  17  23
ATOM     23  O   UNL     1       1.916   4.804  18.251  0.00  0.00    +0.000 OA
ATOM     24  C   UNL     1       1.674   3.405  18.122  0.00  0.00    +0.000 C 
ENDBRANCH  17  23
ENDBRANCH   1  16
TORSDOF 4
ENDMDL
MODEL 3
REMARK VINA RESULT:      -6.8      3.473      8.024
REMARK  Name = 
REMARK  6 active torsions:
REMARK  status: ('A' for Active; 'I' for Inactive)
REMARK    1  A    between atoms: C_1  and  O_2
REMARK    2  A    between atoms: O_2  and  C_3
REMARK    3  A    between atoms: C_5  and  N_6
REMARK    4  A    between atoms: C_7  and  C_9
REMARK    5  A    between atoms: C_18  and  O_19
REMARK    6  A    between atoms: O_19  and  C_20
REMARK                            x       y       z     vdW  Elec       q    Type
REMARK                         _______ _______ _______ _____ _____    ______ ____
ROOT
ATOM      1  N   UNL     1       1.011   9.003  19.262  0.00  0.00    +0.000 N 
ATOM      2  C   UNL     1       1.959   8.969  18.253  0.00  0.00    +0.000 C 
ATOM      3  O   UNL     1       2.214   9.917  17.508  0.00  0.00    +0.000 OA
ATOM      4  H   UNL     1       0.841   8.139  19.766  0.00  0.00    +0.000 HD
ENDROOT
BRANCH   2   5
ATOM      5  C   UNL     1       2.653   7.714  18.066  0.00  0.00    +0.000 A 
ATOM      6  C   UNL     1       3.824   7.483  17.364  0.00  0.00    +0.000 A 
ATOM      7  C   UNL     1       4.046   6.090  17.365  0.00  0.00    +0.000 A 
ATOM      8  C   UNL     1       4.997   5.233  16.785  0.00  0.00    +0.000 A 
ATOM      9  C   UNL     1       4.861   3.855  16.977  0.00  0.00    +0.000 A 
ATOM     10  C   UNL     1       3.816   3.338  17.751  0.00  0.00    +0.000 A 
ATOM     11  C   UNL     1       2.871   4.179  18.355  0.00  0.00    +0.000 A 
ATOM     12  C   UNL     1       3.014   5.546  18.122  0.00  0.00    +0.000 A 
ATOM     13  O   UNL     1       2.171   6.531  18.564  0.00  0.00    +0.000 OA
ENDBRANCH   2   5
BRANCH   1  16
ATOM     14  C   UNL     1      -1.669  11.652  19.035  0.00  0.00    +0.000 A 
ATOM     15  C   UNL     1      -0.784  10.617  18.686  0.00  0.00    +0.000 A 
ATOM     16  C   UNL     1       0.155  10.091  19.585  0.00  0.00    +0.000 A 
ATOM     17  C   UNL     1       0.237  10.653  20.870  0.00  0.00    +0.000 A 
ATOM     18  C   UNL     1      -0.634  11.693  21.224  0.00  0.00    +0.000 A 
ATOM     19  C   UNL     1      -1.592  12.187  20.320  0.00  0.00    +0.000 A 
ATOM     20 BR   UNL     1      -2.768  13.502  21.023  0.00  0.00    +0.000 Br
BRANCH  14  22
ATOM     21  C   UNL     1      -2.652  11.023  16.937  0.00  0.00    +0.000 C 
ATOM     22  O   UNL     1      -2.588  11.897  18.051  0.00  0.00    +0.000 OA
ENDBRANCH  14  22
BRANCH  17  23
ATOM     23  O   UNL     1       1.154  10.087  21.725  0.00  0.00    +0.000 OA
ATOM     24  C   UNL     1       0.632   9.368  22.840  0.00  0.00    +0.000 C 
ENDBRANCH  17  23
ENDBRANCH   1  16
TORSDOF 4
ENDMDL
MODEL 4
REMARK VINA RESULT:      -6.7      3.559      8.032
REMARK  Name = 
REMARK  6 active torsions:
REMARK  status: ('A' for Active; 'I' for Inactive)
REMARK    1  A    between atoms: C_1  and  O_2
REMARK    2  A    between atoms: O_2  and  C_3
REMARK    3  A    between atoms: C_5  and  N_6
REMARK    4  A    between atoms: C_7  and  C_9
REMARK    5  A    between atoms: C_18  and  O_19
REMARK    6  A    between atoms: O_19  and  C_20
REMARK                            x       y       z     vdW  Elec       q    Type
REMARK                         _______ _______ _______ _____ _____    ______ ____
ROOT
ATOM      1  N   UNL     1       0.914   9.099  19.479  0.00  0.00    +0.000 N 
ATOM      2  C   UNL     1       1.805   8.992  18.423  0.00  0.00    +0.000 C 
ATOM      3  O   UNL     1       1.933   9.838  17.536  0.00  0.00    +0.000 OA
ATOM      4  H   UNL     1       0.849   8.307  20.110  0.00  0.00    +0.000 HD
ENDROOT
BRANCH   2   5
ATOM      5  C   UNL     1       2.594   7.782  18.369  0.00  0.00    +0.000 A 
ATOM      6  C   UNL     1       2.586   6.718  19.256  0.00  0.00    +0.000 A 
ATOM      7  C   UNL     1       3.603   5.829  18.853  0.00  0.00    +0.000 A 
ATOM      8  C   UNL     1       4.135   4.630  19.359  0.00  0.00    +0.000 A 
ATOM      9  C   UNL     1       5.211   4.039  18.688  0.00  0.00    +0.000 A 
ATOM     10  C   UNL     1       5.731   4.613  17.524  0.00  0.00    +0.000 A 
ATOM     11  C   UNL     1       5.199   5.797  16.993  0.00  0.00    +0.000 A 
ATOM     12  C   UNL     1       4.148   6.379  17.699  0.00  0.00    +0.000 A 
ATOM     13  O   UNL     1       3.528   7.560  17.390  0.00  0.00    +0.000 OA
ENDBRANCH   2   5
BRANCH   1  16
ATOM     14  C   UNL     1      -1.868  11.598  18.971  0.00  0.00    +0.000 A 
ATOM     15  C   UNL     1      -0.912  10.599  18.723  0.00  0.00    +0.000 A 
ATOM     16  C   UNL     1      -0.014  10.152  19.702  0.00  0.00    +0.000 A 
ATOM     17  C   UNL     1      -0.051  10.759  20.969  0.00  0.00    +0.000 A 
ATOM     18  C   UNL     1      -0.995  11.764  21.224  0.00  0.00    +0.000 A 
ATOM     19  C   UNL     1      -1.909  12.179  20.238  0.00  0.00    +0.000 A 
ATOM     20 BR   UNL     1      -3.195  13.454  20.810  0.00  0.00    +0.000 Br
BRANCH  14  22
ATOM     21  C   UNL     1      -3.715  10.777  17.675  0.00  0.00    +0.000 C 
ATOM     22  O   UNL     1      -2.726  11.763  17.918  0.00  0.00    +0.000 OA
ENDBRANCH  14  22
BRANCH  17  23
ATOM     23  O   UNL     1       0.829  10.269  21.905  0.00  0.00    +0.000 OA
ATOM     24  C   UNL     1       0.267   9.545  22.997  0.00  0.00    +0.000 C 
ENDBRANCH  17  23
ENDBRANCH   1  16
TORSDOF 4
ENDMDL
MODEL 5
REMARK VINA RESULT:      -6.7      4.803      9.671
REMARK  Name = 
REMARK  6 active torsions:
REMARK  status: ('A' for Active; 'I' for Inactive)
REMARK    1  A    between atoms: C_1  and  O_2
REMARK    2  A    between atoms: O_2  and  C_3
REMARK    3  A    between atoms: C_5  and  N_6
REMARK    4  A    between atoms: C_7  and  C_9
REMARK    5  A    between atoms: C_18  and  O_19
REMARK    6  A    between atoms: O_19  and  C_20
REMARK                            x       y       z     vdW  Elec       q    Type
REMARK                         _______ _______ _______ _____ _____    ______ ____
ROOT
ATOM      1  N   UNL     1      -0.699  11.401  21.727  0.00  0.00    +0.000 N 
ATOM      2  C   UNL     1      -0.026  10.288  22.203  0.00  0.00    +0.000 C 
ATOM      3  O   UNL     1       0.075   9.995  23.396  0.00  0.00    +0.000 OA
ATOM      4  H   UNL     1      -0.656  11.576  20.729  0.00  0.00    +0.000 HD
ENDROOT
BRANCH   2   5
ATOM      5  C   UNL     1       0.619   9.456  21.211  0.00  0.00    +0.000 A 
ATOM      6  C   UNL     1       1.110   8.170  21.366  0.00  0.00    +0.000 A 
ATOM      7  C   UNL     1       1.750   7.819  20.159  0.00  0.00    +0.000 A 
ATOM      8  C   UNL     1       2.486   6.709  19.710  0.00  0.00    +0.000 A 
ATOM      9  C   UNL     1       3.025   6.740  18.420  0.00  0.00    +0.000 A 
ATOM     10  C   UNL     1       2.817   7.842  17.583  0.00  0.00    +0.000 A 
ATOM     11  C   UNL     1       2.068   8.948  18.007  0.00  0.00    +0.000 A 
ATOM     12  C   UNL     1       1.568   8.902  19.307  0.00  0.00    +0.000 A 
ATOM     13  O   UNL     1       0.867   9.896  19.937  0.00  0.00    +0.000 OA
ENDBRANCH   2   5
BRANCH   1  16
ATOM     14  C   UNL     1      -3.217  13.200  23.888  0.00  0.00    +0.000 A 
ATOM     15  C   UNL     1      -2.616  12.232  23.066  0.00  0.00    +0.000 A 
ATOM     16  C   UNL     1      -1.341  12.401  22.508  0.00  0.00    +0.000 A 
ATOM     17  C   UNL     1      -0.660  13.606  22.751  0.00  0.00    +0.000 A 
ATOM     18  C   UNL     1      -1.256  14.582  23.561  0.00  0.00    +0.000 A 
ATOM     19  C   UNL     1      -2.523  14.383  24.139  0.00  0.00    +0.000 A 
ATOM     20 BR   UNL     1      -3.106  15.759  25.311  0.00  0.00    +0.000 Br
BRANCH  14  22
ATOM     21  C   UNL     1      -5.618  13.164  23.855  0.00  0.00    +0.000 C 
ATOM     22  O   UNL     1      -4.390  12.755  24.435  0.00  0.00    +0.000 OA
ENDBRANCH  14  22
BRANCH  17  23
ATOM     23  O   UNL     1       0.598  13.715  22.205  0.00  0.00    +0.000 OA
ATOM     24  C   UNL     1       0.884  14.915  21.490  0.00  0.00    +0.000 C 
ENDBRANCH  17  23
ENDBRANCH   1  16
TORSDOF 4
ENDMDL
MODEL 6
REMARK VINA RESULT:      -6.6      3.551      7.917
REMARK  Name = 
REMARK  6 active torsions:
REMARK  status: ('A' for Active; 'I' for Inactive)
REMARK    1  A    between atoms: C_1  and  O_2
REMARK    2  A    between atoms: O_2  and  C_3
REMARK    3  A    between atoms: C_5  and  N_6
REMARK    4  A    between atoms: C_7  and  C_9
REMARK    5  A    between atoms: C_18  and  O_19
REMARK    6  A    between atoms: O_19  and  C_20
REMARK                            x       y       z     vdW  Elec       q    Type
REMARK                         _______ _______ _______ _____ _____    ______ ____
ROOT
ATOM      1  N   UNL     1       1.364   9.099  18.454  0.00  0.00    +0.000 N 
ATOM      2  C   UNL     1       1.890   8.002  19.116  0.00  0.00    +0.000 C 
ATOM      3  O   UNL     1       1.727   7.772  20.315  0.00  0.00    +0.000 OA
ATOM      4  H   UNL     1       1.622   9.219  17.480  0.00  0.00    +0.000 HD
ENDROOT
BRANCH   2   5
ATOM      5  C   UNL     1       2.706   7.106  18.325  0.00  0.00    +0.000 A 
ATOM      6  C   UNL     1       2.641   5.724  18.265  0.00  0.00    +0.000 A 
ATOM      7  C   UNL     1       3.708   5.291  17.451  0.00  0.00    +0.000 A 
ATOM      8  C   UNL     1       4.218   4.041  17.060  0.00  0.00    +0.000 A 
ATOM      9  C   UNL     1       5.361   4.006  16.255  0.00  0.00    +0.000 A 
ATOM     10  C   UNL     1       5.970   5.188  15.823  0.00  0.00    +0.000 A 
ATOM     11  C   UNL     1       5.463   6.444  16.185  0.00  0.00    +0.000 A 
ATOM     12  C   UNL     1       4.342   6.449  17.013  0.00  0.00    +0.000 A 
ATOM     13  O   UNL     1       3.726   7.558  17.529  0.00  0.00    +0.000 OA
ENDBRANCH   2   5
BRANCH   1  16
ATOM     14  C   UNL     1       0.330  12.021  20.608  0.00  0.00    +0.000 A 
ATOM     15  C   UNL     1       1.067  10.945  20.086  0.00  0.00    +0.000 A 
ATOM     16  C   UNL     1       0.599  10.150  19.030  0.00  0.00    +0.000 A 
ATOM     17  C   UNL     1      -0.675  10.421  18.504  0.00  0.00    +0.000 A 
ATOM     18  C   UNL     1      -1.423  11.487  19.025  0.00  0.00    +0.000 A 
ATOM     19  C   UNL     1      -0.924  12.293  20.064  0.00  0.00    +0.000 A 
ATOM     20 BR   UNL     1      -2.023  13.767  20.545  0.00  0.00    +0.000 Br
BRANCH  14  22
ATOM     21  C   UNL     1       1.768  13.880  21.099  0.00  0.00    +0.000 C 
ATOM     22  O   UNL     1       1.046  12.738  21.528  0.00  0.00    +0.000 OA
ENDBRANCH  14  22
BRANCH  17  23
ATOM     23  O   UNL     1      -1.080   9.634  17.451  0.00  0.00    +0.000 OA
ATOM     24  C   UNL     1      -2.293  10.006  16.802  0.00  0.00    +0.000 C 
ENDBRANCH  17  23
ENDBRANCH   1  16
TORSDOF 4
ENDMDL
MODEL 7
REMARK VINA RESULT:      -6.6      3.621      8.041
REMARK  Name = 
REMARK  6 active torsions:
REMARK  status: ('A' for Active; 'I' for Inactive)
REMARK    1  A    between atoms: C_1  and  O_2
REMARK    2  A    between atoms: O_2  and  C_3
REMARK    3  A    between atoms: C_5  and  N_6
REMARK    4  A    between atoms: C_7  and  C_9
REMARK    5  A    between atoms: C_18  and  O_19
REMARK    6  A    between atoms: O_19  and  C_20
REMARK                            x       y       z     vdW  Elec       q    Type
REMARK                         _______ _______ _______ _____ _____    ______ ____
ROOT
ATOM      1  N   UNL     1       1.283   9.337  18.671  0.00  0.00    +0.000 N 
ATOM      2  C   UNL     1       1.809   8.225  19.310  0.00  0.00    +0.000 C 
ATOM      3  O   UNL     1       1.579   7.926  20.483  0.00  0.00    +0.000 OA
ATOM      4  H   UNL     1       1.598   9.517  17.723  0.00  0.00    +0.000 HD
ENDROOT
BRANCH   2   5
ATOM      5  C   UNL     1       2.709   7.403  18.531  0.00  0.00    +0.000 A 
ATOM      6  C   UNL     1       3.641   7.814  17.592  0.00  0.00    +0.000 A 
ATOM      7  C   UNL     1       4.196   6.652  17.017  0.00  0.00    +0.000 A 
ATOM      8  C   UNL     1       5.118   6.393  15.989  0.00  0.00    +0.000 A 
ATOM      9  C   UNL     1       5.394   5.063  15.656  0.00  0.00    +0.000 A 
ATOM     10  C   UNL     1       4.787   4.010  16.348  0.00  0.00    +0.000 A 
ATOM     11  C   UNL     1       3.881   4.249  17.391  0.00  0.00    +0.000 A 
ATOM     12  C   UNL     1       3.602   5.584  17.681  0.00  0.00    +0.000 A 
ATOM     13  O   UNL     1       2.707   6.035  18.614  0.00  0.00    +0.000 OA
ENDBRANCH   2   5
BRANCH   1  16
ATOM     14  C   UNL     1       0.028  12.164  20.834  0.00  0.00    +0.000 A 
ATOM     15  C   UNL     1       0.844  11.146  20.311  0.00  0.00    +0.000 A 
ATOM     16  C   UNL     1       0.442  10.327  19.247  0.00  0.00    +0.000 A 
ATOM     17  C   UNL     1      -0.845  10.509  18.713  0.00  0.00    +0.000 A 
ATOM     18  C   UNL     1      -1.671  11.515  19.235  0.00  0.00    +0.000 A 
ATOM     19  C   UNL     1      -1.238  12.349  20.282  0.00  0.00    +0.000 A 
ATOM     20 BR   UNL     1      -2.442  13.738  20.763  0.00  0.00    +0.000 Br
BRANCH  14  22
ATOM     21  C   UNL     1       1.264  14.154  21.359  0.00  0.00    +0.000 C 
ATOM     22  O   UNL     1       0.685  12.925  21.762  0.00  0.00    +0.000 OA
ENDBRANCH  14  22
BRANCH  17  23
ATOM     23  O   UNL     1      -1.186   9.701  17.654  0.00  0.00    +0.000 OA
ATOM     24  C   UNL     1      -2.454   9.939  17.048  0.00  0.00    +0.000 C 
ENDBRANCH  17  23
ENDBRANCH   1  16
TORSDOF 4
ENDMDL
MODEL 8
REMARK VINA RESULT:      -6.6      3.248      8.394
REMARK  Name = 
REMARK  6 active torsions:
REMARK  status: ('A' for Active; 'I' for Inactive)
REMARK    1  A    between atoms: C_1  and  O_2
REMARK    2  A    between atoms: O_2  and  C_3
REMARK    3  A    between atoms: C_5  and  N_6
REMARK    4  A    between atoms: C_7  and  C_9
REMARK    5  A    between atoms: C_18  and  O_19
REMARK    6  A    between atoms: O_19  and  C_20
REMARK                            x       y       z     vdW  Elec       q    Type
REMARK                         _______ _______ _______ _____ _____    ______ ____
ROOT
ATOM      1  N   UNL     1       3.689   6.160  17.330  0.00  0.00    +0.000 N 
ATOM      2  C   UNL     1       5.049   5.896  17.328  0.00  0.00    +0.000 C 
ATOM      3  O   UNL     1       5.801   6.122  18.277  0.00  0.00    +0.000 OA
ATOM      4  H   UNL     1       3.184   5.995  16.466  0.00  0.00    +0.000 HD
ENDROOT
BRANCH   2   5
ATOM      5  C   UNL     1       5.595   5.351  16.103  0.00  0.00    +0.000 A 
ATOM      6  C   UNL     1       6.796   5.668  15.491  0.00  0.00    +0.000 A 
ATOM      7  C   UNL     1       6.838   4.968  14.267  0.00  0.00    +0.000 A 
ATOM      8  C   UNL     1       7.730   4.914  13.182  0.00  0.00    +0.000 A 
ATOM      9  C   UNL     1       7.401   4.114  12.084  0.00  0.00    +0.000 A 
ATOM     10  C   UNL     1       6.222   3.361  12.074  0.00  0.00    +0.000 A 
ATOM     11  C   UNL     1       5.331   3.385  13.156  0.00  0.00    +0.000 A 
ATOM     12  C   UNL     1       5.670   4.215  14.223  0.00  0.00    +0.000 A 
ATOM     13  O   UNL     1       4.916   4.432  15.346  0.00  0.00    +0.000 OA
ENDBRANCH   2   5
BRANCH   1  16
ATOM     14  C   UNL     1       1.750   8.671  19.375  0.00  0.00    +0.000 A 
ATOM     15  C   UNL     1       2.539   8.102  18.360  0.00  0.00    +0.000 A 
ATOM     16  C   UNL     1       2.944   6.761  18.381  0.00  0.00    +0.000 A 
ATOM     17  C   UNL     1       2.578   5.969  19.483  0.00  0.00    +0.000 A 
ATOM     18  C   UNL     1       1.800   6.530  20.505  0.00  0.00    +0.000 A 
ATOM     19  C   UNL     1       1.375   7.871  20.453  0.00  0.00    +0.000 A 
ATOM     20 BR   UNL     1       0.219   8.411  21.860  0.00  0.00    +0.000 Br
BRANCH  14  22
ATOM     21  C   UNL     1       0.154  10.137  18.341  0.00  0.00    +0.000 C 
ATOM     22  O   UNL     1       1.356   9.945  19.067  0.00  0.00    +0.000 OA
ENDBRANCH  14  22
BRANCH  17  23
ATOM     23  O   UNL     1       2.976   4.653  19.447  0.00  0.00    +0.000 OA
ATOM     24  C   UNL     1       2.764   3.887  20.631  0.00  0.00    +0.000 C 
ENDBRANCH  17  23
ENDBRANCH   1  16
TORSDOF 4
ENDMDL
MODEL 9
REMARK VINA RESULT:      -6.6      3.577      7.821
REMARK  Name = 
REMARK  6 active torsions:
REMARK  status: ('A' for Active; 'I' for Inactive)
REMARK    1  A    between atoms: C_1  and  O_2
REMARK    2  A    between atoms: O_2  and  C_3
REMARK    3  A    between atoms: C_5  and  N_6
REMARK    4  A    between atoms: C_7  and  C_9
REMARK    5  A    between atoms: C_18  and  O_19
REMARK    6  A    between atoms: O_19  and  C_20
REMARK                            x       y       z     vdW  Elec       q    Type
REMARK                         _______ _______ _______ _____ _____    ______ ____
ROOT
ATOM      1  N   UNL     1       1.128   8.775  19.861  0.00  0.00    +0.000 N 
ATOM      2  C   UNL     1       2.020   8.372  18.880  0.00  0.00    +0.000 C 
ATOM      3  O   UNL     1       2.401   9.088  17.953  0.00  0.00    +0.000 OA
ATOM      4  H   UNL     1       0.835   8.075  20.535  0.00  0.00    +0.000 HD
ENDROOT
BRANCH   2   5
ATOM      5  C   UNL     1       2.487   7.005  18.960  0.00  0.00    +0.000 A 
ATOM      6  C   UNL     1       3.192   6.288  18.008  0.00  0.00    +0.000 A 
ATOM      7  C   UNL     1       3.320   4.968  18.488  0.00  0.00    +0.000 A 
ATOM      8  C   UNL     1       3.854   3.772  17.980  0.00  0.00    +0.000 A 
ATOM      9  C   UNL     1       3.753   2.611  18.753  0.00  0.00    +0.000 A 
ATOM     10  C   UNL     1       3.156   2.643  20.018  0.00  0.00    +0.000 A 
ATOM     11  C   UNL     1       2.637   3.831  20.550  0.00  0.00    +0.000 A 
ATOM     12  C   UNL     1       2.725   4.965  19.744  0.00  0.00    +0.000 A 
ATOM     13  O   UNL     1       2.229   6.207  20.044  0.00  0.00    +0.000 OA
ENDBRANCH   2   5
BRANCH   1  16
ATOM     14  C   UNL     1      -0.828  11.875  18.962  0.00  0.00    +0.000 A 
ATOM     15  C   UNL     1      -0.135  10.658  18.852  0.00  0.00    +0.000 A 
ATOM     16  C   UNL     1       0.478  10.036  19.949  0.00  0.00    +0.000 A 
ATOM     17  C   UNL     1       0.428  10.681  21.197  0.00  0.00    +0.000 A 
ATOM     18  C   UNL     1      -0.253  11.900  21.314  0.00  0.00    +0.000 A 
ATOM     19  C   UNL     1      -0.890  12.495  20.209  0.00  0.00    +0.000 A 
ATOM     20 BR   UNL     1      -1.872  14.075  20.592  0.00  0.00    +0.000 Br
BRANCH  14  22
ATOM     21  C   UNL     1      -2.586  11.449  17.383  0.00  0.00    +0.000 C 
ATOM     22  O   UNL     1      -1.466  12.211  17.799  0.00  0.00    +0.000 OA
ENDBRANCH  14  22
BRANCH  17  23
ATOM     23  O   UNL     1       1.019  10.020  22.248  0.00  0.00    +0.000 OA
ATOM     24  C   UNL     1       0.148   9.494  23.246  0.00  0.00    +0.000 C 
ENDBRANCH  17  23
ENDBRANCH   1  16
TORSDOF 4
ENDMDL
