MODEL 1
REMARK VINA RESULT:      -5.3      0.000      0.000
REMARK  Name = 
REMARK  16 active torsions:
REMARK  status: ('A' for Active; 'I' for Inactive)
REMARK    1  A    between atoms: C_1  and  O_2
REMARK    2  A    between atoms: O_2  and  C_3
REMARK    3  A    between atoms: C_3  and  C_4
REMARK    4  A    between atoms: C_4  and  C_5
REMARK    5  A    between atoms: C_5  and  N_6
REMARK    6  A    between atoms: N_6  and  C_7
REMARK    7  A    between atoms: C_7  and  C_8
REMARK    8  A    between atoms: C_8  and  O_9
REMARK    9  A    between atoms: O_9  and  C_10
REMARK   10  A    between atoms: C_10  and  C_11
REMARK   11  A    between atoms: C_11  and  O_12
REMARK   12  A    between atoms: O_12  and  C_13
REMARK   13  A    between atoms: C_14  and  O_15
REMARK   14  A    between atoms: O_15  and  C_16
REMARK   15  A    between atoms: C_20  and  O_21
REMARK   16  A    between atoms: O_21  and  C_22
REMARK                            x       y       z     vdW  Elec       q    Type
REMARK                         _______ _______ _______ _____ _____    ______ ____
ROOT
ATOM      1  C   UNL     1       5.396   4.284  19.009  0.00  0.00    +0.000 C 
ENDROOT
BRANCH   1   2
ATOM      2  C   UNL     1       6.398   5.425  18.812  0.00  0.00    +0.000 C 
BRANCH   2   3
ATOM      3  O   UNL     1       6.233   6.141  17.583  0.00  0.00    +0.000 OA
BRANCH   3   4
ATOM      4  C   UNL     1       6.830   5.482  16.468  0.00  0.00    +0.000 C 
BRANCH   4   5
ATOM      5  C   UNL     1       5.876   5.534  15.276  0.00  0.00    +0.000 C 
BRANCH   5   6
ATOM      6  N   UNL     1       6.584   5.135  14.057  0.00  0.00    +0.000 NA
ATOM      7  H   UNL     1       6.299   5.742  13.287  0.00  0.00    +0.000 HD
BRANCH   6   8
ATOM      8  C   UNL     1       6.295   3.748  13.708  0.00  0.00    +0.000 C 
BRANCH   8   9
ATOM      9  C   UNL     1       6.370   3.590  12.193  0.00  0.00    +0.000 C 
BRANCH   9  10
ATOM     10  C   UNL     1       5.388   2.533  11.712  0.00  0.00    +0.000 C 
BRANCH  10  12
ATOM     11  C   UNL     1       3.790   3.683  10.427  0.00  0.00    +0.000 C 
ATOM     12  O   UNL     1       4.083   3.105  11.691  0.00  0.00    +0.000 OA
ENDBRANCH  10  12
ENDBRANCH   9  10
ENDBRANCH   8   9
ENDBRANCH   6   8
ENDBRANCH   5   6
ENDBRANCH   4   5
ENDBRANCH   3   4
ENDBRANCH   2   3
ENDBRANCH   1   2
BRANCH   1  13
ATOM     13  O   UNL     1       4.188   4.561  18.292  0.00  0.00    +0.000 OA
BRANCH  13  14
ATOM     14  C   UNL     1       3.029   4.243  18.961  0.00  0.00    +0.000 A 
ATOM     15  C   UNL     1       2.354   5.165  19.802  0.00  0.00    +0.000 A 
ATOM     16  C   UNL     1       1.194   4.783  20.492  0.00  0.00    +0.000 A 
ATOM     17  C   UNL     1       0.701   3.495  20.363  0.00  0.00    +0.000 A 
ATOM     18  C   UNL     1       1.332   2.597  19.503  0.00  0.00    +0.000 A 
ATOM     19  C   UNL     1       2.488   2.956  18.787  0.00  0.00    +0.000 A 
BRANCH  15  20
ATOM     20  O   UNL     1       2.809   6.463  19.853  0.00  0.00    +0.000 OA
ATOM     21  C   UNL     1       1.888   7.422  20.369  0.00  0.00    +0.000 C 
ENDBRANCH  15  20
BRANCH  19  22
ATOM     22  O   UNL     1       2.917   1.926  17.995  0.00  0.00    +0.000 OA
ATOM     23  C   UNL     1       3.892   1.020  18.484  0.00  0.00    +0.000 C 
ENDBRANCH  19  22
ENDBRANCH  13  14
ENDBRANCH   1  13
TORSDOF 13
ENDMDL
MODEL 2
REMARK VINA RESULT:      -5.3      4.379      6.370
REMARK  Name = 
REMARK  16 active torsions:
REMARK  status: ('A' for Active; 'I' for Inactive)
REMARK    1  A    between atoms: C_1  and  O_2
REMARK    2  A    between atoms: O_2  and  C_3
REMARK    3  A    between atoms: C_3  and  C_4
REMARK    4  A    between atoms: C_4  and  C_5
REMARK    5  A    between atoms: C_5  and  N_6
REMARK    6  A    between atoms: N_6  and  C_7
REMARK    7  A    between atoms: C_7  and  C_8
REMARK    8  A    between atoms: C_8  and  O_9
REMARK    9  A    between atoms: O_9  and  C_10
REMARK   10  A    between atoms: C_10  and  C_11
REMARK   11  A    between atoms: C_11  and  O_12
REMARK   12  A    between atoms: O_12  and  C_13
REMARK   13  A    between atoms: C_14  and  O_15
REMARK   14  A    between atoms: O_15  and  C_16
REMARK   15  A    between atoms: C_20  and  O_21
REMARK   16  A    between atoms: O_21  and  C_22
REMARK                            x       y       z     vdW  Elec       q    Type
REMARK                         _______ _______ _______ _____ _____    ______ ____
ROOT
ATOM      1  C   UNL     1       6.245   5.402  18.393  0.00  0.00    +0.000 C 
ENDROOT
BRANCH   1   2
ATOM      2  C   UNL     1       6.184   6.275  17.137  0.00  0.00    +0.000 C 
BRANCH   2   3
ATOM      3  O   UNL     1       7.358   7.065  16.919  0.00  0.00    +0.000 OA
BRANCH   3   4
ATOM      4  C   UNL     1       7.987   7.479  18.131  0.00  0.00    +0.000 C 
BRANCH   4   5
ATOM      5  C   UNL     1       8.250   8.983  18.080  0.00  0.00    +0.000 C 
BRANCH   5   6
ATOM      6  N   UNL     1       9.188   9.358  19.140  0.00  0.00    +0.000 NA
ATOM      7  H   UNL     1       8.914   8.900  20.010  0.00  0.00    +0.000 HD
BRANCH   6   8
ATOM      8  C   UNL     1       9.209  10.803  19.342  0.00  0.00    +0.000 C 
BRANCH   8   9
ATOM      9  C   UNL     1       9.932  11.459  18.170  0.00  0.00    +0.000 C 
BRANCH   9  10
ATOM     10  C   UNL     1       9.667  12.957  18.145  0.00  0.00    +0.000 C 
BRANCH  10  12
ATOM     11  C   UNL     1      11.424  13.316  16.623  0.00  0.00    +0.000 C 
ATOM     12  O   UNL     1      10.901  13.630  17.907  0.00  0.00    +0.000 OA
ENDBRANCH  10  12
ENDBRANCH   9  10
ENDBRANCH   8   9
ENDBRANCH   6   8
ENDBRANCH   5   6
ENDBRANCH   4   5
ENDBRANCH   3   4
ENDBRANCH   2   3
ENDBRANCH   1   2
BRANCH   1  13
ATOM     13  O   UNL     1       5.071   5.602  19.189  0.00  0.00    +0.000 OA
BRANCH  13  14
ATOM     14  C   UNL     1       3.978   4.857  18.810  0.00  0.00    +0.000 A 
ATOM     15  C   UNL     1       2.842   5.431  18.182  0.00  0.00    +0.000 A 
ATOM     16  C   UNL     1       1.737   4.635  17.846  0.00  0.00    +0.000 A 
ATOM     17  C   UNL     1       1.743   3.280  18.133  0.00  0.00    +0.000 A 
ATOM     18  C   UNL     1       2.873   2.701  18.707  0.00  0.00    +0.000 A 
ATOM     19  C   UNL     1       4.003   3.470  19.042  0.00  0.00    +0.000 A 
BRANCH  15  20
ATOM     20  O   UNL     1       2.888   6.760  17.828  0.00  0.00    +0.000 OA
ATOM     21  C   UNL     1       2.337   7.672  18.776  0.00  0.00    +0.000 C 
ENDBRANCH  15  20
BRANCH  19  22
ATOM     22  O   UNL     1       4.992   2.688  19.572  0.00  0.00    +0.000 OA
ATOM     23  C   UNL     1       4.700   1.815  20.650  0.00  0.00    +0.000 C 
ENDBRANCH  19  22
ENDBRANCH  13  14
ENDBRANCH   1  13
TORSDOF 13
ENDMDL
MODEL 3
REMARK VINA RESULT:      -5.3      3.029      7.267
REMARK  Name = 
REMARK  16 active torsions:
REMARK  status: ('A' for Active; 'I' for Inactive)
REMARK    1  A    between atoms: C_1  and  O_2
REMARK    2  A    between atoms: O_2  and  C_3
REMARK    3  A    between atoms: C_3  and  C_4
REMARK    4  A    between atoms: C_4  and  C_5
REMARK    5  A    between atoms: C_5  and  N_6
REMARK    6  A    between atoms: N_6  and  C_7
REMARK    7  A    between atoms: C_7  and  C_8
REMARK    8  A    between atoms: C_8  and  O_9
REMARK    9  A    between atoms: O_9  and  C_10
REMARK   10  A    between atoms: C_10  and  C_11
REMARK   11  A    between atoms: C_11  and  O_12
REMARK   12  A    between atoms: O_12  and  C_13
REMARK   13  A    between atoms: C_14  and  O_15
REMARK   14  A    between atoms: O_15  and  C_16
REMARK   15  A    between atoms: C_20  and  O_21
REMARK   16  A    between atoms: O_21  and  C_22
REMARK                            x       y       z     vdW  Elec       q    Type
REMARK                         _______ _______ _______ _____ _____    ______ ____
ROOT
ATOM      1  C   UNL     1       4.257   5.845  19.489  0.00  0.00    +0.000 C 
ENDROOT
BRANCH   1   2
ATOM      2  C   UNL     1       2.733   5.886  19.358  0.00  0.00    +0.000 C 
BRANCH   2   3
ATOM      3  O   UNL     1       2.266   6.584  18.198  0.00  0.00    +0.000 OA
BRANCH   3   4
ATOM      4  C   UNL     1       2.726   7.932  18.133  0.00  0.00    +0.000 C 
BRANCH   4   5
ATOM      5  C   UNL     1       1.537   8.866  17.915  0.00  0.00    +0.000 C 
BRANCH   5   6
ATOM      6  N   UNL     1       2.016  10.227  17.665  0.00  0.00    +0.000 NA
ATOM      7  H   UNL     1       3.037  10.232  17.668  0.00  0.00    +0.000 HD
BRANCH   6   8
ATOM      8  C   UNL     1       1.528  11.155  18.680  0.00  0.00    +0.000 C 
BRANCH   8   9
ATOM      9  C   UNL     1       0.348  10.520  19.409  0.00  0.00    +0.000 C 
BRANCH   9  10
ATOM     10  C   UNL     1       0.210  11.093  20.810  0.00  0.00    +0.000 C 
BRANCH  10  12
ATOM     11  C   UNL     1       1.051   9.113  21.760  0.00  0.00    +0.000 C 
ATOM     12  O   UNL     1       1.221  10.519  21.635  0.00  0.00    +0.000 OA
ENDBRANCH  10  12
ENDBRANCH   9  10
ENDBRANCH   8   9
ENDBRANCH   6   8
ENDBRANCH   5   6
ENDBRANCH   4   5
ENDBRANCH   3   4
ENDBRANCH   2   3
ENDBRANCH   1   2
BRANCH   1  13
ATOM     13  O   UNL     1       4.741   4.529  19.197  0.00  0.00    +0.000 OA
BRANCH  13  14
ATOM     14  C   UNL     1       5.329   4.386  17.962  0.00  0.00    +0.000 A 
ATOM     15  C   UNL     1       6.709   4.630  17.740  0.00  0.00    +0.000 A 
ATOM     16  C   UNL     1       7.256   4.504  16.455  0.00  0.00    +0.000 A 
ATOM     17  C   UNL     1       6.448   4.149  15.387  0.00  0.00    +0.000 A 
ATOM     18  C   UNL     1       5.102   3.863  15.605  0.00  0.00    +0.000 A 
ATOM     19  C   UNL     1       4.528   3.966  16.886  0.00  0.00    +0.000 A 
BRANCH  15  20
ATOM     20  O   UNL     1       7.512   4.899  18.825  0.00  0.00    +0.000 OA
ATOM     21  C   UNL     1       7.943   6.252  18.955  0.00  0.00    +0.000 C 
ENDBRANCH  15  20
BRANCH  19  22
ATOM     22  O   UNL     1       3.205   3.619  16.861  0.00  0.00    +0.000 OA
ATOM     23  C   UNL     1       2.767   2.457  17.545  0.00  0.00    +0.000 C 
ENDBRANCH  19  22
ENDBRANCH  13  14
ENDBRANCH   1  13
TORSDOF 13
ENDMDL
MODEL 4
REMARK VINA RESULT:      -5.3      1.134      1.252
REMARK  Name = 
REMARK  16 active torsions:
REMARK  status: ('A' for Active; 'I' for Inactive)
REMARK    1  A    between atoms: C_1  and  O_2
REMARK    2  A    between atoms: O_2  and  C_3
REMARK    3  A    between atoms: C_3  and  C_4
REMARK    4  A    between atoms: C_4  and  C_5
REMARK    5  A    between atoms: C_5  and  N_6
REMARK    6  A    between atoms: N_6  and  C_7
REMARK    7  A    between atoms: C_7  and  C_8
REMARK    8  A    between atoms: C_8  and  O_9
REMARK    9  A    between atoms: O_9  and  C_10
REMARK   10  A    between atoms: C_10  and  C_11
REMARK   11  A    between atoms: C_11  and  O_12
REMARK   12  A    between atoms: O_12  and  C_13
REMARK   13  A    between atoms: C_14  and  O_15
REMARK   14  A    between atoms: O_15  and  C_16
REMARK   15  A    between atoms: C_20  and  O_21
REMARK   16  A    between atoms: O_21  and  C_22
REMARK                            x       y       z     vdW  Elec       q    Type
REMARK                         _______ _______ _______ _____ _____    ______ ____
ROOT
ATOM      1  C   UNL     1       4.314   5.568  17.487  0.00  0.00    +0.000 C 
ENDROOT
BRANCH   1   2
ATOM      2  C   UNL     1       4.975   6.924  17.220  0.00  0.00    +0.000 C 
BRANCH   2   3
ATOM      3  O   UNL     1       6.173   6.845  16.441  0.00  0.00    +0.000 OA
BRANCH   3   4
ATOM      4  C   UNL     1       7.157   5.986  17.014  0.00  0.00    +0.000 C 
BRANCH   4   5
ATOM      5  C   UNL     1       7.345   4.761  16.119  0.00  0.00    +0.000 C 
BRANCH   5   6
ATOM      6  N   UNL     1       7.590   5.188  14.740  0.00  0.00    +0.000 NA
ATOM      7  H   UNL     1       7.827   6.182  14.732  0.00  0.00    +0.000 HD
BRANCH   6   8
ATOM      8  C   UNL     1       6.418   4.966  13.900  0.00  0.00    +0.000 C 
BRANCH   8   9
ATOM      9  C   UNL     1       6.356   3.493  13.510  0.00  0.00    +0.000 C 
BRANCH   9  10
ATOM     10  C   UNL     1       6.147   3.341  12.012  0.00  0.00    +0.000 C 
BRANCH  10  12
ATOM     11  C   UNL     1       4.016   3.237  11.023  0.00  0.00    +0.000 C 
ATOM     12  O   UNL     1       4.985   2.543  11.796  0.00  0.00    +0.000 OA
ENDBRANCH  10  12
ENDBRANCH   9  10
ENDBRANCH   8   9
ENDBRANCH   6   8
ENDBRANCH   5   6
ENDBRANCH   4   5
ENDBRANCH   3   4
ENDBRANCH   2   3
ENDBRANCH   1   2
BRANCH   1  13
ATOM     13  O   UNL     1       4.503   5.190  18.855  0.00  0.00    +0.000 OA
BRANCH  13  14
ATOM     14  C   UNL     1       3.370   4.746  19.497  0.00  0.00    +0.000 A 
ATOM     15  C   UNL     1       2.397   5.630  20.029  0.00  0.00    +0.000 A 
ATOM     16  C   UNL     1       1.275   5.129  20.706  0.00  0.00    +0.000 A 
ATOM     17  C   UNL     1       1.113   3.764  20.868  0.00  0.00    +0.000 A 
ATOM     18  C   UNL     1       2.041   2.887  20.308  0.00  0.00    +0.000 A 
ATOM     19  C   UNL     1       3.168   3.359  19.610  0.00  0.00    +0.000 A 
BRANCH  15  20
ATOM     20  O   UNL     1       2.530   6.978  19.786  0.00  0.00    +0.000 OA
ATOM     21  C   UNL     1       1.598   7.823  20.457  0.00  0.00    +0.000 C 
ENDBRANCH  15  20
BRANCH  19  22
ATOM     22  O   UNL     1       3.922   2.321  19.135  0.00  0.00    +0.000 OA
ATOM     23  C   UNL     1       3.507   1.620  17.976  0.00  0.00    +0.000 C 
ENDBRANCH  19  22
ENDBRANCH  13  14
ENDBRANCH   1  13
TORSDOF 13
ENDMDL
MODEL 5
REMARK VINA RESULT:      -5.3      1.520      3.145
REMARK  Name = 
REMARK  16 active torsions:
REMARK  status: ('A' for Active; 'I' for Inactive)
REMARK    1  A    between atoms: C_1  and  O_2
REMARK    2  A    between atoms: O_2  and  C_3
REMARK    3  A    between atoms: C_3  and  C_4
REMARK    4  A    between atoms: C_4  and  C_5
REMARK    5  A    between atoms: C_5  and  N_6
REMARK    6  A    between atoms: N_6  and  C_7
REMARK    7  A    between atoms: C_7  and  C_8
REMARK    8  A    between atoms: C_8  and  O_9
REMARK    9  A    between atoms: O_9  and  C_10
REMARK   10  A    between atoms: C_10  and  C_11
REMARK   11  A    between atoms: C_11  and  O_12
REMARK   12  A    between atoms: O_12  and  C_13
REMARK   13  A    between atoms: C_14  and  O_15
REMARK   14  A    between atoms: O_15  and  C_16
REMARK   15  A    between atoms: C_20  and  O_21
REMARK   16  A    between atoms: O_21  and  C_22
REMARK                            x       y       z     vdW  Elec       q    Type
REMARK                         _______ _______ _______ _____ _____    ______ ____
ROOT
ATOM      1  C   UNL     1       4.665   4.575  17.112  0.00  0.00    +0.000 C 
ENDROOT
BRANCH   1   2
ATOM      2  C   UNL     1       5.379   5.823  16.585  0.00  0.00    +0.000 C 
BRANCH   2   3
ATOM      3  O   UNL     1       6.269   5.569  15.493  0.00  0.00    +0.000 OA
BRANCH   3   4
ATOM      4  C   UNL     1       6.189   4.230  15.007  0.00  0.00    +0.000 C 
BRANCH   4   5
ATOM      5  C   UNL     1       6.053   4.249  13.485  0.00  0.00    +0.000 C 
BRANCH   5   6
ATOM      6  N   UNL     1       6.143   2.884  12.963  0.00  0.00    +0.000 NA
ATOM      7  H   UNL     1       7.120   2.587  12.961  0.00  0.00    +0.000 HD
BRANCH   6   8
ATOM      8  C   UNL     1       5.612   2.800  11.606  0.00  0.00    +0.000 C 
BRANCH   8   9
ATOM      9  C   UNL     1       4.149   3.231  11.616  0.00  0.00    +0.000 C 
BRANCH   9  10
ATOM     10  C   UNL     1       3.626   3.391  10.197  0.00  0.00    +0.000 C 
BRANCH  10  12
ATOM     11  C   UNL     1       2.403   4.842   8.808  0.00  0.00    +0.000 C 
ATOM     12  O   UNL     1       2.980   4.658  10.094  0.00  0.00    +0.000 OA
ENDBRANCH  10  12
ENDBRANCH   9  10
ENDBRANCH   8   9
ENDBRANCH   6   8
ENDBRANCH   5   6
ENDBRANCH   4   5
ENDBRANCH   3   4
ENDBRANCH   2   3
ENDBRANCH   1   2
BRANCH   1  13
ATOM     13  O   UNL     1       4.779   4.508  18.537  0.00  0.00    +0.000 OA
BRANCH  13  14
ATOM     14  C   UNL     1       3.601   4.265  19.204  0.00  0.00    +0.000 A 
ATOM     15  C   UNL     1       3.182   2.958  19.566  0.00  0.00    +0.000 A 
ATOM     16  C   UNL     1       1.955   2.759  20.214  0.00  0.00    +0.000 A 
ATOM     17  C   UNL     1       1.135   3.838  20.500  0.00  0.00    +0.000 A 
ATOM     18  C   UNL     1       1.561   5.129  20.191  0.00  0.00    +0.000 A 
ATOM     19  C   UNL     1       2.793   5.362  19.553  0.00  0.00    +0.000 A 
BRANCH  15  20
ATOM     20  O   UNL     1       4.045   1.908  19.350  0.00  0.00    +0.000 OA
ATOM     21  C   UNL     1       4.931   1.605  20.425  0.00  0.00    +0.000 C 
ENDBRANCH  15  20
BRANCH  19  22
ATOM     22  O   UNL     1       3.006   6.701  19.368  0.00  0.00    +0.000 OA
ATOM     23  C   UNL     1       2.404   7.366  18.271  0.00  0.00    +0.000 C 
ENDBRANCH  19  22
ENDBRANCH  13  14
ENDBRANCH   1  13
TORSDOF 13
ENDMDL
MODEL 6
REMARK VINA RESULT:      -5.3      1.299      1.456
REMARK  Name = 
REMARK  16 active torsions:
REMARK  status: ('A' for Active; 'I' for Inactive)
REMARK    1  A    between atoms: C_1  and  O_2
REMARK    2  A    between atoms: O_2  and  C_3
REMARK    3  A    between atoms: C_3  and  C_4
REMARK    4  A    between atoms: C_4  and  C_5
REMARK    5  A    between atoms: C_5  and  N_6
REMARK    6  A    between atoms: N_6  and  C_7
REMARK    7  A    between atoms: C_7  and  C_8
REMARK    8  A    between atoms: C_8  and  O_9
REMARK    9  A    between atoms: O_9  and  C_10
REMARK   10  A    between atoms: C_10  and  C_11
REMARK   11  A    between atoms: C_11  and  O_12
REMARK   12  A    between atoms: O_12  and  C_13
REMARK   13  A    between atoms: C_14  and  O_15
REMARK   14  A    between atoms: O_15  and  C_16
REMARK   15  A    between atoms: C_20  and  O_21
REMARK   16  A    between atoms: O_21  and  C_22
REMARK                            x       y       z     vdW  Elec       q    Type
REMARK                         _______ _______ _______ _____ _____    ______ ____
ROOT
ATOM      1  C   UNL     1       4.723   5.838  18.094  0.00  0.00    +0.000 C 
ENDROOT
BRANCH   1   2
ATOM      2  C   UNL     1       3.961   4.949  17.109  0.00  0.00    +0.000 C 
BRANCH   2   3
ATOM      3  O   UNL     1       4.800   4.091  16.327  0.00  0.00    +0.000 OA
BRANCH   3   4
ATOM      4  C   UNL     1       6.185   4.416  16.434  0.00  0.00    +0.000 C 
BRANCH   4   5
ATOM      5  C   UNL     1       6.800   4.485  15.037  0.00  0.00    +0.000 C 
BRANCH   5   6
ATOM      6  N   UNL     1       6.115   3.544  14.147  0.00  0.00    +0.000 NA
ATOM      7  H   UNL     1       6.370   2.590  14.406  0.00  0.00    +0.000 HD
BRANCH   6   8
ATOM      8  C   UNL     1       6.475   3.777  12.752  0.00  0.00    +0.000 C 
BRANCH   8   9
ATOM      9  C   UNL     1       5.689   2.816  11.868  0.00  0.00    +0.000 C 
BRANCH   9  10
ATOM     10  C   UNL     1       4.256   3.294  11.694  0.00  0.00    +0.000 C 
BRANCH  10  12
ATOM     11  C   UNL     1       2.938   3.779   9.808  0.00  0.00    +0.000 C 
ATOM     12  O   UNL     1       4.168   4.027  10.475  0.00  0.00    +0.000 OA
ENDBRANCH  10  12
ENDBRANCH   9  10
ENDBRANCH   8   9
ENDBRANCH   6   8
ENDBRANCH   5   6
ENDBRANCH   4   5
ENDBRANCH   3   4
ENDBRANCH   2   3
ENDBRANCH   1   2
BRANCH   1  13
ATOM     13  O   UNL     1       4.718   5.246  19.398  0.00  0.00    +0.000 OA
BRANCH  13  14
ATOM     14  C   UNL     1       3.510   4.720  19.793  0.00  0.00    +0.000 A 
ATOM     15  C   UNL     1       2.391   5.531  20.113  0.00  0.00    +0.000 A 
ATOM     16  C   UNL     1       1.190   4.949  20.544  0.00  0.00    +0.000 A 
ATOM     17  C   UNL     1       1.090   3.573  20.671  0.00  0.00    +0.000 A 
ATOM     18  C   UNL     1       2.170   2.767  20.314  0.00  0.00    +0.000 A 
ATOM     19  C   UNL     1       3.382   3.321  19.863  0.00  0.00    +0.000 A 
BRANCH  15  20
ATOM     20  O   UNL     1       2.480   6.888  19.901  0.00  0.00    +0.000 OA
ATOM     21  C   UNL     1       1.588   7.694  20.667  0.00  0.00    +0.000 C 
ENDBRANCH  15  20
BRANCH  19  22
ATOM     22  O   UNL     1       4.286   2.342  19.555  0.00  0.00    +0.000 OA
ATOM     23  C   UNL     1       3.893   1.250  18.741  0.00  0.00    +0.000 C 
ENDBRANCH  19  22
ENDBRANCH  13  14
ENDBRANCH   1  13
TORSDOF 13
ENDMDL
MODEL 7
REMARK VINA RESULT:      -5.3      3.784      6.834
REMARK  Name = 
REMARK  16 active torsions:
REMARK  status: ('A' for Active; 'I' for Inactive)
REMARK    1  A    between atoms: C_1  and  O_2
REMARK    2  A    between atoms: O_2  and  C_3
REMARK    3  A    between atoms: C_3  and  C_4
REMARK    4  A    between atoms: C_4  and  C_5
REMARK    5  A    between atoms: C_5  and  N_6
REMARK    6  A    between atoms: N_6  and  C_7
REMARK    7  A    between atoms: C_7  and  C_8
REMARK    8  A    between atoms: C_8  and  O_9
REMARK    9  A    between atoms: O_9  and  C_10
REMARK   10  A    between atoms: C_10  and  C_11
REMARK   11  A    between atoms: C_11  and  O_12
REMARK   12  A    between atoms: O_12  and  C_13
REMARK   13  A    between atoms: C_14  and  O_15
REMARK   14  A    between atoms: O_15  and  C_16
REMARK   15  A    between atoms: C_20  and  O_21
REMARK   16  A    between atoms: O_21  and  C_22
REMARK                            x       y       z     vdW  Elec       q    Type
REMARK                         _______ _______ _______ _____ _____    ______ ____
ROOT
ATOM      1  C   UNL     1       4.706   6.347  17.693  0.00  0.00    +0.000 C 
ENDROOT
BRANCH   1   2
ATOM      2  C   UNL     1       5.633   5.926  16.549  0.00  0.00    +0.000 C 
BRANCH   2   3
ATOM      3  O   UNL     1       7.005   5.785  16.933  0.00  0.00    +0.000 OA
BRANCH   3   4
ATOM      4  C   UNL     1       7.361   6.601  18.047  0.00  0.00    +0.000 C 
BRANCH   4   5
ATOM      5  C   UNL     1       7.805   7.976  17.550  0.00  0.00    +0.000 C 
BRANCH   5   6
ATOM      6  N   UNL     1       8.612   8.637  18.577  0.00  0.00    +0.000 NA
ATOM      7  H   UNL     1       8.221   8.432  19.498  0.00  0.00    +0.000 HD
BRANCH   6   8
ATOM      8  C   UNL     1       8.642  10.082  18.378  0.00  0.00    +0.000 C 
BRANCH   8   9
ATOM      9  C   UNL     1       9.852  10.660  19.104  0.00  0.00    +0.000 C 
BRANCH   9  10
ATOM     10  C   UNL     1       9.484  11.071  20.521  0.00  0.00    +0.000 C 
BRANCH  10  12
ATOM     11  C   UNL     1      11.542  12.125  20.094  0.00  0.00    +0.000 C 
ATOM     12  O   UNL     1      10.426  12.042  20.970  0.00  0.00    +0.000 OA
ENDBRANCH  10  12
ENDBRANCH   9  10
ENDBRANCH   8   9
ENDBRANCH   6   8
ENDBRANCH   5   6
ENDBRANCH   4   5
ENDBRANCH   3   4
ENDBRANCH   2   3
ENDBRANCH   1   2
BRANCH   1  13
ATOM     13  O   UNL     1       3.399   5.797  17.495  0.00  0.00    +0.000 OA
BRANCH  13  14
ATOM     14  C   UNL     1       2.842   5.207  18.605  0.00  0.00    +0.000 A 
ATOM     15  C   UNL     1       2.792   3.799  18.779  0.00  0.00    +0.000 A 
ATOM     16  C   UNL     1       2.182   3.244  19.913  0.00  0.00    +0.000 A 
ATOM     17  C   UNL     1       1.615   4.067  20.871  0.00  0.00    +0.000 A 
ATOM     18  C   UNL     1       1.701   5.451  20.731  0.00  0.00    +0.000 A 
ATOM     19  C   UNL     1       2.319   6.038  19.612  0.00  0.00    +0.000 A 
BRANCH  15  20
ATOM     20  O   UNL     1       3.434   3.001  17.861  0.00  0.00    +0.000 OA
ATOM     21  C   UNL     1       3.515   1.617  18.194  0.00  0.00    +0.000 C 
ENDBRANCH  15  20
BRANCH  19  22
ATOM     22  O   UNL     1       2.301   7.403  19.700  0.00  0.00    +0.000 OA
ATOM     23  C   UNL     1       1.470   8.038  20.656  0.00  0.00    +0.000 C 
ENDBRANCH  19  22
ENDBRANCH  13  14
ENDBRANCH   1  13
TORSDOF 13
ENDMDL
MODEL 8
REMARK VINA RESULT:      -5.2      3.057      7.511
REMARK  Name = 
REMARK  16 active torsions:
REMARK  status: ('A' for Active; 'I' for Inactive)
REMARK    1  A    between atoms: C_1  and  O_2
REMARK    2  A    between atoms: O_2  and  C_3
REMARK    3  A    between atoms: C_3  and  C_4
REMARK    4  A    between atoms: C_4  and  C_5
REMARK    5  A    between atoms: C_5  and  N_6
REMARK    6  A    between atoms: N_6  and  C_7
REMARK    7  A    between atoms: C_7  and  C_8
REMARK    8  A    between atoms: C_8  and  O_9
REMARK    9  A    between atoms: O_9  and  C_10
REMARK   10  A    between atoms: C_10  and  C_11
REMARK   11  A    between atoms: C_11  and  O_12
REMARK   12  A    between atoms: O_12  and  C_13
REMARK   13  A    between atoms: C_14  and  O_15
REMARK   14  A    between atoms: O_15  and  C_16
REMARK   15  A    between atoms: C_20  and  O_21
REMARK   16  A    between atoms: O_21  and  C_22
REMARK                            x       y       z     vdW  Elec       q    Type
REMARK                         _______ _______ _______ _____ _____    ______ ____
ROOT
ATOM      1  C   UNL     1       4.589   2.791  19.858  0.00  0.00    +0.000 C 
ENDROOT
BRANCH   1   2
ATOM      2  C   UNL     1       3.369   2.624  20.768  0.00  0.00    +0.000 C 
BRANCH   2   3
ATOM      3  O   UNL     1       2.814   3.859  21.232  0.00  0.00    +0.000 OA
BRANCH   3   4
ATOM      4  C   UNL     1       1.447   4.032  20.864  0.00  0.00    +0.000 C 
BRANCH   4   5
ATOM      5  C   UNL     1       1.293   5.331  20.074  0.00  0.00    +0.000 C 
BRANCH   5   6
ATOM      6  N   UNL     1       2.337   6.278  20.471  0.00  0.00    +0.000 NA
ATOM      7  H   UNL     1       2.506   6.192  21.474  0.00  0.00    +0.000 HD
BRANCH   6   8
ATOM      8  C   UNL     1       1.950   7.651  20.164  0.00  0.00    +0.000 C 
BRANCH   8   9
ATOM      9  C   UNL     1       1.168   8.224  21.341  0.00  0.00    +0.000 C 
BRANCH   9  10
ATOM     10  C   UNL     1       0.003   9.070  20.852  0.00  0.00    +0.000 C 
BRANCH  10  12
ATOM     11  C   UNL     1       0.024   9.512  23.162  0.00  0.00    +0.000 C 
ATOM     12  O   UNL     1      -0.342   9.999  21.878  0.00  0.00    +0.000 OA
ENDBRANCH  10  12
ENDBRANCH   9  10
ENDBRANCH   8   9
ENDBRANCH   6   8
ENDBRANCH   5   6
ENDBRANCH   4   5
ENDBRANCH   3   4
ENDBRANCH   2   3
ENDBRANCH   1   2
BRANCH   1  13
ATOM     13  O   UNL     1       4.700   4.153  19.430  0.00  0.00    +0.000 OA
BRANCH  13  14
ATOM     14  C   UNL     1       5.163   4.322  18.145  0.00  0.00    +0.000 A 
ATOM     15  C   UNL     1       4.303   4.316  17.016  0.00  0.00    +0.000 A 
ATOM     16  C   UNL     1       4.827   4.457  15.723  0.00  0.00    +0.000 A 
ATOM     17  C   UNL     1       6.192   4.596  15.536  0.00  0.00    +0.000 A 
ATOM     18  C   UNL     1       7.038   4.650  16.643  0.00  0.00    +0.000 A 
ATOM     19  C   UNL     1       6.541   4.526  17.953  0.00  0.00    +0.000 A 
BRANCH  15  20
ATOM     20  O   UNL     1       2.944   4.261  17.225  0.00  0.00    +0.000 OA
ATOM     21  C   UNL     1       2.367   2.957  17.211  0.00  0.00    +0.000 C 
ENDBRANCH  15  20
BRANCH  19  22
ATOM     22  O   UNL     1       7.548   4.628  18.874  0.00  0.00    +0.000 OA
ATOM     23  C   UNL     1       7.937   5.903  19.355  0.00  0.00    +0.000 C 
ENDBRANCH  19  22
ENDBRANCH  13  14
ENDBRANCH   1  13
TORSDOF 13
ENDMDL
MODEL 9
REMARK VINA RESULT:      -5.2      5.120      7.871
REMARK  Name = 
REMARK  16 active torsions:
REMARK  status: ('A' for Active; 'I' for Inactive)
REMARK    1  A    between atoms: C_1  and  O_2
REMARK    2  A    between atoms: O_2  and  C_3
REMARK    3  A    between atoms: C_3  and  C_4
REMARK    4  A    between atoms: C_4  and  C_5
REMARK    5  A    between atoms: C_5  and  N_6
REMARK    6  A    between atoms: N_6  and  C_7
REMARK    7  A    between atoms: C_7  and  C_8
REMARK    8  A    between atoms: C_8  and  O_9
REMARK    9  A    between atoms: O_9  and  C_10
REMARK   10  A    between atoms: C_10  and  C_11
REMARK   11  A    between atoms: C_11  and  O_12
REMARK   12  A    between atoms: O_12  and  C_13
REMARK   13  A    between atoms: C_14  and  O_15
REMARK   14  A    between atoms: O_15  and  C_16
REMARK   15  A    between atoms: C_20  and  O_21
REMARK   16  A    between atoms: O_21  and  C_22
REMARK                            x       y       z     vdW  Elec       q    Type
REMARK                         _______ _______ _______ _____ _____    ______ ____
ROOT
ATOM      1  C   UNL     1       7.747   6.427  18.445  0.00  0.00    +0.000 C 
ENDROOT
BRANCH   1   2
ATOM      2  C   UNL     1       7.164   7.518  17.543  0.00  0.00    +0.000 C 
BRANCH   2   3
ATOM      3  O   UNL     1       8.057   8.610  17.297  0.00  0.00    +0.000 OA
BRANCH   3   4
ATOM      4  C   UNL     1       8.586   9.180  18.493  0.00  0.00    +0.000 C 
BRANCH   4   5
ATOM      5  C   UNL     1       9.013  10.622  18.223  0.00  0.00    +0.000 C 
BRANCH   5   6
ATOM      6  N   UNL     1       9.707  11.161  19.395  0.00  0.00    +0.000 NA
ATOM      7  H   UNL     1       9.230  12.006  19.711  0.00  0.00    +0.000 HD
BRANCH   6   8
ATOM      8  C   UNL     1      11.098  11.479  19.087  0.00  0.00    +0.000 C 
BRANCH   8   9
ATOM      9  C   UNL     1      11.171  12.092  17.693  0.00  0.00    +0.000 C 
BRANCH   9  10
ATOM     10  C   UNL     1      11.192  13.611  17.774  0.00  0.00    +0.000 C 
BRANCH  10  12
ATOM     11  C   UNL     1       9.593  15.325  17.959  0.00  0.00    +0.000 C 
ATOM     12  O   UNL     1       9.999  14.045  18.423  0.00  0.00    +0.000 OA
ENDBRANCH  10  12
ENDBRANCH   9  10
ENDBRANCH   8   9
ENDBRANCH   6   8
ENDBRANCH   5   6
ENDBRANCH   4   5
ENDBRANCH   3   4
ENDBRANCH   2   3
ENDBRANCH   1   2
BRANCH   1  13
ATOM     13  O   UNL     1       7.904   5.210  17.706  0.00  0.00    +0.000 OA
BRANCH  13  14
ATOM     14  C   UNL     1       6.783   4.792  17.028  0.00  0.00    +0.000 A 
ATOM     15  C   UNL     1       6.663   4.887  15.617  0.00  0.00    +0.000 A 
ATOM     16  C   UNL     1       5.485   4.480  14.974  0.00  0.00    +0.000 A 
ATOM     17  C   UNL     1       4.423   3.988  15.715  0.00  0.00    +0.000 A 
ATOM     18  C   UNL     1       4.550   3.848  17.096  0.00  0.00    +0.000 A 
ATOM     19  C   UNL     1       5.724   4.234  17.767  0.00  0.00    +0.000 A 
BRANCH  15  20
ATOM     20  O   UNL     1       7.756   5.298  14.891  0.00  0.00    +0.000 OA
ATOM     21  C   UNL     1       7.658   5.134  13.477  0.00  0.00    +0.000 C 
ENDBRANCH  15  20
BRANCH  19  22
ATOM     22  O   UNL     1       5.628   3.987  19.110  0.00  0.00    +0.000 OA
ATOM     23  C   UNL     1       4.564   3.193  19.606  0.00  0.00    +0.000 C 
ENDBRANCH  19  22
ENDBRANCH  13  14
ENDBRANCH   1  13
TORSDOF 13
ENDMDL
