MODEL 1
REMARK VINA RESULT:      -9.2      0.000      0.000
REMARK  Name = 
REMARK  7 active torsions:
REMARK  status: ('A' for Active; 'I' for Inactive)
REMARK    1  A    between atoms: C_1  and  O_2
REMARK    2  A    between atoms: O_2  and  C_3
REMARK    3  A    between atoms: C_6  and  C_7
REMARK    4  A    between atoms: C_7  and  N_8
REMARK    5  A    between atoms: N_8  and  C_9
REMARK    6  A    between atoms: N_8  and  S_17
REMARK    7  A    between atoms: S_17  and  C_20
REMARK                            x       y       z     vdW  Elec       q    Type
REMARK                         _______ _______ _______ _____ _____    ______ ____
ROOT
ATOM      1  N   UNL     1       4.328   5.024  18.363  0.00  0.00    +0.000 NA
ENDROOT
BRANCH   1   2
ATOM      2  C   UNL     1       3.897   3.576  18.446  0.00  0.00    +0.000 C 
ATOM      3  C   UNL     1       2.632   3.186  17.669  0.00  0.00    +0.000 C 
ATOM      4  C   UNL     1       1.284   3.739  18.119  0.00  0.00    +0.000 C 
ATOM      5  C   UNL     1       0.777   3.327  19.498  0.00  0.00    +0.000 C 
ATOM      6  C   UNL     1       1.748   3.338  20.664  0.00  0.00    +0.000 C 
ATOM      7  N   UNL     1       2.921   2.515  20.504  0.00  0.00    +0.000 N 
ATOM      8  C   UNL     1       4.031   2.875  19.793  0.00  0.00    +0.000 C 
ATOM      9  O   UNL     1       5.133   2.554  20.247  0.00  0.00    +0.000 OA
ATOM     10  H   UNL     1       3.195   1.991  21.329  0.00  0.00    +0.000 HD
ENDBRANCH   1   2
BRANCH   1  11
ATOM     11  S   UNL     1       5.998   5.264  18.087  0.00  0.00    +0.000 S 
ATOM     12  O   UNL     1       6.307   6.677  18.126  0.00  0.00    +0.000 OA
ATOM     13  O   UNL     1       6.730   4.329  18.914  0.00  0.00    +0.000 OA
BRANCH  11  14
ATOM     14  C   UNL     1       6.166   4.774  16.391  0.00  0.00    +0.000 A 
ATOM     15  C   UNL     1       7.045   5.487  15.569  0.00  0.00    +0.000 A 
ATOM     16  C   UNL     1       7.177   5.128  14.223  0.00  0.00    +0.000 A 
ATOM     17  C   UNL     1       6.437   4.060  13.719  0.00  0.00    +0.000 A 
ATOM     18 CL   UNL     1       6.588   3.627  12.060  0.00  0.00    +0.000 Cl
ATOM     19  C   UNL     1       5.573   3.338  14.545  0.00  0.00    +0.000 A 
ATOM     20  C   UNL     1       5.440   3.690  15.889  0.00  0.00    +0.000 A 
ENDBRANCH  11  14
ENDBRANCH   1  11
BRANCH   1  21
ATOM     21  C   UNL     1       3.426   5.969  17.674  0.00  0.00    +0.000 C 
BRANCH  21  25
ATOM     22  C   UNL     1       1.267   9.267  19.493  0.00  0.00    +0.000 A 
ATOM     23  C   UNL     1       1.755   9.346  18.190  0.00  0.00    +0.000 A 
ATOM     24  C   UNL     1       2.522   8.308  17.652  0.00  0.00    +0.000 A 
ATOM     25  C   UNL     1       2.805   7.147  18.396  0.00  0.00    +0.000 A 
ATOM     26  C   UNL     1       2.317   7.075  19.703  0.00  0.00    +0.000 A 
ATOM     27  C   UNL     1       1.574   8.133  20.248  0.00  0.00    +0.000 A 
ATOM     28  F   UNL     1       1.135   7.996  21.506  0.00  0.00    +0.000 F 
BRANCH  22  30
ATOM     29  C   UNL     1      -0.890  10.275  19.433  0.00  0.00    +0.000 C 
ATOM     30  O   UNL     1       0.468  10.318  19.851  0.00  0.00    +0.000 OA
ENDBRANCH  22  30
ENDBRANCH  21  25
ENDBRANCH   1  21
TORSDOF 6
ENDMDL
MODEL 2
REMARK VINA RESULT:      -9.2      2.377      2.785
REMARK  Name = 
REMARK  7 active torsions:
REMARK  status: ('A' for Active; 'I' for Inactive)
REMARK    1  A    between atoms: C_1  and  O_2
REMARK    2  A    between atoms: O_2  and  C_3
REMARK    3  A    between atoms: C_6  and  C_7
REMARK    4  A    between atoms: C_7  and  N_8
REMARK    5  A    between atoms: N_8  and  C_9
REMARK    6  A    between atoms: N_8  and  S_17
REMARK    7  A    between atoms: S_17  and  C_20
REMARK                            x       y       z     vdW  Elec       q    Type
REMARK                         _______ _______ _______ _____ _____    ______ ____
ROOT
ATOM      1  N   UNL     1       3.804   4.245  17.911  0.00  0.00    +0.000 NA
ENDROOT
BRANCH   1   2
ATOM      2  C   UNL     1       3.552   2.889  18.531  0.00  0.00    +0.000 C 
ATOM      3  C   UNL     1       2.186   2.244  18.253  0.00  0.00    +0.000 C 
ATOM      4  C   UNL     1       0.932   2.881  18.841  0.00  0.00    +0.000 C 
ATOM      5  C   UNL     1       0.804   2.914  20.361  0.00  0.00    +0.000 C 
ATOM      6  C   UNL     1       2.014   3.313  21.186  0.00  0.00    +0.000 C 
ATOM      7  N   UNL     1       3.194   2.509  20.989  0.00  0.00    +0.000 N 
ATOM      8  C   UNL     1       4.066   2.651  19.946  0.00  0.00    +0.000 C 
ATOM      9  O   UNL     1       5.270   2.514  20.182  0.00  0.00    +0.000 OA
ATOM     10  H   UNL     1       3.703   2.277  21.835  0.00  0.00    +0.000 HD
ENDBRANCH   1   2
BRANCH   1  11
ATOM     11  S   UNL     1       5.031   4.277  16.721  0.00  0.00    +0.000 S 
ATOM     12  O   UNL     1       5.785   3.043  16.756  0.00  0.00    +0.000 OA
ATOM     13  O   UNL     1       4.445   4.745  15.483  0.00  0.00    +0.000 OA
BRANCH  11  14
ATOM     14  C   UNL     1       6.118   5.531  17.344  0.00  0.00    +0.000 A 
ATOM     15  C   UNL     1       6.051   6.815  16.793  0.00  0.00    +0.000 A 
ATOM     16  C   UNL     1       6.914   7.813  17.258  0.00  0.00    +0.000 A 
ATOM     17  C   UNL     1       7.826   7.520  18.270  0.00  0.00    +0.000 A 
ATOM     18 CL   UNL     1       8.897   8.743  18.832  0.00  0.00    +0.000 Cl
ATOM     19  C   UNL     1       7.880   6.243  18.832  0.00  0.00    +0.000 A 
ATOM     20  C   UNL     1       7.019   5.244  18.374  0.00  0.00    +0.000 A 
ENDBRANCH  11  14
ENDBRANCH   1  11
BRANCH   1  21
ATOM     21  C   UNL     1       2.634   5.104  17.642  0.00  0.00    +0.000 C 
BRANCH  21  25
ATOM     22  C   UNL     1       1.640   8.898  19.504  0.00  0.00    +0.000 A 
ATOM     23  C   UNL     1       1.951   8.811  18.148  0.00  0.00    +0.000 A 
ATOM     24  C   UNL     1       2.353   7.595  17.585  0.00  0.00    +0.000 A 
ATOM     25  C   UNL     1       2.432   6.423  18.360  0.00  0.00    +0.000 A 
ATOM     26  C   UNL     1       2.122   6.517  19.719  0.00  0.00    +0.000 A 
ATOM     27  C   UNL     1       1.750   7.746  20.284  0.00  0.00    +0.000 A 
ATOM     28  F   UNL     1       1.464   7.763  21.592  0.00  0.00    +0.000 F 
BRANCH  22  30
ATOM     29  C   UNL     1      -0.188  10.417  19.670  0.00  0.00    +0.000 C 
ATOM     30  O   UNL     1       1.186  10.130  19.890  0.00  0.00    +0.000 OA
ENDBRANCH  22  30
ENDBRANCH  21  25
ENDBRANCH   1  21
TORSDOF 6
ENDMDL
MODEL 3
REMARK VINA RESULT:      -9.2      0.450      1.007
REMARK  Name = 
REMARK  7 active torsions:
REMARK  status: ('A' for Active; 'I' for Inactive)
REMARK    1  A    between atoms: C_1  and  O_2
REMARK    2  A    between atoms: O_2  and  C_3
REMARK    3  A    between atoms: C_6  and  C_7
REMARK    4  A    between atoms: C_7  and  N_8
REMARK    5  A    between atoms: N_8  and  C_9
REMARK    6  A    between atoms: N_8  and  S_17
REMARK    7  A    between atoms: S_17  and  C_20
REMARK                            x       y       z     vdW  Elec       q    Type
REMARK                         _______ _______ _______ _____ _____    ______ ____
ROOT
ATOM      1  N   UNL     1       4.415   5.084  18.326  0.00  0.00    +0.000 NA
ENDROOT
BRANCH   1   2
ATOM      2  C   UNL     1       3.954   3.646  18.413  0.00  0.00    +0.000 C 
ATOM      3  C   UNL     1       2.679   3.281  17.640  0.00  0.00    +0.000 C 
ATOM      4  C   UNL     1       1.344   3.864  18.092  0.00  0.00    +0.000 C 
ATOM      5  C   UNL     1       0.832   3.465  19.473  0.00  0.00    +0.000 C 
ATOM      6  C   UNL     1       1.805   3.457  20.637  0.00  0.00    +0.000 C 
ATOM      7  N   UNL     1       2.960   2.609  20.475  0.00  0.00    +0.000 N 
ATOM      8  C   UNL     1       4.077   2.945  19.761  0.00  0.00    +0.000 C 
ATOM      9  O   UNL     1       5.172   2.600  20.213  0.00  0.00    +0.000 OA
ATOM     10  H   UNL     1       3.225   2.081  21.300  0.00  0.00    +0.000 HD
ENDBRANCH   1   2
BRANCH   1  11
ATOM     11  S   UNL     1       6.088   5.288  18.035  0.00  0.00    +0.000 S 
ATOM     12  O   UNL     1       6.433   6.691  18.099  0.00  0.00    +0.000 OA
ATOM     13  O   UNL     1       6.805   4.319  18.835  0.00  0.00    +0.000 OA
BRANCH  11  14
ATOM     14  C   UNL     1       6.224   4.829  16.328  0.00  0.00    +0.000 A 
ATOM     15  C   UNL     1       5.444   3.770  15.852  0.00  0.00    +0.000 A 
ATOM     16  C   UNL     1       5.552   3.380  14.513  0.00  0.00    +0.000 A 
ATOM     17  C   UNL     1       6.429   4.055  13.667  0.00  0.00    +0.000 A 
ATOM     18 CL   UNL     1       6.573   3.566  12.023  0.00  0.00    +0.000 Cl
ATOM     19  C   UNL     1       7.195   5.123  14.139  0.00  0.00    +0.000 A 
ATOM     20  C   UNL     1       7.089   5.519  15.473  0.00  0.00    +0.000 A 
ENDBRANCH  11  14
ENDBRANCH   1  11
BRANCH   1  21
ATOM     21  C   UNL     1       3.528   6.048  17.646  0.00  0.00    +0.000 C 
BRANCH  21  25
ATOM     22  C   UNL     1       1.192   9.165  19.564  0.00  0.00    +0.000 A 
ATOM     23  C   UNL     1       1.642   9.295  18.251  0.00  0.00    +0.000 A 
ATOM     24  C   UNL     1       2.466   8.320  17.680  0.00  0.00    +0.000 A 
ATOM     25  C   UNL     1       2.845   7.171  18.399  0.00  0.00    +0.000 A 
ATOM     26  C   UNL     1       2.394   7.048  19.716  0.00  0.00    +0.000 A 
ATOM     27  C   UNL     1       1.594   8.045  20.293  0.00  0.00    +0.000 A 
ATOM     28  F   UNL     1       1.195   7.861  21.559  0.00  0.00    +0.000 F 
BRANCH  22  30
ATOM     29  C   UNL     1       0.900  11.320  20.535  0.00  0.00    +0.000 C 
ATOM     30  O   UNL     1       0.331  10.154  19.955  0.00  0.00    +0.000 OA
ENDBRANCH  22  30
ENDBRANCH  21  25
ENDBRANCH   1  21
TORSDOF 6
ENDMDL
MODEL 4
REMARK VINA RESULT:      -8.9      0.977      1.647
REMARK  Name = 
REMARK  7 active torsions:
REMARK  status: ('A' for Active; 'I' for Inactive)
REMARK    1  A    between atoms: C_1  and  O_2
REMARK    2  A    between atoms: O_2  and  C_3
REMARK    3  A    between atoms: C_6  and  C_7
REMARK    4  A    between atoms: C_7  and  N_8
REMARK    5  A    between atoms: N_8  and  C_9
REMARK    6  A    between atoms: N_8  and  S_17
REMARK    7  A    between atoms: S_17  and  C_20
REMARK                            x       y       z     vdW  Elec       q    Type
REMARK                         _______ _______ _______ _____ _____    ______ ____
ROOT
ATOM      1  N   UNL     1       4.330   4.957  18.352  0.00  0.00    +0.000 NA
ENDROOT
BRANCH   1   2
ATOM      2  C   UNL     1       3.918   3.503  18.430  0.00  0.00    +0.000 C 
ATOM      3  C   UNL     1       2.677   3.091  17.624  0.00  0.00    +0.000 C 
ATOM      4  C   UNL     1       1.312   3.627  18.041  0.00  0.00    +0.000 C 
ATOM      5  C   UNL     1       0.779   3.211  19.409  0.00  0.00    +0.000 C 
ATOM      6  C   UNL     1       1.722   3.239  20.597  0.00  0.00    +0.000 C 
ATOM      7  N   UNL     1       2.910   2.433  20.468  0.00  0.00    +0.000 N 
ATOM      8  C   UNL     1       4.031   2.808  19.782  0.00  0.00    +0.000 C 
ATOM      9  O   UNL     1       5.127   2.503  20.262  0.00  0.00    +0.000 OA
ATOM     10  H   UNL     1       3.172   1.915  21.300  0.00  0.00    +0.000 HD
ENDBRANCH   1   2
BRANCH   1  11
ATOM     11  S   UNL     1       6.001   5.220  18.108  0.00  0.00    +0.000 S 
ATOM     12  O   UNL     1       6.301   6.631  18.216  0.00  0.00    +0.000 OA
ATOM     13  O   UNL     1       6.730   4.252  18.900  0.00  0.00    +0.000 OA
BRANCH  11  14
ATOM     14  C   UNL     1       6.193   4.811  16.393  0.00  0.00    +0.000 A 
ATOM     15  C   UNL     1       5.496   3.711  15.882  0.00  0.00    +0.000 A 
ATOM     16  C   UNL     1       5.650   3.361  14.536  0.00  0.00    +0.000 A 
ATOM     17  C   UNL     1       6.489   4.115  13.719  0.00  0.00    +0.000 A 
ATOM     18 CL   UNL     1       6.689   3.675  12.067  0.00  0.00    +0.000 Cl
ATOM     19  C   UNL     1       7.171   5.223  14.226  0.00  0.00    +0.000 A 
ATOM     20  C   UNL     1       7.019   5.579  15.567  0.00  0.00    +0.000 A 
ENDBRANCH  11  14
ENDBRANCH   1  11
BRANCH   1  21
ATOM     21  C   UNL     1       3.428   5.887  17.644  0.00  0.00    +0.000 C 
BRANCH  21  25
ATOM     22  C   UNL     1       1.377   8.888  20.018  0.00  0.00    +0.000 A 
ATOM     23  C   UNL     1       1.745   7.657  20.559  0.00  0.00    +0.000 A 
ATOM     24  C   UNL     1       2.327   6.671  19.756  0.00  0.00    +0.000 A 
ATOM     25  C   UNL     1       2.580   6.896  18.390  0.00  0.00    +0.000 A 
ATOM     26  C   UNL     1       2.205   8.130  17.852  0.00  0.00    +0.000 A 
ATOM     27  C   UNL     1       1.593   9.103  18.655  0.00  0.00    +0.000 A 
ATOM     28  F   UNL     1       1.262  10.264  18.075  0.00  0.00    +0.000 F 
BRANCH  22  30
ATOM     29  C   UNL     1       0.883   9.363  22.299  0.00  0.00    +0.000 C 
ATOM     30  O   UNL     1       0.896   9.777  20.940  0.00  0.00    +0.000 OA
ENDBRANCH  22  30
ENDBRANCH  21  25
ENDBRANCH   1  21
TORSDOF 6
ENDMDL
MODEL 5
REMARK VINA RESULT:      -8.4      5.003      7.991
REMARK  Name = 
REMARK  7 active torsions:
REMARK  status: ('A' for Active; 'I' for Inactive)
REMARK    1  A    between atoms: C_1  and  O_2
REMARK    2  A    between atoms: O_2  and  C_3
REMARK    3  A    between atoms: C_6  and  C_7
REMARK    4  A    between atoms: C_7  and  N_8
REMARK    5  A    between atoms: N_8  and  C_9
REMARK    6  A    between atoms: N_8  and  S_17
REMARK    7  A    between atoms: S_17  and  C_20
REMARK                            x       y       z     vdW  Elec       q    Type
REMARK                         _______ _______ _______ _____ _____    ______ ____
ROOT
ATOM      1  N   UNL     1       0.212  10.620  20.177  0.00  0.00    +0.000 NA
ENDROOT
BRANCH   1   2
ATOM      2  C   UNL     1       1.102  11.843  20.202  0.00  0.00    +0.000 C 
ATOM      3  C   UNL     1       0.772  12.917  21.248  0.00  0.00    +0.000 C 
ATOM      4  C   UNL     1      -0.523  13.712  21.112  0.00  0.00    +0.000 C 
ATOM      5  C   UNL     1      -0.674  14.608  19.886  0.00  0.00    +0.000 C 
ATOM      6  C   UNL     1      -0.265  14.063  18.531  0.00  0.00    +0.000 C 
ATOM      7  N   UNL     1       1.103  13.620  18.426  0.00  0.00    +0.000 N 
ATOM      8  C   UNL     1       1.563  12.410  18.864  0.00  0.00    +0.000 C 
ATOM      9  O   UNL     1       2.408  11.833  18.175  0.00  0.00    +0.000 OA
ATOM     10  H   UNL     1       1.573  13.876  17.564  0.00  0.00    +0.000 HD
ENDBRANCH   1   2
BRANCH   1  11
ATOM     11  S   UNL     1       0.680   9.366  21.241  0.00  0.00    +0.000 S 
ATOM     12  O   UNL     1       1.696   9.845  22.152  0.00  0.00    +0.000 OA
ATOM     13  O   UNL     1      -0.520   8.733  21.746  0.00  0.00    +0.000 OA
BRANCH  11  14
ATOM     14  C   UNL     1       1.499   8.238  20.145  0.00  0.00    +0.000 A 
ATOM     15  C   UNL     1       1.814   6.957  20.610  0.00  0.00    +0.000 A 
ATOM     16  C   UNL     1       2.477   6.059  19.766  0.00  0.00    +0.000 A 
ATOM     17  C   UNL     1       2.811   6.449  18.471  0.00  0.00    +0.000 A 
ATOM     18 CL   UNL     1       3.640   5.350  17.438  0.00  0.00    +0.000 Cl
ATOM     19  C   UNL     1       2.481   7.721  18.002  0.00  0.00    +0.000 A 
ATOM     20  C   UNL     1       1.815   8.620  18.838  0.00  0.00    +0.000 A 
ENDBRANCH  11  14
ENDBRANCH   1  11
BRANCH   1  21
ATOM     21  C   UNL     1      -1.243  10.834  20.045  0.00  0.00    +0.000 C 
BRANCH  21  25
ATOM     22  C   UNL     1      -3.320  10.674  16.236  0.00  0.00    +0.000 A 
ATOM     23  C   UNL     1      -2.134   9.974  16.449  0.00  0.00    +0.000 A 
ATOM     24  C   UNL     1      -1.434  10.107  17.653  0.00  0.00    +0.000 A 
ATOM     25  C   UNL     1      -1.915  10.927  18.690  0.00  0.00    +0.000 A 
ATOM     26  C   UNL     1      -3.102  11.629  18.470  0.00  0.00    +0.000 A 
ATOM     27  C   UNL     1      -3.783  11.516  17.249  0.00  0.00    +0.000 A 
ATOM     28  F   UNL     1      -4.917  12.215  17.106  0.00  0.00    +0.000 F 
BRANCH  22  30
ATOM     29  C   UNL     1      -3.103   9.929  13.984  0.00  0.00    +0.000 C 
ATOM     30  O   UNL     1      -3.931  10.380  15.047  0.00  0.00    +0.000 OA
ENDBRANCH  22  30
ENDBRANCH  21  25
ENDBRANCH   1  21
TORSDOF 6
ENDMDL
MODEL 6
REMARK VINA RESULT:      -8.4      3.182      5.448
REMARK  Name = 
REMARK  7 active torsions:
REMARK  status: ('A' for Active; 'I' for Inactive)
REMARK    1  A    between atoms: C_1  and  O_2
REMARK    2  A    between atoms: O_2  and  C_3
REMARK    3  A    between atoms: C_6  and  C_7
REMARK    4  A    between atoms: C_7  and  N_8
REMARK    5  A    between atoms: N_8  and  C_9
REMARK    6  A    between atoms: N_8  and  S_17
REMARK    7  A    between atoms: S_17  and  C_20
REMARK                            x       y       z     vdW  Elec       q    Type
REMARK                         _______ _______ _______ _____ _____    ______ ____
ROOT
ATOM      1  N   UNL     1       4.472   4.826  17.548  0.00  0.00    +0.000 NA
ENDROOT
BRANCH   1   2
ATOM      2  C   UNL     1       5.919   4.681  17.129  0.00  0.00    +0.000 C 
ATOM      3  C   UNL     1       6.939   4.414  18.245  0.00  0.00    +0.000 C 
ATOM      4  C   UNL     1       7.219   5.508  19.270  0.00  0.00    +0.000 C 
ATOM      5  C   UNL     1       7.846   6.804  18.765  0.00  0.00    +0.000 C 
ATOM      6  C   UNL     1       7.306   7.426  17.491  0.00  0.00    +0.000 C 
ATOM      7  N   UNL     1       7.348   6.584  16.322  0.00  0.00    +0.000 N 
ATOM      8  C   UNL     1       6.434   5.609  16.034  0.00  0.00    +0.000 C 
ATOM      9  O   UNL     1       6.097   5.467  14.855  0.00  0.00    +0.000 OA
ATOM     10  H   UNL     1       7.637   7.048  15.467  0.00  0.00    +0.000 HD
ENDBRANCH   1   2
BRANCH   1  11
ATOM     11  S   UNL     1       3.490   3.464  17.229  0.00  0.00    +0.000 S 
ATOM     12  O   UNL     1       2.393   3.837  16.363  0.00  0.00    +0.000 OA
ATOM     13  O   UNL     1       4.354   2.356  16.883  0.00  0.00    +0.000 OA
BRANCH  11  14
ATOM     14  C   UNL     1       2.770   3.147  18.818  0.00  0.00    +0.000 A 
ATOM     15  C   UNL     1       1.398   3.356  18.990  0.00  0.00    +0.000 A 
ATOM     16  C   UNL     1       0.815   3.130  20.242  0.00  0.00    +0.000 A 
ATOM     17  C   UNL     1       1.607   2.694  21.302  0.00  0.00    +0.000 A 
ATOM     18 CL   UNL     1       0.893   2.430  22.845  0.00  0.00    +0.000 Cl
ATOM     19  C   UNL     1       2.974   2.469  21.125  0.00  0.00    +0.000 A 
ATOM     20  C   UNL     1       3.560   2.689  19.878  0.00  0.00    +0.000 A 
ENDBRANCH  11  14
ENDBRANCH   1  11
BRANCH   1  21
ATOM     21  C   UNL     1       4.194   5.530  18.816  0.00  0.00    +0.000 C 
BRANCH  21  25
ATOM     22  C   UNL     1       1.482   8.872  19.384  0.00  0.00    +0.000 A 
ATOM     23  C   UNL     1       1.616   7.871  20.345  0.00  0.00    +0.000 A 
ATOM     24  C   UNL     1       2.429   6.758  20.106  0.00  0.00    +0.000 A 
ATOM     25  C   UNL     1       3.152   6.626  18.906  0.00  0.00    +0.000 A 
ATOM     26  C   UNL     1       3.011   7.630  17.945  0.00  0.00    +0.000 A 
ATOM     27  C   UNL     1       2.169   8.728  18.178  0.00  0.00    +0.000 A 
ATOM     28  F   UNL     1       2.083   9.655  17.215  0.00  0.00    +0.000 F 
BRANCH  22  30
ATOM     29  C   UNL     1      -0.630   9.972  19.352  0.00  0.00    +0.000 C 
ATOM     30  O   UNL     1       0.720   9.933  19.792  0.00  0.00    +0.000 OA
ENDBRANCH  22  30
ENDBRANCH  21  25
ENDBRANCH   1  21
TORSDOF 6
ENDMDL
MODEL 7
REMARK VINA RESULT:      -8.3      2.551      3.061
REMARK  Name = 
REMARK  7 active torsions:
REMARK  status: ('A' for Active; 'I' for Inactive)
REMARK    1  A    between atoms: C_1  and  O_2
REMARK    2  A    between atoms: O_2  and  C_3
REMARK    3  A    between atoms: C_6  and  C_7
REMARK    4  A    between atoms: C_7  and  N_8
REMARK    5  A    between atoms: N_8  and  C_9
REMARK    6  A    between atoms: N_8  and  S_17
REMARK    7  A    between atoms: S_17  and  C_20
REMARK                            x       y       z     vdW  Elec       q    Type
REMARK                         _______ _______ _______ _____ _____    ______ ____
ROOT
ATOM      1  N   UNL     1       3.965   4.850  18.762  0.00  0.00    +0.000 NA
ENDROOT
BRANCH   1   2
ATOM      2  C   UNL     1       3.529   3.776  19.734  0.00  0.00    +0.000 C 
ATOM      3  C   UNL     1       3.427   2.345  19.185  0.00  0.00    +0.000 C 
ATOM      4  C   UNL     1       2.349   2.021  18.157  0.00  0.00    +0.000 C 
ATOM      5  C   UNL     1       0.893   2.145  18.598  0.00  0.00    +0.000 C 
ATOM      6  C   UNL     1       0.478   3.359  19.406  0.00  0.00    +0.000 C 
ATOM      7  N   UNL     1       1.196   3.560  20.641  0.00  0.00    +0.000 N 
ATOM      8  C   UNL     1       2.434   4.130  20.734  0.00  0.00    +0.000 C 
ATOM      9  O   UNL     1       2.650   4.881  21.690  0.00  0.00    +0.000 OA
ATOM     10  H   UNL     1       0.624   3.845  21.429  0.00  0.00    +0.000 HD
ENDBRANCH   1   2
BRANCH   1  11
ATOM     11  S   UNL     1       5.306   4.437  17.785  0.00  0.00    +0.000 S 
ATOM     12  O   UNL     1       6.090   3.407  18.432  0.00  0.00    +0.000 OA
ATOM     13  O   UNL     1       4.837   4.258  16.428  0.00  0.00    +0.000 OA
BRANCH  11  14
ATOM     14  C   UNL     1       6.284   5.913  17.858  0.00  0.00    +0.000 A 
ATOM     15  C   UNL     1       7.406   5.938  18.693  0.00  0.00    +0.000 A 
ATOM     16  C   UNL     1       8.179   7.100  18.778  0.00  0.00    +0.000 A 
ATOM     17  C   UNL     1       7.828   8.219  18.026  0.00  0.00    +0.000 A 
ATOM     18 CL   UNL     1       8.770   9.654  18.142  0.00  0.00    +0.000 Cl
ATOM     19  C   UNL     1       6.718   8.188  17.179  0.00  0.00    +0.000 A 
ATOM     20  C   UNL     1       5.945   7.030  17.087  0.00  0.00    +0.000 A 
ENDBRANCH  11  14
ENDBRANCH   1  11
BRANCH   1  21
ATOM     21  C   UNL     1       2.910   5.638  18.094  0.00  0.00    +0.000 C 
BRANCH  21  25
ATOM     22  C   UNL     1       1.469   9.585  19.187  0.00  0.00    +0.000 A 
ATOM     23  C   UNL     1       1.960   9.316  17.910  0.00  0.00    +0.000 A 
ATOM     24  C   UNL     1       2.500   8.063  17.603  0.00  0.00    +0.000 A 
ATOM     25  C   UNL     1       2.542   7.032  18.560  0.00  0.00    +0.000 A 
ATOM     26  C   UNL     1       2.052   7.308  19.839  0.00  0.00    +0.000 A 
ATOM     27  C   UNL     1       1.541   8.577  20.150  0.00  0.00    +0.000 A 
ATOM     28  F   UNL     1       1.086   8.773  21.394  0.00  0.00    +0.000 F 
BRANCH  22  30
ATOM     29  C   UNL     1       1.601  11.922  18.744  0.00  0.00    +0.000 C 
ATOM     30  O   UNL     1       0.901  10.824  19.312  0.00  0.00    +0.000 OA
ENDBRANCH  22  30
ENDBRANCH  21  25
ENDBRANCH   1  21
TORSDOF 6
ENDMDL
MODEL 8
REMARK VINA RESULT:      -8.3      2.521      3.016
REMARK  Name = 
REMARK  7 active torsions:
REMARK  status: ('A' for Active; 'I' for Inactive)
REMARK    1  A    between atoms: C_1  and  O_2
REMARK    2  A    between atoms: O_2  and  C_3
REMARK    3  A    between atoms: C_6  and  C_7
REMARK    4  A    between atoms: C_7  and  N_8
REMARK    5  A    between atoms: N_8  and  C_9
REMARK    6  A    between atoms: N_8  and  S_17
REMARK    7  A    between atoms: S_17  and  C_20
REMARK                            x       y       z     vdW  Elec       q    Type
REMARK                         _______ _______ _______ _____ _____    ______ ____
ROOT
ATOM      1  N   UNL     1       3.977   4.875  18.735  0.00  0.00    +0.000 NA
ENDROOT
BRANCH   1   2
ATOM      2  C   UNL     1       3.563   3.789  19.703  0.00  0.00    +0.000 C 
ATOM      3  C   UNL     1       3.492   2.358  19.149  0.00  0.00    +0.000 C 
ATOM      4  C   UNL     1       2.423   2.015  18.118  0.00  0.00    +0.000 C 
ATOM      5  C   UNL     1       0.964   2.105  18.556  0.00  0.00    +0.000 C 
ATOM      6  C   UNL     1       0.521   3.308  19.368  0.00  0.00    +0.000 C 
ATOM      7  N   UNL     1       1.232   3.520  20.605  0.00  0.00    +0.000 N 
ATOM      8  C   UNL     1       2.459   4.116  20.703  0.00  0.00    +0.000 C 
ATOM      9  O   UNL     1       2.657   4.868  21.661  0.00  0.00    +0.000 OA
ATOM     10  H   UNL     1       0.654   3.790  21.393  0.00  0.00    +0.000 HD
ENDBRANCH   1   2
BRANCH   1  11
ATOM     11  S   UNL     1       5.317   4.487  17.748  0.00  0.00    +0.000 S 
ATOM     12  O   UNL     1       6.094   3.432  18.360  0.00  0.00    +0.000 OA
ATOM     13  O   UNL     1       4.849   4.358  16.384  0.00  0.00    +0.000 OA
BRANCH  11  14
ATOM     14  C   UNL     1       6.304   5.955  17.872  0.00  0.00    +0.000 A 
ATOM     15  C   UNL     1       5.936   7.079  17.126  0.00  0.00    +0.000 A 
ATOM     16  C   UNL     1       6.714   8.240  17.196  0.00  0.00    +0.000 A 
ATOM     17  C   UNL     1       7.841   8.266  18.014  0.00  0.00    +0.000 A 
ATOM     18 CL   UNL     1       8.806   9.689  18.089  0.00  0.00    +0.000 Cl
ATOM     19  C   UNL     1       8.198   7.150  18.772  0.00  0.00    +0.000 A 
ATOM     20  C   UNL     1       7.424   5.989  18.709  0.00  0.00    +0.000 A 
ENDBRANCH  11  14
ENDBRANCH   1  11
BRANCH   1  21
ATOM     21  C   UNL     1       2.906   5.652  18.080  0.00  0.00    +0.000 C 
BRANCH  21  25
ATOM     22  C   UNL     1       1.436   9.585  19.188  0.00  0.00    +0.000 A 
ATOM     23  C   UNL     1       1.931   9.325  17.911  0.00  0.00    +0.000 A 
ATOM     24  C   UNL     1       2.480   8.077  17.599  0.00  0.00    +0.000 A 
ATOM     25  C   UNL     1       2.528   7.042  18.552  0.00  0.00    +0.000 A 
ATOM     26  C   UNL     1       2.034   7.309  19.831  0.00  0.00    +0.000 A 
ATOM     27  C   UNL     1       1.514   8.573  20.146  0.00  0.00    +0.000 A 
ATOM     28  F   UNL     1       1.056   8.759  21.391  0.00  0.00    +0.000 F 
BRANCH  22  30
ATOM     29  C   UNL     1      -0.554  10.892  19.192  0.00  0.00    +0.000 C 
ATOM     30  O   UNL     1       0.859  10.818  19.318  0.00  0.00    +0.000 OA
ENDBRANCH  22  30
ENDBRANCH  21  25
ENDBRANCH   1  21
TORSDOF 6
ENDMDL
MODEL 9
REMARK VINA RESULT:      -8.3      1.215      1.617
REMARK  Name = 
REMARK  7 active torsions:
REMARK  status: ('A' for Active; 'I' for Inactive)
REMARK    1  A    between atoms: C_1  and  O_2
REMARK    2  A    between atoms: O_2  and  C_3
REMARK    3  A    between atoms: C_6  and  C_7
REMARK    4  A    between atoms: C_7  and  N_8
REMARK    5  A    between atoms: N_8  and  C_9
REMARK    6  A    between atoms: N_8  and  S_17
REMARK    7  A    between atoms: S_17  and  C_20
REMARK                            x       y       z     vdW  Elec       q    Type
REMARK                         _______ _______ _______ _____ _____    ______ ____
ROOT
ATOM      1  N   UNL     1       3.851   4.757  19.491  0.00  0.00    +0.000 NA
ENDROOT
BRANCH   1   2
ATOM      2  C   UNL     1       3.430   3.401  20.013  0.00  0.00    +0.000 C 
ATOM      3  C   UNL     1       3.297   2.272  18.979  0.00  0.00    +0.000 C 
ATOM      4  C   UNL     1       2.190   2.350  17.935  0.00  0.00    +0.000 C 
ATOM      5  C   UNL     1       0.747   2.303  18.431  0.00  0.00    +0.000 C 
ATOM      6  C   UNL     1       0.366   3.136  19.641  0.00  0.00    +0.000 C 
ATOM      7  N   UNL     1       1.118   2.868  20.842  0.00  0.00    +0.000 N 
ATOM      8  C   UNL     1       2.365   3.363  21.103  0.00  0.00    +0.000 C 
ATOM      9  O   UNL     1       2.614   3.710  22.261  0.00  0.00    +0.000 OA
ATOM     10  H   UNL     1       0.571   2.844  21.696  0.00  0.00    +0.000 HD
ENDBRANCH   1   2
BRANCH   1  11
ATOM     11  S   UNL     1       5.507   4.891  19.088  0.00  0.00    +0.000 S 
ATOM     12  O   UNL     1       5.971   6.237  19.344  0.00  0.00    +0.000 OA
ATOM     13  O   UNL     1       6.202   3.755  19.655  0.00  0.00    +0.000 OA
BRANCH  11  14
ATOM     14  C   UNL     1       5.474   4.713  17.324  0.00  0.00    +0.000 A 
ATOM     15  C   UNL     1       5.541   3.428  16.775  0.00  0.00    +0.000 A 
ATOM     16  C   UNL     1       5.535   3.269  15.386  0.00  0.00    +0.000 A 
ATOM     17  C   UNL     1       5.456   4.391  14.563  0.00  0.00    +0.000 A 
ATOM     18 CL   UNL     1       5.464   4.196  12.854  0.00  0.00    +0.000 Cl
ATOM     19  C   UNL     1       5.371   5.672  15.112  0.00  0.00    +0.000 A 
ATOM     20  C   UNL     1       5.373   5.837  16.498  0.00  0.00    +0.000 A 
ENDBRANCH  11  14
ENDBRANCH   1  11
BRANCH   1  21
ATOM     21  C   UNL     1       2.918   5.465  18.593  0.00  0.00    +0.000 C 
BRANCH  21  25
ATOM     22  C   UNL     1       1.236   9.427  19.166  0.00  0.00    +0.000 A 
ATOM     23  C   UNL     1       1.749   9.024  17.934  0.00  0.00    +0.000 A 
ATOM     24  C   UNL     1       2.365   7.776  17.791  0.00  0.00    +0.000 A 
ATOM     25  C   UNL     1       2.464   6.883  18.875  0.00  0.00    +0.000 A 
ATOM     26  C   UNL     1       1.951   7.294  20.107  0.00  0.00    +0.000 A 
ATOM     27  C   UNL     1       1.363   8.559  20.251  0.00  0.00    +0.000 A 
ATOM     28  F   UNL     1       0.890   8.886  21.461  0.00  0.00    +0.000 F 
BRANCH  22  30
ATOM     29  C   UNL     1      -0.827  10.615  19.082  0.00  0.00    +0.000 C 
ATOM     30  O   UNL     1       0.593  10.634  19.130  0.00  0.00    +0.000 OA
ENDBRANCH  22  30
ENDBRANCH  21  25
ENDBRANCH   1  21
TORSDOF 6
ENDMDL
