MODEL 1
REMARK VINA RESULT:      -6.8      0.000      0.000
REMARK  Name = 
REMARK  10 active torsions:
REMARK  status: ('A' for Active; 'I' for Inactive)
REMARK    1  A    between atoms: C_1  and  C_2
REMARK    2  A    between atoms: C_4  and  C_5
REMARK    3  A    between atoms: C_5  and  N_6
REMARK    4  A    between atoms: N_6  and  C_7
REMARK    5  A    between atoms: C_7  and  C_8
REMARK    6  A    between atoms: C_9  and  C_10
REMARK    7  A    between atoms: C_10  and  C_11
REMARK    8  A    between atoms: C_10  and  C_12
REMARK    9  A    between atoms: N_14  and  C_15
REMARK   10  A    between atoms: C_16  and  N_17
REMARK                            x       y       z     vdW  Elec       q    Type
REMARK                         _______ _______ _______ _____ _____    ______ ____
ROOT
ATOM      1  C   UNL     1       3.115   6.087  18.535  0.00  0.00    +0.000 A 
ATOM      2  C   UNL     1       2.288   7.036  19.243  0.00  0.00    +0.000 A 
ATOM      3  N   UNL     1       1.523   6.442  20.162  0.00  0.00    +0.000 NA
ATOM      4  N   UNL     1       1.860   5.150  20.089  0.00  0.00    +0.000 N 
ATOM      5  C   UNL     1       1.056   4.201  20.829  0.00  0.00    +0.000 C 
ATOM      6  C   UNL     1       2.878   4.876  19.193  0.00  0.00    +0.000 A 
ENDROOT
BRANCH   6   7
ATOM      7  N   UNL     1       3.349   3.588  19.103  0.00  0.00    +0.000 N 
ATOM      8  C   UNL     1       3.383   2.869  17.815  0.00  0.00    +0.000 C 
ATOM      9  C   UNL     1       3.452   1.354  18.091  0.00  0.00    +0.000 C 
ATOM     10  O   UNL     1       4.596   1.006  18.894  0.00  0.00    +0.000 OA
ATOM     11  C   UNL     1       4.581   1.734  20.136  0.00  0.00    +0.000 C 
ATOM     12  C   UNL     1       4.559   3.252  19.896  0.00  0.00    +0.000 C 
ENDBRANCH   6   7
BRANCH   2  13
ATOM     13  C   UNL     1       2.174   8.535  19.065  0.00  0.00    +0.000 C 
ATOM     14  C   UNL     1       1.715   8.904  17.653  0.00  0.00    +0.000 C 
ATOM     15  C   UNL     1       1.232   9.174  20.098  0.00  0.00    +0.000 C 
ENDBRANCH   2  13
BRANCH   1  16
ATOM     16  C   UNL     1       3.975   6.459  17.356  0.00  0.00    +0.000 C 
BRANCH  16  17
ATOM     17  N   UNL     1       5.369   6.612  17.728  0.00  0.00    +0.000 NA
ATOM     18  H   UNL     1       5.798   7.338  17.155  0.00  0.00    +0.000 HD
BRANCH  17  19
ATOM     19  C   UNL     1       6.139   5.379  17.603  0.00  0.00    +0.000 C 
BRANCH  19  23
ATOM     20  C   UNL     1       6.479   3.728  12.778  0.00  0.00    +0.000 C 
ATOM     21  C   UNL     1       6.521   4.399  14.090  0.00  0.00    +0.000 A 
ATOM     22  C   UNL     1       5.778   4.305  15.239  0.00  0.00    +0.000 A 
ATOM     23  C   UNL     1       6.430   5.174  16.150  0.00  0.00    +0.000 A 
ATOM     24  N   UNL     1       7.462   5.802  15.566  0.00  0.00    +0.000 NA
ATOM     25  O   UNL     1       7.515   5.310  14.272  0.00  0.00    +0.000 OA
ENDBRANCH  19  23
ENDBRANCH  17  19
ENDBRANCH  16  17
ENDBRANCH   1  16
TORSDOF 6
ENDMDL
MODEL 2
REMARK VINA RESULT:      -6.6      2.975      6.370
REMARK  Name = 
REMARK  10 active torsions:
REMARK  status: ('A' for Active; 'I' for Inactive)
REMARK    1  A    between atoms: C_1  and  C_2
REMARK    2  A    between atoms: C_4  and  C_5
REMARK    3  A    between atoms: C_5  and  N_6
REMARK    4  A    between atoms: N_6  and  C_7
REMARK    5  A    between atoms: C_7  and  C_8
REMARK    6  A    between atoms: C_9  and  C_10
REMARK    7  A    between atoms: C_10  and  C_11
REMARK    8  A    between atoms: C_10  and  C_12
REMARK    9  A    between atoms: N_14  and  C_15
REMARK   10  A    between atoms: C_16  and  N_17
REMARK                            x       y       z     vdW  Elec       q    Type
REMARK                         _______ _______ _______ _____ _____    ______ ____
ROOT
ATOM      1  C   UNL     1       4.203   5.593  18.311  0.00  0.00    +0.000 A 
ATOM      2  C   UNL     1       5.638   5.467  18.216  0.00  0.00    +0.000 A 
ATOM      3  N   UNL     1       6.081   4.352  18.803  0.00  0.00    +0.000 NA
ATOM      4  N   UNL     1       4.972   3.744  19.237  0.00  0.00    +0.000 N 
ATOM      5  C   UNL     1       5.129   2.594  20.101  0.00  0.00    +0.000 C 
ATOM      6  C   UNL     1       3.796   4.389  18.897  0.00  0.00    +0.000 A 
ENDROOT
BRANCH   6   7
ATOM      7  N   UNL     1       2.600   3.802  19.231  0.00  0.00    +0.000 N 
ATOM      8  C   UNL     1       1.827   4.243  20.407  0.00  0.00    +0.000 C 
ATOM      9  C   UNL     1       0.858   3.117  20.819  0.00  0.00    +0.000 C 
ATOM     10  O   UNL     1      -0.026   2.750  19.743  0.00  0.00    +0.000 OA
ATOM     11  C   UNL     1       0.729   2.353  18.583  0.00  0.00    +0.000 C 
ATOM     12  C   UNL     1       1.673   3.473  18.118  0.00  0.00    +0.000 C 
ENDBRANCH   6   7
BRANCH   2  13
ATOM     13  C   UNL     1       6.648   6.404  17.588  0.00  0.00    +0.000 C 
ATOM     14  C   UNL     1       7.836   6.661  18.515  0.00  0.00    +0.000 C 
ATOM     15  C   UNL     1       7.152   5.890  16.231  0.00  0.00    +0.000 C 
ENDBRANCH   2  13
BRANCH   1  16
ATOM     16  C   UNL     1       3.448   6.814  17.856  0.00  0.00    +0.000 C 
BRANCH  16  17
ATOM     17  N   UNL     1       2.645   7.383  18.921  0.00  0.00    +0.000 NA
ATOM     18  H   UNL     1       2.002   6.676  19.280  0.00  0.00    +0.000 HD
BRANCH  17  19
ATOM     19  C   UNL     1       1.887   8.560  18.509  0.00  0.00    +0.000 C 
BRANCH  19  23
ATOM     20  C   UNL     1      -0.178   9.492  23.090  0.00  0.00    +0.000 C 
ATOM     21  C   UNL     1       0.397   9.473  21.733  0.00  0.00    +0.000 A 
ATOM     22  C   UNL     1       1.158   8.576  21.026  0.00  0.00    +0.000 A 
ATOM     23  C   UNL     1       1.275   9.154  19.737  0.00  0.00    +0.000 A 
ATOM     24  N   UNL     1       0.678  10.355  19.689  0.00  0.00    +0.000 NA
ATOM     25  O   UNL     1       0.128  10.549  20.946  0.00  0.00    +0.000 OA
ENDBRANCH  19  23
ENDBRANCH  17  19
ENDBRANCH  16  17
ENDBRANCH   1  16
TORSDOF 6
ENDMDL
MODEL 3
REMARK VINA RESULT:      -6.6      2.018      4.620
REMARK  Name = 
REMARK  10 active torsions:
REMARK  status: ('A' for Active; 'I' for Inactive)
REMARK    1  A    between atoms: C_1  and  C_2
REMARK    2  A    between atoms: C_4  and  C_5
REMARK    3  A    between atoms: C_5  and  N_6
REMARK    4  A    between atoms: N_6  and  C_7
REMARK    5  A    between atoms: C_7  and  C_8
REMARK    6  A    between atoms: C_9  and  C_10
REMARK    7  A    between atoms: C_10  and  C_11
REMARK    8  A    between atoms: C_10  and  C_12
REMARK    9  A    between atoms: N_14  and  C_15
REMARK   10  A    between atoms: C_16  and  N_17
REMARK                            x       y       z     vdW  Elec       q    Type
REMARK                         _______ _______ _______ _____ _____    ______ ____
ROOT
ATOM      1  C   UNL     1       3.929   4.851  19.221  0.00  0.00    +0.000 A 
ATOM      2  C   UNL     1       3.579   3.475  19.485  0.00  0.00    +0.000 A 
ATOM      3  N   UNL     1       2.305   3.348  19.865  0.00  0.00    +0.000 NA
ATOM      4  N   UNL     1       1.821   4.594  19.819  0.00  0.00    +0.000 N 
ATOM      5  C   UNL     1       0.503   4.824  20.372  0.00  0.00    +0.000 C 
ATOM      6  C   UNL     1       2.717   5.538  19.352  0.00  0.00    +0.000 A 
ENDROOT
BRANCH   6   7
ATOM      7  N   UNL     1       2.289   6.834  19.195  0.00  0.00    +0.000 N 
ATOM      8  C   UNL     1       2.092   7.727  20.353  0.00  0.00    +0.000 C 
ATOM      9  C   UNL     1       1.152   8.877  19.943  0.00  0.00    +0.000 C 
ATOM     10  O   UNL     1       1.666   9.616  18.818  0.00  0.00    +0.000 OA
ATOM     11  C   UNL     1       1.892   8.738  17.699  0.00  0.00    +0.000 C 
ATOM     12  C   UNL     1       2.863   7.604  18.062  0.00  0.00    +0.000 C 
ENDBRANCH   6   7
BRANCH   2  13
ATOM     13  C   UNL     1       4.438   2.231  19.407  0.00  0.00    +0.000 C 
ATOM     14  C   UNL     1       4.792   1.700  20.797  0.00  0.00    +0.000 C 
ATOM     15  C   UNL     1       3.777   1.117  18.580  0.00  0.00    +0.000 C 
ENDBRANCH   2  13
BRANCH   1  16
ATOM     16  C   UNL     1       5.331   5.301  18.907  0.00  0.00    +0.000 C 
BRANCH  16  17
ATOM     17  N   UNL     1       6.020   4.366  18.039  0.00  0.00    +0.000 NA
ATOM     18  H   UNL     1       6.309   3.548  18.578  0.00  0.00    +0.000 HD
BRANCH  17  19
ATOM     19  C   UNL     1       7.184   4.942  17.374  0.00  0.00    +0.000 C 
BRANCH  19  23
ATOM     20  C   UNL     1       5.981   3.486  12.625  0.00  0.00    +0.000 C 
ATOM     21  C   UNL     1       6.411   4.119  13.885  0.00  0.00    +0.000 A 
ATOM     22  C   UNL     1       6.130   3.904  15.211  0.00  0.00    +0.000 A 
ATOM     23  C   UNL     1       6.967   4.816  15.899  0.00  0.00    +0.000 A 
ATOM     24  N   UNL     1       7.661   5.579  15.041  0.00  0.00    +0.000 NA
ATOM     25  O   UNL     1       7.309   5.135  13.777  0.00  0.00    +0.000 OA
ENDBRANCH  19  23
ENDBRANCH  17  19
ENDBRANCH  16  17
ENDBRANCH   1  16
TORSDOF 6
ENDMDL
MODEL 4
REMARK VINA RESULT:      -6.4      2.864      6.605
REMARK  Name = 
REMARK  10 active torsions:
REMARK  status: ('A' for Active; 'I' for Inactive)
REMARK    1  A    between atoms: C_1  and  C_2
REMARK    2  A    between atoms: C_4  and  C_5
REMARK    3  A    between atoms: C_5  and  N_6
REMARK    4  A    between atoms: N_6  and  C_7
REMARK    5  A    between atoms: C_7  and  C_8
REMARK    6  A    between atoms: C_9  and  C_10
REMARK    7  A    between atoms: C_10  and  C_11
REMARK    8  A    between atoms: C_10  and  C_12
REMARK    9  A    between atoms: N_14  and  C_15
REMARK   10  A    between atoms: C_16  and  N_17
REMARK                            x       y       z     vdW  Elec       q    Type
REMARK                         _______ _______ _______ _____ _____    ______ ____
ROOT
ATOM      1  C   UNL     1       3.266   4.940  19.325  0.00  0.00    +0.000 A 
ATOM      2  C   UNL     1       2.437   3.833  18.910  0.00  0.00    +0.000 A 
ATOM      3  N   UNL     1       2.920   3.229  17.822  0.00  0.00    +0.000 NA
ATOM      4  N   UNL     1       4.051   3.889  17.550  0.00  0.00    +0.000 N 
ATOM      5  C   UNL     1       4.716   3.599  16.299  0.00  0.00    +0.000 C 
ATOM      6  C   UNL     1       4.370   4.876  18.467  0.00  0.00    +0.000 A 
ENDROOT
BRANCH   6   7
ATOM      7  N   UNL     1       5.552   5.558  18.317  0.00  0.00    +0.000 N 
ATOM      8  C   UNL     1       5.601   6.882  17.668  0.00  0.00    +0.000 C 
ATOM      9  C   UNL     1       7.040   7.151  17.188  0.00  0.00    +0.000 C 
ATOM     10  O   UNL     1       7.988   7.085  18.270  0.00  0.00    +0.000 OA
ATOM     11  C   UNL     1       7.916   5.805  18.927  0.00  0.00    +0.000 C 
ATOM     12  C   UNL     1       6.502   5.527  19.459  0.00  0.00    +0.000 C 
ENDBRANCH   6   7
BRANCH   2  13
ATOM     13  C   UNL     1       1.146   3.319  19.511  0.00  0.00    +0.000 C 
ATOM     14  C   UNL     1       0.559   2.168  18.693  0.00  0.00    +0.000 C 
ATOM     15  C   UNL     1       1.320   2.879  20.973  0.00  0.00    +0.000 C 
ENDBRANCH   2  13
BRANCH   1  16
ATOM     16  C   UNL     1       2.891   5.882  20.439  0.00  0.00    +0.000 C 
BRANCH  16  17
ATOM     17  N   UNL     1       2.301   7.108  19.936  0.00  0.00    +0.000 NA
ATOM     18  H   UNL     1       3.038   7.784  19.732  0.00  0.00    +0.000 HD
BRANCH  17  19
ATOM     19  C   UNL     1       1.337   7.705  20.854  0.00  0.00    +0.000 C 
BRANCH  19  23
ATOM     20  C   UNL     1       0.095  12.643  20.416  0.00  0.00    +0.000 C 
ATOM     21  C   UNL     1       0.554  11.247  20.312  0.00  0.00    +0.000 A 
ATOM     22  C   UNL     1       0.772  10.239  21.217  0.00  0.00    +0.000 A 
ATOM     23  C   UNL     1       1.118   9.120  20.419  0.00  0.00    +0.000 A 
ATOM     24  N   UNL     1       1.170   9.449  19.119  0.00  0.00    +0.000 NA
ATOM     25  O   UNL     1       0.814  10.786  19.058  0.00  0.00    +0.000 OA
ENDBRANCH  19  23
ENDBRANCH  17  19
ENDBRANCH  16  17
ENDBRANCH   1  16
TORSDOF 6
ENDMDL
MODEL 5
REMARK VINA RESULT:      -6.3      2.054      3.551
REMARK  Name = 
REMARK  10 active torsions:
REMARK  status: ('A' for Active; 'I' for Inactive)
REMARK    1  A    between atoms: C_1  and  C_2
REMARK    2  A    between atoms: C_4  and  C_5
REMARK    3  A    between atoms: C_5  and  N_6
REMARK    4  A    between atoms: N_6  and  C_7
REMARK    5  A    between atoms: C_7  and  C_8
REMARK    6  A    between atoms: C_9  and  C_10
REMARK    7  A    between atoms: C_10  and  C_11
REMARK    8  A    between atoms: C_10  and  C_12
REMARK    9  A    between atoms: N_14  and  C_15
REMARK   10  A    between atoms: C_16  and  N_17
REMARK                            x       y       z     vdW  Elec       q    Type
REMARK                         _______ _______ _______ _____ _____    ______ ____
ROOT
ATOM      1  C   UNL     1       5.184   5.362  18.031  0.00  0.00    +0.000 A 
ATOM      2  C   UNL     1       5.706   6.694  17.839  0.00  0.00    +0.000 A 
ATOM      3  N   UNL     1       4.749   7.621  17.916  0.00  0.00    +0.000 NA
ATOM      4  N   UNL     1       3.638   6.928  18.187  0.00  0.00    +0.000 N 
ATOM      5  C   UNL     1       2.375   7.633  18.136  0.00  0.00    +0.000 C 
ATOM      6  C   UNL     1       3.841   5.570  18.361  0.00  0.00    +0.000 A 
ENDROOT
BRANCH   6   7
ATOM      7  N   UNL     1       2.773   4.784  18.719  0.00  0.00    +0.000 N 
ATOM      8  C   UNL     1       2.422   3.568  17.963  0.00  0.00    +0.000 C 
ATOM      9  C   UNL     1       0.953   3.206  18.250  0.00  0.00    +0.000 C 
ATOM     10  O   UNL     1       0.713   3.011  19.657  0.00  0.00    +0.000 OA
ATOM     11  C   UNL     1       1.087   4.186  20.400  0.00  0.00    +0.000 C 
ATOM     12  C   UNL     1       2.563   4.548  20.171  0.00  0.00    +0.000 C 
ENDBRANCH   6   7
BRANCH   2  13
ATOM     13  C   UNL     1       7.125   7.140  17.553  0.00  0.00    +0.000 C 
ATOM     14  C   UNL     1       7.228   8.662  17.437  0.00  0.00    +0.000 C 
ATOM     15  C   UNL     1       8.118   6.634  18.611  0.00  0.00    +0.000 C 
ENDBRANCH   2  13
BRANCH   1  16
ATOM     16  C   UNL     1       6.014   4.116  17.863  0.00  0.00    +0.000 C 
BRANCH  16  17
ATOM     17  N   UNL     1       5.969   3.614  16.504  0.00  0.00    +0.000 NA
ATOM     18  H   UNL     1       6.122   2.605  16.506  0.00  0.00    +0.000 HD
BRANCH  17  19
ATOM     19  C   UNL     1       6.941   4.249  15.619  0.00  0.00    +0.000 C 
BRANCH  19  23
ATOM     20  C   UNL     1       4.366   3.146  11.344  0.00  0.00    +0.000 C 
ATOM     21  C   UNL     1       5.269   3.586  12.423  0.00  0.00    +0.000 A 
ATOM     22  C   UNL     1       5.150   3.702  13.785  0.00  0.00    +0.000 A 
ATOM     23  C   UNL     1       6.441   4.096  14.218  0.00  0.00    +0.000 A 
ATOM     24  N   UNL     1       7.268   4.270  13.176  0.00  0.00    +0.000 NA
ATOM     25  O   UNL     1       6.527   3.946  12.052  0.00  0.00    +0.000 OA
ENDBRANCH  19  23
ENDBRANCH  17  19
ENDBRANCH  16  17
ENDBRANCH   1  16
TORSDOF 6
ENDMDL
MODEL 6
REMARK VINA RESULT:      -6.3      2.928      6.211
REMARK  Name = 
REMARK  10 active torsions:
REMARK  status: ('A' for Active; 'I' for Inactive)
REMARK    1  A    between atoms: C_1  and  C_2
REMARK    2  A    between atoms: C_4  and  C_5
REMARK    3  A    between atoms: C_5  and  N_6
REMARK    4  A    between atoms: N_6  and  C_7
REMARK    5  A    between atoms: C_7  and  C_8
REMARK    6  A    between atoms: C_9  and  C_10
REMARK    7  A    between atoms: C_10  and  C_11
REMARK    8  A    between atoms: C_10  and  C_12
REMARK    9  A    between atoms: N_14  and  C_15
REMARK   10  A    between atoms: C_16  and  N_17
REMARK                            x       y       z     vdW  Elec       q    Type
REMARK                         _______ _______ _______ _____ _____    ______ ____
ROOT
ATOM      1  C   UNL     1       3.221   4.898  19.198  0.00  0.00    +0.000 A 
ATOM      2  C   UNL     1       2.433   3.749  18.821  0.00  0.00    +0.000 A 
ATOM      3  N   UNL     1       2.981   3.082  17.802  0.00  0.00    +0.000 NA
ATOM      4  N   UNL     1       4.111   3.746  17.540  0.00  0.00    +0.000 N 
ATOM      5  C   UNL     1       4.843   3.385  16.345  0.00  0.00    +0.000 C 
ATOM      6  C   UNL     1       4.367   4.799  18.401  0.00  0.00    +0.000 A 
ENDROOT
BRANCH   6   7
ATOM      7  N   UNL     1       5.543   5.495  18.261  0.00  0.00    +0.000 N 
ATOM      8  C   UNL     1       5.594   6.787  17.553  0.00  0.00    +0.000 C 
ATOM      9  C   UNL     1       7.046   7.059  17.112  0.00  0.00    +0.000 C 
ATOM     10  O   UNL     1       7.955   7.060  18.230  0.00  0.00    +0.000 OA
ATOM     11  C   UNL     1       7.879   5.811  18.943  0.00  0.00    +0.000 C 
ATOM     12  C   UNL     1       6.450   5.533  19.436  0.00  0.00    +0.000 C 
ENDBRANCH   6   7
BRANCH   2  13
ATOM     13  C   UNL     1       1.123   3.249  19.393  0.00  0.00    +0.000 C 
ATOM     14  C   UNL     1       0.587   2.047  18.614  0.00  0.00    +0.000 C 
ATOM     15  C   UNL     1       1.238   2.891  20.883  0.00  0.00    +0.000 C 
ENDBRANCH   2  13
BRANCH   1  16
ATOM     16  C   UNL     1       2.775   5.906  20.225  0.00  0.00    +0.000 C 
BRANCH  16  17
ATOM     17  N   UNL     1       2.935   7.268  19.753  0.00  0.00    +0.000 NA
ATOM     18  H   UNL     1       2.780   7.918  20.524  0.00  0.00    +0.000 HD
BRANCH  17  19
ATOM     19  C   UNL     1       2.043   7.607  18.649  0.00  0.00    +0.000 C 
BRANCH  19  23
ATOM     20  C   UNL     1       1.360  12.671  18.564  0.00  0.00    +0.000 C 
ATOM     21  C   UNL     1       1.362  11.209  18.750  0.00  0.00    +0.000 A 
ATOM     22  C   UNL     1       1.890  10.154  18.049  0.00  0.00    +0.000 A 
ATOM     23  C   UNL     1       1.597   9.021  18.848  0.00  0.00    +0.000 A 
ATOM     24  N   UNL     1       0.879   9.362  19.929  0.00  0.00    +0.000 NA
ATOM     25  O   UNL     1       0.736  10.739  19.862  0.00  0.00    +0.000 OA
ENDBRANCH  19  23
ENDBRANCH  17  19
ENDBRANCH  16  17
ENDBRANCH   1  16
TORSDOF 6
ENDMDL
MODEL 7
REMARK VINA RESULT:      -6.3      2.798      6.344
REMARK  Name = 
REMARK  10 active torsions:
REMARK  status: ('A' for Active; 'I' for Inactive)
REMARK    1  A    between atoms: C_1  and  C_2
REMARK    2  A    between atoms: C_4  and  C_5
REMARK    3  A    between atoms: C_5  and  N_6
REMARK    4  A    between atoms: N_6  and  C_7
REMARK    5  A    between atoms: C_7  and  C_8
REMARK    6  A    between atoms: C_9  and  C_10
REMARK    7  A    between atoms: C_10  and  C_11
REMARK    8  A    between atoms: C_10  and  C_12
REMARK    9  A    between atoms: N_14  and  C_15
REMARK   10  A    between atoms: C_16  and  N_17
REMARK                            x       y       z     vdW  Elec       q    Type
REMARK                         _______ _______ _______ _____ _____    ______ ____
ROOT
ATOM      1  C   UNL     1       3.839   4.433  18.627  0.00  0.00    +0.000 A 
ATOM      2  C   UNL     1       3.266   3.287  17.961  0.00  0.00    +0.000 A 
ATOM      3  N   UNL     1       3.992   2.908  16.907  0.00  0.00    +0.000 NA
ATOM      4  N   UNL     1       5.029   3.751  16.899  0.00  0.00    +0.000 N 
ATOM      5  C   UNL     1       5.906   3.728  15.748  0.00  0.00    +0.000 C 
ATOM      6  C   UNL     1       5.051   4.640  17.959  0.00  0.00    +0.000 A 
ENDROOT
BRANCH   6   7
ATOM      7  N   UNL     1       6.119   5.495  18.081  0.00  0.00    +0.000 N 
ATOM      8  C   UNL     1       6.093   6.849  17.495  0.00  0.00    +0.000 C 
ATOM      9  C   UNL     1       7.541   7.352  17.336  0.00  0.00    +0.000 C 
ATOM     10  O   UNL     1       8.247   7.360  18.592  0.00  0.00    +0.000 OA
ATOM     11  C   UNL     1       8.241   6.047  19.182  0.00  0.00    +0.000 C 
ATOM     12  C   UNL     1       6.809   5.534  19.396  0.00  0.00    +0.000 C 
ENDBRANCH   6   7
BRANCH   2  13
ATOM     13  C   UNL     1       2.000   2.521  18.283  0.00  0.00    +0.000 C 
ATOM     14  C   UNL     1       2.095   1.810  19.633  0.00  0.00    +0.000 C 
ATOM     15  C   UNL     1       0.754   3.419  18.258  0.00  0.00    +0.000 C 
ENDBRANCH   2  13
BRANCH   1  16
ATOM     16  C   UNL     1       3.162   5.155  19.762  0.00  0.00    +0.000 C 
BRANCH  16  17
ATOM     17  N   UNL     1       3.292   6.594  19.644  0.00  0.00    +0.000 NA
ATOM     18  H   UNL     1       2.949   7.040  20.495  0.00  0.00    +0.000 HD
BRANCH  17  19
ATOM     19  C   UNL     1       2.588   7.146  18.491  0.00  0.00    +0.000 C 
BRANCH  19  23
ATOM     20  C   UNL     1       0.440  11.740  19.123  0.00  0.00    +0.000 C 
ATOM     21  C   UNL     1       0.938  10.354  19.155  0.00  0.00    +0.000 A 
ATOM     22  C   UNL     1       1.494   9.514  18.223  0.00  0.00    +0.000 A 
ATOM     23  C   UNL     1       1.833   8.350  18.959  0.00  0.00    +0.000 A 
ATOM     24  N   UNL     1       1.445   8.456  20.239  0.00  0.00    +0.000 NA
ATOM     25  O   UNL     1       0.885   9.718  20.356  0.00  0.00    +0.000 OA
ENDBRANCH  19  23
ENDBRANCH  17  19
ENDBRANCH  16  17
ENDBRANCH   1  16
TORSDOF 6
ENDMDL
MODEL 8
REMARK VINA RESULT:      -6.2      2.537      6.021
REMARK  Name = 
REMARK  10 active torsions:
REMARK  status: ('A' for Active; 'I' for Inactive)
REMARK    1  A    between atoms: C_1  and  C_2
REMARK    2  A    between atoms: C_4  and  C_5
REMARK    3  A    between atoms: C_5  and  N_6
REMARK    4  A    between atoms: N_6  and  C_7
REMARK    5  A    between atoms: C_7  and  C_8
REMARK    6  A    between atoms: C_9  and  C_10
REMARK    7  A    between atoms: C_10  and  C_11
REMARK    8  A    between atoms: C_10  and  C_12
REMARK    9  A    between atoms: N_14  and  C_15
REMARK   10  A    between atoms: C_16  and  N_17
REMARK                            x       y       z     vdW  Elec       q    Type
REMARK                         _______ _______ _______ _____ _____    ______ ____
ROOT
ATOM      1  C   UNL     1       3.527   4.669  19.159  0.00  0.00    +0.000 A 
ATOM      2  C   UNL     1       2.734   3.713  19.895  0.00  0.00    +0.000 A 
ATOM      3  N   UNL     1       2.960   2.461  19.490  0.00  0.00    +0.000 NA
ATOM      4  N   UNL     1       3.898   2.582  18.546  0.00  0.00    +0.000 N 
ATOM      5  C   UNL     1       4.221   1.409  17.763  0.00  0.00    +0.000 C 
ATOM      6  C   UNL     1       4.354   3.875  18.356  0.00  0.00    +0.000 A 
ENDROOT
BRANCH   6   7
ATOM      7  N   UNL     1       5.373   4.091  17.461  0.00  0.00    +0.000 N 
ATOM      8  C   UNL     1       5.103   4.425  16.050  0.00  0.00    +0.000 C 
ATOM      9  C   UNL     1       6.354   4.103  15.211  0.00  0.00    +0.000 C 
ATOM     10  O   UNL     1       7.515   4.813  15.684  0.00  0.00    +0.000 OA
ATOM     11  C   UNL     1       7.759   4.514  17.071  0.00  0.00    +0.000 C 
ATOM     12  C   UNL     1       6.544   4.868  17.943  0.00  0.00    +0.000 C 
ENDBRANCH   6   7
BRANCH   2  13
ATOM     13  C   UNL     1       1.717   3.948  20.992  0.00  0.00    +0.000 C 
ATOM     14  C   UNL     1       0.318   4.190  20.425  0.00  0.00    +0.000 C 
ATOM     15  C   UNL     1       1.673   2.790  22.001  0.00  0.00    +0.000 C 
ENDBRANCH   2  13
BRANCH   1  16
ATOM     16  C   UNL     1       3.377   6.160  19.311  0.00  0.00    +0.000 C 
BRANCH  16  17
ATOM     17  N   UNL     1       2.408   6.705  18.381  0.00  0.00    +0.000 NA
ATOM     18  H   UNL     1       2.429   6.171  17.512  0.00  0.00    +0.000 HD
BRANCH  17  19
ATOM     19  C   UNL     1       2.620   8.118  18.085  0.00  0.00    +0.000 C 
BRANCH  19  23
ATOM     20  C   UNL     1      -1.206  11.305  19.238  0.00  0.00    +0.000 C 
ATOM     21  C   UNL     1      -0.143  10.288  19.136  0.00  0.00    +0.000 A 
ATOM     22  C   UNL     1       0.556   9.734  18.094  0.00  0.00    +0.000 A 
ATOM     23  C   UNL     1       1.502   8.884  18.719  0.00  0.00    +0.000 A 
ATOM     24  N   UNL     1       1.340   8.876  20.051  0.00  0.00    +0.000 NA
ATOM     25  O   UNL     1       0.305   9.761  20.307  0.00  0.00    +0.000 OA
ENDBRANCH  19  23
ENDBRANCH  17  19
ENDBRANCH  16  17
ENDBRANCH   1  16
TORSDOF 6
ENDMDL
MODEL 9
REMARK VINA RESULT:      -6.2      0.681      1.190
REMARK  Name = 
REMARK  10 active torsions:
REMARK  status: ('A' for Active; 'I' for Inactive)
REMARK    1  A    between atoms: C_1  and  C_2
REMARK    2  A    between atoms: C_4  and  C_5
REMARK    3  A    between atoms: C_5  and  N_6
REMARK    4  A    between atoms: N_6  and  C_7
REMARK    5  A    between atoms: C_7  and  C_8
REMARK    6  A    between atoms: C_9  and  C_10
REMARK    7  A    between atoms: C_10  and  C_11
REMARK    8  A    between atoms: C_10  and  C_12
REMARK    9  A    between atoms: N_14  and  C_15
REMARK   10  A    between atoms: C_16  and  N_17
REMARK                            x       y       z     vdW  Elec       q    Type
REMARK                         _______ _______ _______ _____ _____    ______ ____
ROOT
ATOM      1  C   UNL     1       3.047   6.189  18.739  0.00  0.00    +0.000 A 
ATOM      2  C   UNL     1       2.157   7.067  19.460  0.00  0.00    +0.000 A 
ATOM      3  N   UNL     1       1.343   6.392  20.275  0.00  0.00    +0.000 NA
ATOM      4  N   UNL     1       1.708   5.115  20.125  0.00  0.00    +0.000 N 
ATOM      5  C   UNL     1       0.875   4.100  20.733  0.00  0.00    +0.000 C 
ATOM      6  C   UNL     1       2.790   4.926  19.283  0.00  0.00    +0.000 A 
ENDROOT
BRANCH   6   7
ATOM      7  N   UNL     1       3.290   3.656  19.125  0.00  0.00    +0.000 N 
ATOM      8  C   UNL     1       3.711   2.844  20.282  0.00  0.00    +0.000 C 
ATOM      9  C   UNL     1       4.670   1.741  19.796  0.00  0.00    +0.000 C 
ATOM     10  O   UNL     1       4.064   0.907  18.790  0.00  0.00    +0.000 OA
ATOM     11  C   UNL     1       3.621   1.704  17.675  0.00  0.00    +0.000 C 
ATOM     12  C   UNL     1       2.626   2.787  18.120  0.00  0.00    +0.000 C 
ENDBRANCH   6   7
BRANCH   2  13
ATOM     13  C   UNL     1       2.026   8.574  19.392  0.00  0.00    +0.000 C 
ATOM     14  C   UNL     1       1.557   9.039  18.013  0.00  0.00    +0.000 C 
ATOM     15  C   UNL     1       1.084   9.126  20.472  0.00  0.00    +0.000 C 
ENDBRANCH   2  13
BRANCH   1  16
ATOM     16  C   UNL     1       3.978   6.664  17.654  0.00  0.00    +0.000 C 
BRANCH  16  17
ATOM     17  N   UNL     1       4.515   5.562  16.879  0.00  0.00    +0.000 NA
ATOM     18  H   UNL     1       4.283   4.679  17.333  0.00  0.00    +0.000 HD
BRANCH  17  19
ATOM     19  C   UNL     1       5.959   5.641  16.685  0.00  0.00    +0.000 C 
BRANCH  19  23
ATOM     20  C   UNL     1       6.160   3.211  12.193  0.00  0.00    +0.000 C 
ATOM     21  C   UNL     1       6.275   4.067  13.387  0.00  0.00    +0.000 A 
ATOM     22  C   UNL     1       5.494   4.276  14.496  0.00  0.00    +0.000 A 
ATOM     23  C   UNL     1       6.253   5.165  15.297  0.00  0.00    +0.000 A 
ATOM     24  N   UNL     1       7.390   5.522  14.681  0.00  0.00    +0.000 NA
ATOM     25  O   UNL     1       7.398   4.828  13.482  0.00  0.00    +0.000 OA
ENDBRANCH  19  23
ENDBRANCH  17  19
ENDBRANCH  16  17
ENDBRANCH   1  16
TORSDOF 6
ENDMDL
