MODEL 1
REMARK VINA RESULT:      -7.1      0.000      0.000
REMARK  Name = 
REMARK  5 active torsions:
REMARK  status: ('A' for Active; 'I' for Inactive)
REMARK    1  A    between atoms: C_1  and  C_2
REMARK    2  A    between atoms: C_5  and  C_6
REMARK    3  A    between atoms: C_7  and  C_8
REMARK    4  A    between atoms: C_8  and  N_9
REMARK    5  A    between atoms: C_15  and  C_17
REMARK                            x       y       z     vdW  Elec       q    Type
REMARK                         _______ _______ _______ _____ _____    ______ ____
ROOT
ATOM      1  N   UNL     1       3.434   3.970  17.547  0.00  0.00    +0.000 N 
ATOM      2  C   UNL     1       3.919   4.477  16.291  0.00  0.00    +0.000 C 
ATOM      3  C   UNL     1       5.454   4.380  16.381  0.00  0.00    +0.000 C 
ATOM      4  C   UNL     1       6.111   5.787  16.359  0.00  0.00    +0.000 C 
ATOM      5  C   UNL     1       6.990   5.819  15.112  0.00  0.00    +0.000 C 
ATOM      6  N   UNL     1       6.504   4.729  14.297  0.00  0.00    +0.000 N 
ATOM      7  C   UNL     1       7.052   4.530  13.031  0.00  0.00    +0.000 C 
ATOM      8  O   UNL     1       7.915   5.284  12.584  0.00  0.00    +0.000 OA
ATOM      9  C   UNL     1       6.055   3.666  15.169  0.00  0.00    +0.000 C 
ATOM     10  C   UNL     1       5.730   3.572  17.661  0.00  0.00    +0.000 C 
ATOM     11  C   UNL     1       4.383   3.254  18.239  0.00  0.00    +0.000 C 
ATOM     12  O   UNL     1       4.195   2.530  19.201  0.00  0.00    +0.000 OA
ENDROOT
BRANCH   7  13
ATOM     13  C   UNL     1       6.602   3.379  12.275  0.00  0.00    +0.000 A 
ATOM     14  C   UNL     1       5.345   2.954  11.882  0.00  0.00    +0.000 A 
ATOM     15  C   UNL     1       5.481   1.720  11.205  0.00  0.00    +0.000 A 
ATOM     16  C   UNL     1       6.825   1.457  11.120  0.00  0.00    +0.000 A 
ATOM     17  N   UNL     1       7.500   2.483  11.720  0.00  0.00    +0.000 N 
ATOM     18  H   UNL     1       8.505   2.579  11.795  0.00  0.00    +0.000 HD
ENDBRANCH   7  13
BRANCH   1  19
ATOM     19  C   UNL     1       2.055   4.094  17.983  0.00  0.00    +0.000 C 
BRANCH  19  26
ATOM     20  C   UNL     1       2.561   7.309  18.155  0.00  0.00    +0.000 C 
ATOM     21  C   UNL     1       2.152   6.381  19.234  0.00  0.00    +0.000 A 
ATOM     22  N   UNL     1       1.982   6.849  20.474  0.00  0.00    +0.000 NA
ATOM     23  O   UNL     1       1.650   5.757  21.245  0.00  0.00    +0.000 OA
ATOM     24  C   UNL     1       1.623   4.640  20.473  0.00  0.00    +0.000 A 
ATOM     25  C   UNL     1       1.315   3.386  21.191  0.00  0.00    +0.000 C 
ATOM     26  C   UNL     1       1.919   4.979  19.164  0.00  0.00    +0.000 A 
ENDBRANCH  19  26
ENDBRANCH   1  19
TORSDOF 3
ENDMDL
MODEL 2
REMARK VINA RESULT:      -7.0      3.209      8.586
REMARK  Name = 
REMARK  5 active torsions:
REMARK  status: ('A' for Active; 'I' for Inactive)
REMARK    1  A    between atoms: C_1  and  C_2
REMARK    2  A    between atoms: C_5  and  C_6
REMARK    3  A    between atoms: C_7  and  C_8
REMARK    4  A    between atoms: C_8  and  N_9
REMARK    5  A    between atoms: C_15  and  C_17
REMARK                            x       y       z     vdW  Elec       q    Type
REMARK                         _______ _______ _______ _____ _____    ______ ____
ROOT
ATOM      1  N   UNL     1       3.723   5.199  18.876  0.00  0.00    +0.000 N 
ATOM      2  C   UNL     1       3.594   6.590  19.220  0.00  0.00    +0.000 C 
ATOM      3  C   UNL     1       2.332   7.075  18.480  0.00  0.00    +0.000 C 
ATOM      4  C   UNL     1       2.683   8.137  17.404  0.00  0.00    +0.000 C 
ATOM      5  C   UNL     1       1.952   9.411  17.817  0.00  0.00    +0.000 C 
ATOM      6  N   UNL     1       1.622   9.204  19.209  0.00  0.00    +0.000 N 
ATOM      7  C   UNL     1       1.008  10.232  19.922  0.00  0.00    +0.000 C 
ATOM      8  O   UNL     1       0.773  11.320  19.397  0.00  0.00    +0.000 OA
ATOM      9  C   UNL     1       1.361   7.797  19.417  0.00  0.00    +0.000 C 
ATOM     10  C   UNL     1       1.679   5.799  17.923  0.00  0.00    +0.000 C 
ATOM     11  C   UNL     1       2.569   4.669  18.348  0.00  0.00    +0.000 C 
ATOM     12  O   UNL     1       2.316   3.488  18.182  0.00  0.00    +0.000 OA
ENDROOT
BRANCH   7  13
ATOM     13  C   UNL     1       0.614   9.963  21.290  0.00  0.00    +0.000 A 
ATOM     14  C   UNL     1       1.223   9.260  22.315  0.00  0.00    +0.000 A 
ATOM     15  C   UNL     1       0.362   9.268  23.436  0.00  0.00    +0.000 A 
ATOM     16  C   UNL     1      -0.718  10.046  23.106  0.00  0.00    +0.000 A 
ATOM     17  N   UNL     1      -0.539  10.506  21.831  0.00  0.00    +0.000 N 
ATOM     18  H   UNL     1      -1.160  11.121  21.321  0.00  0.00    +0.000 HD
ENDBRANCH   7  13
BRANCH   1  19
ATOM     19  C   UNL     1       4.904   4.407  19.168  0.00  0.00    +0.000 C 
BRANCH  19  26
ATOM     20  C   UNL     1       5.060   3.758  15.977  0.00  0.00    +0.000 C 
ATOM     21  C   UNL     1       6.081   4.397  16.840  0.00  0.00    +0.000 A 
ATOM     22  N   UNL     1       7.257   4.751  16.314  0.00  0.00    +0.000 NA
ATOM     23  O   UNL     1       7.993   5.271  17.356  0.00  0.00    +0.000 OA
ATOM     24  C   UNL     1       7.263   5.228  18.501  0.00  0.00    +0.000 A 
ATOM     25  C   UNL     1       7.955   5.725  19.708  0.00  0.00    +0.000 C 
ATOM     26  C   UNL     1       6.015   4.693  18.230  0.00  0.00    +0.000 A 
ENDBRANCH  19  26
ENDBRANCH   1  19
TORSDOF 3
ENDMDL
MODEL 3
REMARK VINA RESULT:      -7.0      0.438      1.634
REMARK  Name = 
REMARK  5 active torsions:
REMARK  status: ('A' for Active; 'I' for Inactive)
REMARK    1  A    between atoms: C_1  and  C_2
REMARK    2  A    between atoms: C_5  and  C_6
REMARK    3  A    between atoms: C_7  and  C_8
REMARK    4  A    between atoms: C_8  and  N_9
REMARK    5  A    between atoms: C_15  and  C_17
REMARK                            x       y       z     vdW  Elec       q    Type
REMARK                         _______ _______ _______ _____ _____    ______ ____
ROOT
ATOM      1  N   UNL     1       3.561   4.073  17.564  0.00  0.00    +0.000 N 
ATOM      2  C   UNL     1       4.026   4.558  16.291  0.00  0.00    +0.000 C 
ATOM      3  C   UNL     1       5.560   4.434  16.347  0.00  0.00    +0.000 C 
ATOM      4  C   UNL     1       6.241   5.828  16.294  0.00  0.00    +0.000 C 
ATOM      5  C   UNL     1       7.091   5.832  15.027  0.00  0.00    +0.000 C 
ATOM      6  N   UNL     1       6.567   4.742  14.235  0.00  0.00    +0.000 N 
ATOM      7  C   UNL     1       7.081   4.520  12.959  0.00  0.00    +0.000 C 
ATOM      8  O   UNL     1       7.947   5.253  12.484  0.00  0.00    +0.000 OA
ATOM      9  C   UNL     1       6.120   3.696  15.128  0.00  0.00    +0.000 C 
ATOM     10  C   UNL     1       5.852   3.635  17.629  0.00  0.00    +0.000 C 
ATOM     11  C   UNL     1       4.513   3.347  18.241  0.00  0.00    +0.000 C 
ATOM     12  O   UNL     1       4.334   2.637  19.215  0.00  0.00    +0.000 OA
ENDROOT
BRANCH   7  13
ATOM     13  C   UNL     1       6.594   3.370  12.226  0.00  0.00    +0.000 A 
ATOM     14  C   UNL     1       5.322   2.976  11.845  0.00  0.00    +0.000 A 
ATOM     15  C   UNL     1       5.418   1.725  11.191  0.00  0.00    +0.000 A 
ATOM     16  C   UNL     1       6.752   1.419  11.108  0.00  0.00    +0.000 A 
ATOM     17  N   UNL     1       7.461   2.435  11.685  0.00  0.00    +0.000 N 
ATOM     18  H   UNL     1       8.468   2.502  11.756  0.00  0.00    +0.000 HD
ENDBRANCH   7  13
BRANCH   1  19
ATOM     19  C   UNL     1       2.195   4.227  18.030  0.00  0.00    +0.000 C 
BRANCH  19  26
ATOM     20  C   UNL     1       1.413   3.703  21.151  0.00  0.00    +0.000 C 
ATOM     21  C   UNL     1       1.733   4.986  20.483  0.00  0.00    +0.000 A 
ATOM     22  N   UNL     1       1.682   6.123  21.184  0.00  0.00    +0.000 NA
ATOM     23  O   UNL     1       1.984   7.127  20.292  0.00  0.00    +0.000 OA
ATOM     24  C   UNL     1       2.213   6.597  19.062  0.00  0.00    +0.000 A 
ATOM     25  C   UNL     1       2.512   7.579  17.999  0.00  0.00    +0.000 C 
ATOM     26  C   UNL     1       2.085   5.221  19.124  0.00  0.00    +0.000 A 
ENDBRANCH  19  26
ENDBRANCH   1  19
TORSDOF 3
ENDMDL
MODEL 4
REMARK VINA RESULT:      -6.8      3.210      8.592
REMARK  Name = 
REMARK  5 active torsions:
REMARK  status: ('A' for Active; 'I' for Inactive)
REMARK    1  A    between atoms: C_1  and  C_2
REMARK    2  A    between atoms: C_5  and  C_6
REMARK    3  A    between atoms: C_7  and  C_8
REMARK    4  A    between atoms: C_8  and  N_9
REMARK    5  A    between atoms: C_15  and  C_17
REMARK                            x       y       z     vdW  Elec       q    Type
REMARK                         _______ _______ _______ _____ _____    ______ ____
ROOT
ATOM      1  N   UNL     1       3.688   5.212  18.936  0.00  0.00    +0.000 N 
ATOM      2  C   UNL     1       3.557   6.608  19.259  0.00  0.00    +0.000 C 
ATOM      3  C   UNL     1       2.297   7.081  18.507  0.00  0.00    +0.000 C 
ATOM      4  C   UNL     1       2.651   8.127  17.416  0.00  0.00    +0.000 C 
ATOM      5  C   UNL     1       1.917   9.406  17.808  0.00  0.00    +0.000 C 
ATOM      6  N   UNL     1       1.582   9.220  19.201  0.00  0.00    +0.000 N 
ATOM      7  C   UNL     1       0.964  10.257  19.897  0.00  0.00    +0.000 C 
ATOM      8  O   UNL     1       0.730  11.337  19.356  0.00  0.00    +0.000 OA
ATOM      9  C   UNL     1       1.322   7.815  19.430  0.00  0.00    +0.000 C 
ATOM     10  C   UNL     1       1.647   5.796  17.966  0.00  0.00    +0.000 C 
ATOM     11  C   UNL     1       2.537   4.673  18.411  0.00  0.00    +0.000 C 
ATOM     12  O   UNL     1       2.287   3.489  18.262  0.00  0.00    +0.000 OA
ENDROOT
BRANCH   7  13
ATOM     13  C   UNL     1       0.566  10.008  21.267  0.00  0.00    +0.000 A 
ATOM     14  C   UNL     1       1.157   9.294  22.296  0.00  0.00    +0.000 A 
ATOM     15  C   UNL     1       0.298   9.333  23.419  0.00  0.00    +0.000 A 
ATOM     16  C   UNL     1      -0.760  10.140  23.085  0.00  0.00    +0.000 A 
ATOM     17  N   UNL     1      -0.571  10.587  21.807  0.00  0.00    +0.000 N 
ATOM     18  H   UNL     1      -1.175  11.216  21.294  0.00  0.00    +0.000 HD
ENDBRANCH   7  13
BRANCH   1  19
ATOM     19  C   UNL     1       4.869   4.426  19.243  0.00  0.00    +0.000 C 
BRANCH  19  26
ATOM     20  C   UNL     1       7.844   5.706  19.619  0.00  0.00    +0.000 C 
ATOM     21  C   UNL     1       7.224   5.157  18.390  0.00  0.00    +0.000 A 
ATOM     22  N   UNL     1       7.904   5.188  17.240  0.00  0.00    +0.000 NA
ATOM     23  O   UNL     1       7.062   4.654  16.291  0.00  0.00    +0.000 OA
ATOM     24  C   UNL     1       5.882   4.306  16.867  0.00  0.00    +0.000 A 
ATOM     25  C   UNL     1       4.870   3.752  15.944  0.00  0.00    +0.000 C 
ATOM     26  C   UNL     1       5.930   4.587  18.221  0.00  0.00    +0.000 A 
ENDBRANCH  19  26
ENDBRANCH   1  19
TORSDOF 3
ENDMDL
MODEL 5
REMARK VINA RESULT:      -6.7      8.185     11.596
REMARK  Name = 
REMARK  5 active torsions:
REMARK  status: ('A' for Active; 'I' for Inactive)
REMARK    1  A    between atoms: C_1  and  C_2
REMARK    2  A    between atoms: C_5  and  C_6
REMARK    3  A    between atoms: C_7  and  C_8
REMARK    4  A    between atoms: C_8  and  N_9
REMARK    5  A    between atoms: C_15  and  C_17
REMARK                            x       y       z     vdW  Elec       q    Type
REMARK                         _______ _______ _______ _____ _____    ______ ____
ROOT
ATOM      1  N   UNL     1       0.598  11.662  19.443  0.00  0.00    +0.000 N 
ATOM      2  C   UNL     1       0.667  13.034  19.868  0.00  0.00    +0.000 C 
ATOM      3  C   UNL     1       2.035  13.542  19.374  0.00  0.00    +0.000 C 
ATOM      4  C   UNL     1       2.967  13.899  20.563  0.00  0.00    +0.000 C 
ATOM      5  C   UNL     1       3.267  15.389  20.429  0.00  0.00    +0.000 C 
ATOM      6  N   UNL     1       2.241  15.887  19.541  0.00  0.00    +0.000 N 
ATOM      7  C   UNL     1       2.180  17.253  19.269  0.00  0.00    +0.000 C 
ATOM      8  O   UNL     1       2.963  18.043  19.796  0.00  0.00    +0.000 OA
ATOM      9  C   UNL     1       1.911  14.850  18.588  0.00  0.00    +0.000 C 
ATOM     10  C   UNL     1       2.572  12.426  18.462  0.00  0.00    +0.000 C 
ATOM     11  C   UNL     1       1.524  11.353  18.474  0.00  0.00    +0.000 C 
ATOM     12  O   UNL     1       1.547  10.353  17.777  0.00  0.00    +0.000 OA
ENDROOT
BRANCH   7  13
ATOM     13  C   UNL     1       1.194  17.707  18.311  0.00  0.00    +0.000 A 
ATOM     14  C   UNL     1      -0.162  17.967  18.419  0.00  0.00    +0.000 A 
ATOM     15  C   UNL     1      -0.650  18.335  17.144  0.00  0.00    +0.000 A 
ATOM     16  C   UNL     1       0.429  18.376  16.299  0.00  0.00    +0.000 A 
ATOM     17  N   UNL     1       1.546  18.048  17.016  0.00  0.00    +0.000 N 
ATOM     18  H   UNL     1       2.496  18.014  16.668  0.00  0.00    +0.000 HD
ENDBRANCH   7  13
BRANCH   1  19
ATOM     19  C   UNL     1      -0.421  10.732  19.897  0.00  0.00    +0.000 C 
BRANCH  19  26
ATOM     20  C   UNL     1      -1.322  11.862  22.819  0.00  0.00    +0.000 C 
ATOM     21  C   UNL     1      -0.496  10.673  22.504  0.00  0.00    +0.000 A 
ATOM     22  N   UNL     1       0.006   9.939  23.502  0.00  0.00    +0.000 NA
ATOM     23  O   UNL     1       0.748   8.947  22.900  0.00  0.00    +0.000 OA
ATOM     24  C   UNL     1       0.693   9.086  21.550  0.00  0.00    +0.000 A 
ATOM     25  C   UNL     1       1.483   8.100  20.784  0.00  0.00    +0.000 C 
ATOM     26  C   UNL     1      -0.108  10.168  21.231  0.00  0.00    +0.000 A 
ENDBRANCH  19  26
ENDBRANCH   1  19
TORSDOF 3
ENDMDL
MODEL 6
REMARK VINA RESULT:      -6.5      8.641     11.873
REMARK  Name = 
REMARK  5 active torsions:
REMARK  status: ('A' for Active; 'I' for Inactive)
REMARK    1  A    between atoms: C_1  and  C_2
REMARK    2  A    between atoms: C_5  and  C_6
REMARK    3  A    between atoms: C_7  and  C_8
REMARK    4  A    between atoms: C_8  and  N_9
REMARK    5  A    between atoms: C_15  and  C_17
REMARK                            x       y       z     vdW  Elec       q    Type
REMARK                         _______ _______ _______ _____ _____    ______ ____
ROOT
ATOM      1  N   UNL     1       0.385  11.922  19.656  0.00  0.00    +0.000 N 
ATOM      2  C   UNL     1       0.455  13.310  20.026  0.00  0.00    +0.000 C 
ATOM      3  C   UNL     1       1.851  13.780  19.572  0.00  0.00    +0.000 C 
ATOM      4  C   UNL     1       2.735  14.176  20.785  0.00  0.00    +0.000 C 
ATOM      5  C   UNL     1       3.061  15.655  20.600  0.00  0.00    +0.000 C 
ATOM      6  N   UNL     1       2.082  16.127  19.648  0.00  0.00    +0.000 N 
ATOM      7  C   UNL     1       2.053  17.480  19.316  0.00  0.00    +0.000 C 
ATOM      8  O   UNL     1       2.823  18.283  19.843  0.00  0.00    +0.000 OA
ATOM      9  C   UNL     1       1.780  15.054  18.727  0.00  0.00    +0.000 C 
ATOM     10  C   UNL     1       2.411  12.619  18.732  0.00  0.00    +0.000 C 
ATOM     11  C   UNL     1       1.348  11.560  18.743  0.00  0.00    +0.000 C 
ATOM     12  O   UNL     1       1.388  10.531  18.091  0.00  0.00    +0.000 OA
ENDROOT
BRANCH   7  13
ATOM     13  C   UNL     1       1.116  17.905  18.297  0.00  0.00    +0.000 A 
ATOM     14  C   UNL     1      -0.236  18.205  18.338  0.00  0.00    +0.000 A 
ATOM     15  C   UNL     1      -0.666  18.513  17.027  0.00  0.00    +0.000 A 
ATOM     16  C   UNL     1       0.445  18.480  16.223  0.00  0.00    +0.000 A 
ATOM     17  N   UNL     1       1.525  18.165  17.000  0.00  0.00    +0.000 N 
ATOM     18  H   UNL     1       2.486  18.088  16.692  0.00  0.00    +0.000 HD
ENDBRANCH   7  13
BRANCH   1  19
ATOM     19  C   UNL     1      -0.665  11.025  20.104  0.00  0.00    +0.000 C 
BRANCH  19  26
ATOM     20  C   UNL     1       1.203   8.541  21.085  0.00  0.00    +0.000 C 
ATOM     21  C   UNL     1       0.372   9.450  21.907  0.00  0.00    +0.000 A 
ATOM     22  N   UNL     1       0.306   9.266  23.229  0.00  0.00    +0.000 NA
ATOM     23  O   UNL     1      -0.562  10.225  23.699  0.00  0.00    +0.000 OA
ATOM     24  C   UNL     1      -1.017  10.980  22.665  0.00  0.00    +0.000 A 
ATOM     25  C   UNL     1      -1.992  12.028  23.032  0.00  0.00    +0.000 C 
ATOM     26  C   UNL     1      -0.438  10.543  21.487  0.00  0.00    +0.000 A 
ENDBRANCH  19  26
ENDBRANCH   1  19
TORSDOF 3
ENDMDL
MODEL 7
REMARK VINA RESULT:      -6.5      9.602     12.834
REMARK  Name = 
REMARK  5 active torsions:
REMARK  status: ('A' for Active; 'I' for Inactive)
REMARK    1  A    between atoms: C_1  and  C_2
REMARK    2  A    between atoms: C_5  and  C_6
REMARK    3  A    between atoms: C_7  and  C_8
REMARK    4  A    between atoms: C_8  and  N_9
REMARK    5  A    between atoms: C_15  and  C_17
REMARK                            x       y       z     vdW  Elec       q    Type
REMARK                         _______ _______ _______ _____ _____    ______ ____
ROOT
ATOM      1  N   UNL     1      -3.939  13.647  23.023  0.00  0.00    +0.000 N 
ATOM      2  C   UNL     1      -3.078  13.788  21.879  0.00  0.00    +0.000 C 
ATOM      3  C   UNL     1      -1.910  12.815  22.129  0.00  0.00    +0.000 C 
ATOM      4  C   UNL     1      -0.569  13.577  22.305  0.00  0.00    +0.000 C 
ATOM      5  C   UNL     1       0.335  13.102  21.171  0.00  0.00    +0.000 C 
ATOM      6  N   UNL     1      -0.567  12.505  20.213  0.00  0.00    +0.000 N 
ATOM      7  C   UNL     1      -0.061  12.036  19.002  0.00  0.00    +0.000 C 
ATOM      8  O   UNL     1       1.132  12.150  18.723  0.00  0.00    +0.000 OA
ATOM      9  C   UNL     1      -1.664  11.895  20.931  0.00  0.00    +0.000 C 
ATOM     10  C   UNL     1      -2.333  11.986  23.354  0.00  0.00    +0.000 C 
ATOM     11  C   UNL     1      -3.684  12.507  23.748  0.00  0.00    +0.000 C 
ATOM     12  O   UNL     1      -4.389  12.019  24.615  0.00  0.00    +0.000 OA
ENDROOT
BRANCH   7  13
ATOM     13  C   UNL     1      -0.977  11.368  18.101  0.00  0.00    +0.000 A 
ATOM     14  C   UNL     1      -1.261  10.031  17.881  0.00  0.00    +0.000 A 
ATOM     15  C   UNL     1      -2.208   9.941  16.834  0.00  0.00    +0.000 A 
ATOM     16  C   UNL     1      -2.549  11.225  16.493  0.00  0.00    +0.000 A 
ATOM     17  N   UNL     1      -1.846  12.082  17.293  0.00  0.00    +0.000 N 
ATOM     18  H   UNL     1      -1.903  13.092  17.289  0.00  0.00    +0.000 HD
ENDBRANCH   7  13
BRANCH   1  19
ATOM     19  C   UNL     1      -5.041  14.547  23.313  0.00  0.00    +0.000 C 
BRANCH  19  26
ATOM     20  C   UNL     1      -7.500  12.420  23.083  0.00  0.00    +0.000 C 
ATOM     21  C   UNL     1      -7.166  13.546  22.180  0.00  0.00    +0.000 A 
ATOM     22  N   UNL     1      -7.910  13.756  21.089  0.00  0.00    +0.000 NA
ATOM     23  O   UNL     1      -7.335  14.828  20.444  0.00  0.00    +0.000 OA
ATOM     24  C   UNL     1      -6.251  15.258  21.142  0.00  0.00    +0.000 A 
ATOM     25  C   UNL     1      -5.518  16.386  20.532  0.00  0.00    +0.000 C 
ATOM     26  C   UNL     1      -6.101  14.485  22.280  0.00  0.00    +0.000 A 
ENDBRANCH  19  26
ENDBRANCH   1  19
TORSDOF 3
ENDMDL
MODEL 8
REMARK VINA RESULT:      -6.4      4.190      8.160
REMARK  Name = 
REMARK  5 active torsions:
REMARK  status: ('A' for Active; 'I' for Inactive)
REMARK    1  A    between atoms: C_1  and  C_2
REMARK    2  A    between atoms: C_5  and  C_6
REMARK    3  A    between atoms: C_7  and  C_8
REMARK    4  A    between atoms: C_8  and  N_9
REMARK    5  A    between atoms: C_15  and  C_17
REMARK                            x       y       z     vdW  Elec       q    Type
REMARK                         _______ _______ _______ _____ _____    ______ ____
ROOT
ATOM      1  N   UNL     1       2.571   6.158  17.790  0.00  0.00    +0.000 N 
ATOM      2  C   UNL     1       1.424   6.787  18.390  0.00  0.00    +0.000 C 
ATOM      3  C   UNL     1       1.859   8.239  18.669  0.00  0.00    +0.000 C 
ATOM      4  C   UNL     1       1.893   8.534  20.192  0.00  0.00    +0.000 C 
ATOM      5  C   UNL     1       0.872   9.644  20.427  0.00  0.00    +0.000 C 
ATOM      6  N   UNL     1       0.041   9.629  19.245  0.00  0.00    +0.000 N 
ATOM      7  C   UNL     1      -1.057  10.484  19.175  0.00  0.00    +0.000 C 
ATOM      8  O   UNL     1      -1.348  11.226  20.112  0.00  0.00    +0.000 OA
ATOM      9  C   UNL     1       0.857   9.253  18.112  0.00  0.00    +0.000 C 
ATOM     10  C   UNL     1       3.216   8.394  17.963  0.00  0.00    +0.000 C 
ATOM     11  C   UNL     1       3.500   7.063  17.331  0.00  0.00    +0.000 C 
ATOM     12  O   UNL     1       4.440   6.833  16.591  0.00  0.00    +0.000 OA
ENDROOT
BRANCH   7  13
ATOM     13  C   UNL     1      -1.819  10.504  17.943  0.00  0.00    +0.000 A 
ATOM     14  C   UNL     1      -2.718   9.609  17.387  0.00  0.00    +0.000 A 
ATOM     15  C   UNL     1      -3.125  10.108  16.128  0.00  0.00    +0.000 A 
ATOM     16  C   UNL     1      -2.536  11.337  15.976  0.00  0.00    +0.000 A 
ATOM     17  N   UNL     1      -1.792  11.597  17.093  0.00  0.00    +0.000 N 
ATOM     18  H   UNL     1      -1.259  12.436  17.279  0.00  0.00    +0.000 HD
ENDBRANCH   7  13
BRANCH   1  19
ATOM     19  C   UNL     1       2.682   4.726  17.579  0.00  0.00    +0.000 C 
BRANCH  19  26
ATOM     20  C   UNL     1       5.826   4.234  18.280  0.00  0.00    +0.000 C 
ATOM     21  C   UNL     1       4.633   3.810  19.048  0.00  0.00    +0.000 A 
ATOM     22  N   UNL     1       4.791   3.100  20.169  0.00  0.00    +0.000 NA
ATOM     23  O   UNL     1       3.519   2.827  20.623  0.00  0.00    +0.000 OA
ATOM     24  C   UNL     1       2.604   3.368  19.777  0.00  0.00    +0.000 A 
ATOM     25  C   UNL     1       1.192   3.113  20.133  0.00  0.00    +0.000 C 
ATOM     26  C   UNL     1       3.258   4.030  18.754  0.00  0.00    +0.000 A 
ENDBRANCH  19  26
ENDBRANCH   1  19
TORSDOF 3
ENDMDL
MODEL 9
REMARK VINA RESULT:      -6.3      7.823     11.103
REMARK  Name = 
REMARK  5 active torsions:
REMARK  status: ('A' for Active; 'I' for Inactive)
REMARK    1  A    between atoms: C_1  and  C_2
REMARK    2  A    between atoms: C_5  and  C_6
REMARK    3  A    between atoms: C_7  and  C_8
REMARK    4  A    between atoms: C_8  and  N_9
REMARK    5  A    between atoms: C_15  and  C_17
REMARK                            x       y       z     vdW  Elec       q    Type
REMARK                         _______ _______ _______ _____ _____    ______ ____
ROOT
ATOM      1  N   UNL     1      -0.355  12.447  20.578  0.00  0.00    +0.000 N 
ATOM      2  C   UNL     1       0.272  13.179  19.510  0.00  0.00    +0.000 C 
ATOM      3  C   UNL     1       0.432  14.616  20.043  0.00  0.00    +0.000 C 
ATOM      4  C   UNL     1      -0.431  15.618  19.231  0.00  0.00    +0.000 C 
ATOM      5  C   UNL     1       0.551  16.602  18.601  0.00  0.00    +0.000 C 
ATOM      6  N   UNL     1       1.831  15.935  18.676  0.00  0.00    +0.000 N 
ATOM      7  C   UNL     1       2.949  16.542  18.105  0.00  0.00    +0.000 C 
ATOM      8  O   UNL     1       2.857  17.616  17.512  0.00  0.00    +0.000 OA
ATOM      9  C   UNL     1       1.863  15.132  19.878  0.00  0.00    +0.000 C 
ATOM     10  C   UNL     1       0.069  14.532  21.536  0.00  0.00    +0.000 C 
ATOM     11  C   UNL     1      -0.279  13.095  21.789  0.00  0.00    +0.000 C 
ATOM     12  O   UNL     1      -0.515  12.621  22.887  0.00  0.00    +0.000 OA
ENDROOT
BRANCH   7  13
ATOM     13  C   UNL     1       4.230  15.888  18.272  0.00  0.00    +0.000 A 
ATOM     14  C   UNL     1       5.266  16.080  19.170  0.00  0.00    +0.000 A 
ATOM     15  C   UNL     1       6.316  15.192  18.838  0.00  0.00    +0.000 A 
ATOM     16  C   UNL     1       5.870  14.417  17.799  0.00  0.00    +0.000 A 
ATOM     17  N   UNL     1       4.595  14.802  17.493  0.00  0.00    +0.000 N 
ATOM     18  H   UNL     1       3.998  14.398  16.783  0.00  0.00    +0.000 HD
ENDBRANCH   7  13
BRANCH   1  19
ATOM     19  C   UNL     1      -0.901  11.111  20.421  0.00  0.00    +0.000 C 
BRANCH  19  26
ATOM     20  C   UNL     1       0.988   9.695  18.173  0.00  0.00    +0.000 C 
ATOM     21  C   UNL     1       0.939   9.438  19.631  0.00  0.00    +0.000 A 
ATOM     22  N   UNL     1       1.721   8.492  20.159  0.00  0.00    +0.000 NA
ATOM     23  O   UNL     1       1.422   8.464  21.503  0.00  0.00    +0.000 OA
ATOM     24  C   UNL     1       0.464   9.386  21.780  0.00  0.00    +0.000 A 
ATOM     25  C   UNL     1       0.024   9.432  23.190  0.00  0.00    +0.000 C 
ATOM     26  C   UNL     1       0.125  10.060  20.620  0.00  0.00    +0.000 A 
ENDBRANCH  19  26
ENDBRANCH   1  19
TORSDOF 3
ENDMDL
