MODEL 1
REMARK VINA RESULT:      -7.4      0.000      0.000
REMARK  Name = 
REMARK  13 active torsions:
REMARK  status: ('A' for Active; 'I' for Inactive)
REMARK    1  A    between atoms: C_1  and  C_2
REMARK    2  A    between atoms: C_2  and  C_3
REMARK    3  A    between atoms: C_2  and  C_4
REMARK    4  A    between atoms: C_5  and  C_6
REMARK    5  A    between atoms: C_13  and  C_14
REMARK    6  A    between atoms: C_14  and  N_15
REMARK    7  A    between atoms: N_15  and  C_16
REMARK    8  A    between atoms: C_17  and  C_19
REMARK    9  A    between atoms: C_25  and  C_26
REMARK   10  A    between atoms: N_28  and  C_29
REMARK   11  A    between atoms: C_29  and  C_30
REMARK   12  A    between atoms: C_29  and  C_31
REMARK   13  A    between atoms: C_31  and  O_32
REMARK                            x       y       z     vdW  Elec       q    Type
REMARK                         _______ _______ _______ _____ _____    ______ ____
ROOT
ATOM      1  C   UNL     1       9.289  10.600  18.663  0.00  0.00    +0.000 A 
ATOM      2  C   UNL     1       9.663  11.385  17.585  0.00  0.00    +0.000 A 
ATOM      3  C   UNL     1      10.192  12.623  17.851  0.00  0.00    +0.000 A 
ATOM      4  C   UNL     1      10.291  13.071  19.177  0.00  0.00    +0.000 A 
ATOM      5  C   UNL     1       9.839  12.296  20.268  0.00  0.00    +0.000 A 
ATOM      6  C   UNL     1       9.407  11.017  19.987  0.00  0.00    +0.000 A 
ATOM      7  O   UNL     1       9.902  12.716  21.563  0.00  0.00    +0.000 OA
ATOM      8  C   UNL     1       8.658  13.074  22.260  0.00  0.00    +0.000 C 
ATOM      9  C   UNL     1       7.700  14.018  21.440  0.00  0.00    +0.000 C 
ATOM     10  C   UNL     1       6.684  14.885  22.221  0.00  0.00    +0.000 C 
ATOM     11  C   UNL     1       8.361  14.959  20.402  0.00  0.00    +0.000 C 
ATOM     12  N   UNL     1       9.801  15.331  20.598  0.00  0.00    +0.000 NA
ATOM     13  S   UNL     1      10.779  14.763  19.337  0.00  0.00    +0.000 S 
ATOM     14  O   UNL     1      10.318  15.437  18.144  0.00  0.00    +0.000 OA
ATOM     15  O   UNL     1      12.204  14.736  19.643  0.00  0.00    +0.000 OA
ENDROOT
BRANCH   1  17
ATOM     16  C   UNL     1       8.240   8.154  18.195  0.00  0.00    +0.000 C 
ATOM     17  C   UNL     1       8.741   9.340  18.400  0.00  0.00    +0.000 C 
BRANCH  16  19
ATOM     18  C   UNL     1       7.666   5.979  19.262  0.00  0.00    +0.000 C 
ATOM     19  C   UNL     1       7.656   6.770  17.958  0.00  0.00    +0.000 C 
ATOM     20  C   UNL     1       6.239   6.898  17.409  0.00  0.00    +0.000 C 
ENDBRANCH  16  19
ENDBRANCH   1  17
BRANCH  12  21
ATOM     21  C   UNL     1      10.371  15.756  21.927  0.00  0.00    +0.000 C 
ATOM     22  C   UNL     1      11.661  16.578  21.818  0.00  0.00    +0.000 C 
BRANCH  21  23
ATOM     23  C   UNL     1       9.410  16.593  22.796  0.00  0.00    +0.000 C 
BRANCH  23  24
ATOM     24  O   UNL     1       9.334  16.152  24.150  0.00  0.00    +0.000 OA
ATOM     25  H   UNL     1      10.245  15.971  24.447  0.00  0.00    +0.000 HD
ENDBRANCH  23  24
ENDBRANCH  21  23
ENDBRANCH  12  21
BRANCH   8  26
ATOM     26  C   UNL     1       7.992  11.816  22.905  0.00  0.00    +0.000 C 
BRANCH  26  27
ATOM     27  N   UNL     1       7.534  11.992  24.316  0.00  0.00    +0.000 N 
ATOM     28  C   UNL     1       8.553  12.262  25.325  0.00  0.00    +0.000 C 
ATOM     29  C   UNL     1       6.195  11.679  24.635  0.00  0.00    +0.000 C 
ATOM     30  O   UNL     1       5.408  11.251  23.793  0.00  0.00    +0.000 OA
BRANCH  29  31
ATOM     31  C   UNL     1       5.712  11.813  26.052  0.00  0.00    +0.000 A 
ATOM     32  C   UNL     1       5.645  10.725  26.923  0.00  0.00    +0.000 A 
ATOM     33  C   UNL     1       4.995  10.881  28.129  0.00  0.00    +0.000 A 
ATOM     34  N   UNL     1       4.521  12.062  28.570  0.00  0.00    +0.000 NA
ATOM     35  C   UNL     1       4.711  13.131  27.766  0.00  0.00    +0.000 A 
ATOM     36  C   UNL     1       5.282  13.061  26.506  0.00  0.00    +0.000 A 
ENDBRANCH  29  31
ENDBRANCH  26  27
ENDBRANCH   8  26
TORSDOF 8
ENDMDL
MODEL 2
REMARK VINA RESULT:      -7.1      6.666     10.182
REMARK  Name = 
REMARK  13 active torsions:
REMARK  status: ('A' for Active; 'I' for Inactive)
REMARK    1  A    between atoms: C_1  and  C_2
REMARK    2  A    between atoms: C_2  and  C_3
REMARK    3  A    between atoms: C_2  and  C_4
REMARK    4  A    between atoms: C_5  and  C_6
REMARK    5  A    between atoms: C_13  and  C_14
REMARK    6  A    between atoms: C_14  and  N_15
REMARK    7  A    between atoms: N_15  and  C_16
REMARK    8  A    between atoms: C_17  and  C_19
REMARK    9  A    between atoms: C_25  and  C_26
REMARK   10  A    between atoms: N_28  and  C_29
REMARK   11  A    between atoms: C_29  and  C_30
REMARK   12  A    between atoms: C_29  and  C_31
REMARK   13  A    between atoms: C_31  and  O_32
REMARK                            x       y       z     vdW  Elec       q    Type
REMARK                         _______ _______ _______ _____ _____    ______ ____
ROOT
ATOM      1  C   UNL     1       7.000   7.354  17.949  0.00  0.00    +0.000 A 
ATOM      2  C   UNL     1       7.590   6.215  18.473  0.00  0.00    +0.000 A 
ATOM      3  C   UNL     1       6.823   5.080  18.553  0.00  0.00    +0.000 A 
ATOM      4  C   UNL     1       5.478   5.115  18.156  0.00  0.00    +0.000 A 
ATOM      5  C   UNL     1       4.861   6.298  17.693  0.00  0.00    +0.000 A 
ATOM      6  C   UNL     1       5.674   7.399  17.524  0.00  0.00    +0.000 A 
ATOM      7  O   UNL     1       3.551   6.366  17.322  0.00  0.00    +0.000 OA
ATOM      8  C   UNL     1       2.603   7.091  18.180  0.00  0.00    +0.000 C 
ATOM      9  C   UNL     1       2.707   6.737  19.712  0.00  0.00    +0.000 C 
ATOM     10  C   UNL     1       1.466   6.981  20.604  0.00  0.00    +0.000 C 
ATOM     11  C   UNL     1       3.224   5.323  20.072  0.00  0.00    +0.000 C 
ATOM     12  N   UNL     1       3.073   4.231  19.053  0.00  0.00    +0.000 NA
ATOM     13  S   UNL     1       4.573   3.642  18.529  0.00  0.00    +0.000 S 
ATOM     14  O   UNL     1       5.198   3.061  19.695  0.00  0.00    +0.000 OA
ATOM     15  O   UNL     1       4.522   2.883  17.285  0.00  0.00    +0.000 OA
ENDROOT
BRANCH   1  17
ATOM     16  C   UNL     1       8.490   9.606  17.846  0.00  0.00    +0.000 C 
ATOM     17  C   UNL     1       7.772   8.518  17.873  0.00  0.00    +0.000 C 
BRANCH  16  19
ATOM     18  C   UNL     1       8.427  12.075  17.538  0.00  0.00    +0.000 C 
ATOM     19  C   UNL     1       9.327  10.875  17.815  0.00  0.00    +0.000 C 
ATOM     20  C   UNL     1      10.060  11.038  19.143  0.00  0.00    +0.000 C 
ENDBRANCH  16  19
ENDBRANCH   1  17
BRANCH  12  21
ATOM     21  C   UNL     1       1.802   3.994  18.278  0.00  0.00    +0.000 C 
ATOM     22  C   UNL     1       2.029   3.614  16.811  0.00  0.00    +0.000 C 
BRANCH  21  23
ATOM     23  C   UNL     1       0.893   2.894  18.864  0.00  0.00    +0.000 C 
BRANCH  23  24
ATOM     24  O   UNL     1       0.331   3.232  20.130  0.00  0.00    +0.000 OA
ATOM     25  H   UNL     1      -0.247   2.492  20.396  0.00  0.00    +0.000 HD
ENDBRANCH  23  24
ENDBRANCH  21  23
ENDBRANCH  12  21
BRANCH   8  26
ATOM     26  C   UNL     1       2.578   8.614  17.830  0.00  0.00    +0.000 C 
BRANCH  26  27
ATOM     27  N   UNL     1       1.326   9.334  18.212  0.00  0.00    +0.000 N 
ATOM     28  C   UNL     1       0.065   8.807  17.699  0.00  0.00    +0.000 C 
ATOM     29  C   UNL     1       1.436  10.586  18.853  0.00  0.00    +0.000 C 
ATOM     30  O   UNL     1       2.526  11.104  19.087  0.00  0.00    +0.000 OA
BRANCH  29  31
ATOM     31  C   UNL     1       0.197  11.351  19.220  0.00  0.00    +0.000 A 
ATOM     32  C   UNL     1      -0.325  12.361  18.409  0.00  0.00    +0.000 A 
ATOM     33  C   UNL     1      -1.332  13.159  18.909  0.00  0.00    +0.000 A 
ATOM     34  N   UNL     1      -1.928  12.945  20.097  0.00  0.00    +0.000 NA
ATOM     35  C   UNL     1      -1.496  11.882  20.811  0.00  0.00    +0.000 A 
ATOM     36  C   UNL     1      -0.440  11.070  20.430  0.00  0.00    +0.000 A 
ENDBRANCH  29  31
ENDBRANCH  26  27
ENDBRANCH   8  26
TORSDOF 8
ENDMDL
MODEL 3
REMARK VINA RESULT:      -6.9      0.552      1.121
REMARK  Name = 
REMARK  13 active torsions:
REMARK  status: ('A' for Active; 'I' for Inactive)
REMARK    1  A    between atoms: C_1  and  C_2
REMARK    2  A    between atoms: C_2  and  C_3
REMARK    3  A    between atoms: C_2  and  C_4
REMARK    4  A    between atoms: C_5  and  C_6
REMARK    5  A    between atoms: C_13  and  C_14
REMARK    6  A    between atoms: C_14  and  N_15
REMARK    7  A    between atoms: N_15  and  C_16
REMARK    8  A    between atoms: C_17  and  C_19
REMARK    9  A    between atoms: C_25  and  C_26
REMARK   10  A    between atoms: N_28  and  C_29
REMARK   11  A    between atoms: C_29  and  C_30
REMARK   12  A    between atoms: C_29  and  C_31
REMARK   13  A    between atoms: C_31  and  O_32
REMARK                            x       y       z     vdW  Elec       q    Type
REMARK                         _______ _______ _______ _____ _____    ______ ____
ROOT
ATOM      1  C   UNL     1       9.208  10.379  18.734  0.00  0.00    +0.000 A 
ATOM      2  C   UNL     1       9.567  11.076  17.591  0.00  0.00    +0.000 A 
ATOM      3  C   UNL     1      10.158  12.304  17.753  0.00  0.00    +0.000 A 
ATOM      4  C   UNL     1      10.334  12.832  19.041  0.00  0.00    +0.000 A 
ATOM      5  C   UNL     1       9.898  12.150  20.198  0.00  0.00    +0.000 A 
ATOM      6  C   UNL     1       9.401  10.876  20.020  0.00  0.00    +0.000 A 
ATOM      7  O   UNL     1      10.035  12.649  21.459  0.00  0.00    +0.000 OA
ATOM      8  C   UNL     1       8.839  13.106  22.181  0.00  0.00    +0.000 C 
ATOM      9  C   UNL     1       7.886  14.038  21.340  0.00  0.00    +0.000 C 
ATOM     10  C   UNL     1       6.942  14.997  22.103  0.00  0.00    +0.000 C 
ATOM     11  C   UNL     1       8.539  14.879  20.216  0.00  0.00    +0.000 C 
ATOM     12  N   UNL     1      10.001  15.198  20.328  0.00  0.00    +0.000 NA
ATOM     13  S   UNL     1      10.898  14.507  19.068  0.00  0.00    +0.000 S 
ATOM     14  O   UNL     1      10.414  15.123  17.853  0.00  0.00    +0.000 OA
ATOM     15  O   UNL     1      12.333  14.437  19.316  0.00  0.00    +0.000 OA
ENDROOT
BRANCH   1  17
ATOM     16  C   UNL     1       8.038   7.968  18.389  0.00  0.00    +0.000 C 
ATOM     17  C   UNL     1       8.597   9.131  18.577  0.00  0.00    +0.000 C 
BRANCH  16  19
ATOM     18  C   UNL     1       7.429   6.259  16.685  0.00  0.00    +0.000 C 
ATOM     19  C   UNL     1       7.385   6.614  18.167  0.00  0.00    +0.000 C 
ATOM     20  C   UNL     1       8.100   5.556  19.003  0.00  0.00    +0.000 C 
ENDBRANCH  16  19
ENDBRANCH   1  17
BRANCH  12  21
ATOM     21  C   UNL     1      10.647  15.683  21.601  0.00  0.00    +0.000 C 
ATOM     22  C   UNL     1      11.964  16.435  21.385  0.00  0.00    +0.000 C 
BRANCH  21  23
ATOM     23  C   UNL     1       9.761  16.618  22.450  0.00  0.00    +0.000 C 
BRANCH  23  24
ATOM     24  O   UNL     1       9.732  16.276  23.835  0.00  0.00    +0.000 OA
ATOM     25  H   UNL     1      10.213  16.976  24.315  0.00  0.00    +0.000 HD
ENDBRANCH  23  24
ENDBRANCH  21  23
ENDBRANCH  12  21
BRANCH   8  26
ATOM     26  C   UNL     1       8.150  11.924  22.935  0.00  0.00    +0.000 C 
BRANCH  26  27
ATOM     27  N   UNL     1       7.564  12.271  24.264  0.00  0.00    +0.000 N 
ATOM     28  C   UNL     1       8.491  12.480  25.373  0.00  0.00    +0.000 C 
ATOM     29  C   UNL     1       6.167  12.169  24.435  0.00  0.00    +0.000 C 
ATOM     30  O   UNL     1       5.428  11.786  23.531  0.00  0.00    +0.000 OA
BRANCH  29  31
ATOM     31  C   UNL     1       5.551  12.479  25.770  0.00  0.00    +0.000 A 
ATOM     32  C   UNL     1       5.439  13.783  26.254  0.00  0.00    +0.000 A 
ATOM     33  C   UNL     1       5.063  13.972  27.568  0.00  0.00    +0.000 A 
ATOM     34  N   UNL     1       4.680  12.971  28.382  0.00  0.00    +0.000 NA
ATOM     35  C   UNL     1       4.671  11.727  27.852  0.00  0.00    +0.000 A 
ATOM     36  C   UNL     1       5.104  11.427  26.571  0.00  0.00    +0.000 A 
ENDBRANCH  29  31
ENDBRANCH  26  27
ENDBRANCH   8  26
TORSDOF 8
ENDMDL
MODEL 4
REMARK VINA RESULT:      -6.6      0.901      1.328
REMARK  Name = 
REMARK  13 active torsions:
REMARK  status: ('A' for Active; 'I' for Inactive)
REMARK    1  A    between atoms: C_1  and  C_2
REMARK    2  A    between atoms: C_2  and  C_3
REMARK    3  A    between atoms: C_2  and  C_4
REMARK    4  A    between atoms: C_5  and  C_6
REMARK    5  A    between atoms: C_13  and  C_14
REMARK    6  A    between atoms: C_14  and  N_15
REMARK    7  A    between atoms: N_15  and  C_16
REMARK    8  A    between atoms: C_17  and  C_19
REMARK    9  A    between atoms: C_25  and  C_26
REMARK   10  A    between atoms: N_28  and  C_29
REMARK   11  A    between atoms: C_29  and  C_30
REMARK   12  A    between atoms: C_29  and  C_31
REMARK   13  A    between atoms: C_31  and  O_32
REMARK                            x       y       z     vdW  Elec       q    Type
REMARK                         _______ _______ _______ _____ _____    ______ ____
ROOT
ATOM      1  C   UNL     1       9.028  10.878  18.723  0.00  0.00    +0.000 A 
ATOM      2  C   UNL     1       9.242  11.795  17.707  0.00  0.00    +0.000 A 
ATOM      3  C   UNL     1       9.708  13.037  18.057  0.00  0.00    +0.000 A 
ATOM      4  C   UNL     1       9.903  13.355  19.410  0.00  0.00    +0.000 A 
ATOM      5  C   UNL     1       9.612  12.441  20.447  0.00  0.00    +0.000 A 
ATOM      6  C   UNL     1       9.244  11.167  20.068  0.00  0.00    +0.000 A 
ATOM      7  O   UNL     1       9.771  12.731  21.769  0.00  0.00    +0.000 OA
ATOM      8  C   UNL     1       8.578  12.918  22.608  0.00  0.00    +0.000 C 
ATOM      9  C   UNL     1       7.483  13.863  21.982  0.00  0.00    +0.000 C 
ATOM     10  C   UNL     1       6.490  14.564  22.939  0.00  0.00    +0.000 C 
ATOM     11  C   UNL     1       7.975  14.952  20.998  0.00  0.00    +0.000 C 
ATOM     12  N   UNL     1       9.399  15.414  21.105  0.00  0.00    +0.000 NA
ATOM     13  S   UNL     1      10.287  15.055  19.708  0.00  0.00    +0.000 S 
ATOM     14  O   UNL     1       9.668  15.809  18.641  0.00  0.00    +0.000 OA
ATOM     15  O   UNL     1      11.734  15.109  19.882  0.00  0.00    +0.000 OA
ENDROOT
BRANCH   1  17
ATOM     16  C   UNL     1       8.106   8.440  18.009  0.00  0.00    +0.000 C 
ATOM     17  C   UNL     1       8.545   9.612  18.375  0.00  0.00    +0.000 C 
BRANCH  16  19
ATOM     18  C   UNL     1       7.784   6.076  18.716  0.00  0.00    +0.000 C 
ATOM     19  C   UNL     1       7.593   7.075  17.580  0.00  0.00    +0.000 C 
ATOM     20  C   UNL     1       6.123   7.178  17.186  0.00  0.00    +0.000 C 
ENDBRANCH  16  19
ENDBRANCH   1  17
BRANCH  12  21
ATOM     21  C   UNL     1      10.064  15.746  22.416  0.00  0.00    +0.000 C 
ATOM     22  C   UNL     1      11.353  16.562  22.272  0.00  0.00    +0.000 C 
BRANCH  21  23
ATOM     23  C   UNL     1       9.175  16.532  23.402  0.00  0.00    +0.000 C 
BRANCH  23  24
ATOM     24  O   UNL     1       9.230  16.037  24.739  0.00  0.00    +0.000 OA
ATOM     25  H   UNL     1       8.323  16.074  25.097  0.00  0.00    +0.000 HD
ENDBRANCH  23  24
ENDBRANCH  21  23
ENDBRANCH  12  21
BRANCH   8  26
ATOM     26  C   UNL     1       8.065  11.553  23.169  0.00  0.00    +0.000 C 
BRANCH  26  27
ATOM     27  N   UNL     1       6.995  11.654  24.207  0.00  0.00    +0.000 N 
ATOM     28  C   UNL     1       5.621  11.400  23.783  0.00  0.00    +0.000 C 
ATOM     29  C   UNL     1       7.326  12.193  25.469  0.00  0.00    +0.000 C 
ATOM     30  O   UNL     1       8.459  12.594  25.728  0.00  0.00    +0.000 OA
BRANCH  29  31
ATOM     31  C   UNL     1       6.265  12.339  26.522  0.00  0.00    +0.000 A 
ATOM     32  C   UNL     1       5.633  13.556  26.781  0.00  0.00    +0.000 A 
ATOM     33  C   UNL     1       4.831  13.663  27.898  0.00  0.00    +0.000 A 
ATOM     34  N   UNL     1       4.526  12.621  28.695  0.00  0.00    +0.000 NA
ATOM     35  C   UNL     1       5.046  11.421  28.352  0.00  0.00    +0.000 A 
ATOM     36  C   UNL     1       5.921  11.229  27.296  0.00  0.00    +0.000 A 
ENDBRANCH  29  31
ENDBRANCH  26  27
ENDBRANCH   8  26
TORSDOF 8
ENDMDL
MODEL 5
REMARK VINA RESULT:      -6.1      7.056     10.294
REMARK  Name = 
REMARK  13 active torsions:
REMARK  status: ('A' for Active; 'I' for Inactive)
REMARK    1  A    between atoms: C_1  and  C_2
REMARK    2  A    between atoms: C_2  and  C_3
REMARK    3  A    between atoms: C_2  and  C_4
REMARK    4  A    between atoms: C_5  and  C_6
REMARK    5  A    between atoms: C_13  and  C_14
REMARK    6  A    between atoms: C_14  and  N_15
REMARK    7  A    between atoms: N_15  and  C_16
REMARK    8  A    between atoms: C_17  and  C_19
REMARK    9  A    between atoms: C_25  and  C_26
REMARK   10  A    between atoms: N_28  and  C_29
REMARK   11  A    between atoms: C_29  and  C_30
REMARK   12  A    between atoms: C_29  and  C_31
REMARK   13  A    between atoms: C_31  and  O_32
REMARK                            x       y       z     vdW  Elec       q    Type
REMARK                         _______ _______ _______ _____ _____    ______ ____
ROOT
ATOM      1  C   UNL     1       7.061   7.354  18.038  0.00  0.00    +0.000 A 
ATOM      2  C   UNL     1       7.611   6.223  18.620  0.00  0.00    +0.000 A 
ATOM      3  C   UNL     1       6.824   5.104  18.707  0.00  0.00    +0.000 A 
ATOM      4  C   UNL     1       5.494   5.146  18.258  0.00  0.00    +0.000 A 
ATOM      5  C   UNL     1       4.916   6.323  17.734  0.00  0.00    +0.000 A 
ATOM      6  C   UNL     1       5.753   7.405  17.562  0.00  0.00    +0.000 A 
ATOM      7  O   UNL     1       3.622   6.399  17.312  0.00  0.00    +0.000 OA
ATOM      8  C   UNL     1       2.655   7.167  18.110  0.00  0.00    +0.000 C 
ATOM      9  C   UNL     1       2.694   6.861  19.655  0.00  0.00    +0.000 C 
ATOM     10  C   UNL     1       1.426   7.153  20.491  0.00  0.00    +0.000 C 
ATOM     11  C   UNL     1       3.175   5.451  20.079  0.00  0.00    +0.000 C 
ATOM     12  N   UNL     1       3.044   4.330  19.091  0.00  0.00    +0.000 NA
ATOM     13  S   UNL     1       4.551   3.701  18.644  0.00  0.00    +0.000 S 
ATOM     14  O   UNL     1       5.123   3.148  19.851  0.00  0.00    +0.000 OA
ATOM     15  O   UNL     1       4.535   2.903  17.424  0.00  0.00    +0.000 OA
ENDROOT
BRANCH   1  17
ATOM     16  C   UNL     1       8.594   9.576  17.919  0.00  0.00    +0.000 C 
ATOM     17  C   UNL     1       7.855   8.503  17.954  0.00  0.00    +0.000 C 
BRANCH  16  19
ATOM     18  C   UNL     1       8.569  12.053  17.673  0.00  0.00    +0.000 C 
ATOM     19  C   UNL     1       9.454  10.828  17.881  0.00  0.00    +0.000 C 
ATOM     20  C   UNL     1      10.250  10.945  19.177  0.00  0.00    +0.000 C 
ENDBRANCH  16  19
ENDBRANCH   1  17
BRANCH  12  21
ATOM     21  C   UNL     1       1.799   4.087  18.276  0.00  0.00    +0.000 C 
ATOM     22  C   UNL     1       2.073   3.735  16.810  0.00  0.00    +0.000 C 
BRANCH  21  23
ATOM     23  C   UNL     1       0.890   2.965  18.818  0.00  0.00    +0.000 C 
BRANCH  23  24
ATOM     24  O   UNL     1       1.467   1.665  18.720  0.00  0.00    +0.000 OA
ATOM     25  H   UNL     1       1.925   1.488  19.563  0.00  0.00    +0.000 HD
ENDBRANCH  23  24
ENDBRANCH  21  23
ENDBRANCH  12  21
BRANCH   8  26
ATOM     26  C   UNL     1       2.668   8.677  17.710  0.00  0.00    +0.000 C 
BRANCH  26  27
ATOM     27  N   UNL     1       1.690   9.538  18.441  0.00  0.00    +0.000 N 
ATOM     28  C   UNL     1       2.145  10.176  19.673  0.00  0.00    +0.000 C 
ATOM     29  C   UNL     1       0.338   9.518  18.036  0.00  0.00    +0.000 C 
ATOM     30  O   UNL     1      -0.055   8.804  17.116  0.00  0.00    +0.000 OA
BRANCH  29  31
ATOM     31  C   UNL     1      -0.676  10.347  18.772  0.00  0.00    +0.000 A 
ATOM     32  C   UNL     1      -1.659  11.084  18.110  0.00  0.00    +0.000 A 
ATOM     33  C   UNL     1      -2.413  11.983  18.835  0.00  0.00    +0.000 A 
ATOM     34  N   UNL     1      -2.338  12.107  20.173  0.00  0.00    +0.000 NA
ATOM     35  C   UNL     1      -1.470  11.290  20.811  0.00  0.00    +0.000 A 
ATOM     36  C   UNL     1      -0.616  10.411  20.165  0.00  0.00    +0.000 A 
ENDBRANCH  29  31
ENDBRANCH  26  27
ENDBRANCH   8  26
TORSDOF 8
ENDMDL
MODEL 6
REMARK VINA RESULT:      -6.0      6.829     10.073
REMARK  Name = 
REMARK  13 active torsions:
REMARK  status: ('A' for Active; 'I' for Inactive)
REMARK    1  A    between atoms: C_1  and  C_2
REMARK    2  A    between atoms: C_2  and  C_3
REMARK    3  A    between atoms: C_2  and  C_4
REMARK    4  A    between atoms: C_5  and  C_6
REMARK    5  A    between atoms: C_13  and  C_14
REMARK    6  A    between atoms: C_14  and  N_15
REMARK    7  A    between atoms: N_15  and  C_16
REMARK    8  A    between atoms: C_17  and  C_19
REMARK    9  A    between atoms: C_25  and  C_26
REMARK   10  A    between atoms: N_28  and  C_29
REMARK   11  A    between atoms: C_29  and  C_30
REMARK   12  A    between atoms: C_29  and  C_31
REMARK   13  A    between atoms: C_31  and  O_32
REMARK                            x       y       z     vdW  Elec       q    Type
REMARK                         _______ _______ _______ _____ _____    ______ ____
ROOT
ATOM      1  C   UNL     1       3.287  14.751  19.817  0.00  0.00    +0.000 A 
ATOM      2  C   UNL     1       2.745  15.944  20.269  0.00  0.00    +0.000 A 
ATOM      3  C   UNL     1       1.584  15.880  20.997  0.00  0.00    +0.000 A 
ATOM      4  C   UNL     1       0.964  14.641  21.219  0.00  0.00    +0.000 A 
ATOM      5  C   UNL     1       1.481  13.437  20.692  0.00  0.00    +0.000 A 
ATOM      6  C   UNL     1       2.700  13.511  20.052  0.00  0.00    +0.000 A 
ATOM      7  O   UNL     1       0.888  12.223  20.872  0.00  0.00    +0.000 OA
ATOM      8  C   UNL     1       0.231  11.572  19.729  0.00  0.00    +0.000 C 
ATOM      9  C   UNL     1      -0.723  12.515  18.902  0.00  0.00    +0.000 C 
ATOM     10  C   UNL     1      -1.852  11.862  18.068  0.00  0.00    +0.000 C 
ATOM     11  C   UNL     1      -1.376  13.694  19.663  0.00  0.00    +0.000 C 
ATOM     12  N   UNL     1      -1.533  13.579  21.151  0.00  0.00    +0.000 NA
ATOM     13  S   UNL     1      -0.630  14.751  21.975  0.00  0.00    +0.000 S 
ATOM     14  O   UNL     1      -1.184  16.027  21.581  0.00  0.00    +0.000 OA
ATOM     15  O   UNL     1      -0.418  14.466  23.389  0.00  0.00    +0.000 OA
ENDROOT
BRANCH   1  17
ATOM     16  C   UNL     1       5.575  14.824  18.381  0.00  0.00    +0.000 C 
ATOM     17  C   UNL     1       4.466  14.809  19.066  0.00  0.00    +0.000 C 
BRANCH  16  19
ATOM     18  C   UNL     1       7.871  15.778  18.252  0.00  0.00    +0.000 C 
ATOM     19  C   UNL     1       6.870  14.840  17.585  0.00  0.00    +0.000 C 
ATOM     20  C   UNL     1       7.430  13.424  17.487  0.00  0.00    +0.000 C 
ENDBRANCH  16  19
ENDBRANCH   1  17
BRANCH  12  21
ATOM     21  C   UNL     1      -2.055  12.340  21.833  0.00  0.00    +0.000 C 
ATOM     22  C   UNL     1      -1.134  11.801  22.934  0.00  0.00    +0.000 C 
BRANCH  21  23
ATOM     23  C   UNL     1      -3.442  12.507  22.487  0.00  0.00    +0.000 C 
BRANCH  23  24
ATOM     24  O   UNL     1      -3.554  11.870  23.758  0.00  0.00    +0.000 OA
ATOM     25  H   UNL     1      -3.280  12.520  24.432  0.00  0.00    +0.000 HD
ENDBRANCH  23  24
ENDBRANCH  21  23
ENDBRANCH  12  21
BRANCH   8  26
ATOM     26  C   UNL     1       1.252  10.731  18.898  0.00  0.00    +0.000 C 
BRANCH  26  27
ATOM     27  N   UNL     1       1.343   9.288  19.274  0.00  0.00    +0.000 N 
ATOM     28  C   UNL     1       0.882   8.910  20.606  0.00  0.00    +0.000 C 
ATOM     29  C   UNL     1       2.057   8.413  18.427  0.00  0.00    +0.000 C 
ATOM     30  O   UNL     1       2.616   8.808  17.406  0.00  0.00    +0.000 OA
BRANCH  29  31
ATOM     31  C   UNL     1       2.196   6.963  18.794  0.00  0.00    +0.000 A 
ATOM     32  C   UNL     1       2.248   5.952  17.834  0.00  0.00    +0.000 A 
ATOM     33  C   UNL     1       2.159   4.639  18.248  0.00  0.00    +0.000 A 
ATOM     34  N   UNL     1       2.144   4.268  19.542  0.00  0.00    +0.000 NA
ATOM     35  C   UNL     1       2.225   5.258  20.459  0.00  0.00    +0.000 A 
ATOM     36  C   UNL     1       2.240   6.606  20.143  0.00  0.00    +0.000 A 
ENDBRANCH  29  31
ENDBRANCH  26  27
ENDBRANCH   8  26
TORSDOF 8
ENDMDL
MODEL 7
REMARK VINA RESULT:      -5.8      7.048     10.704
REMARK  Name = 
REMARK  13 active torsions:
REMARK  status: ('A' for Active; 'I' for Inactive)
REMARK    1  A    between atoms: C_1  and  C_2
REMARK    2  A    between atoms: C_2  and  C_3
REMARK    3  A    between atoms: C_2  and  C_4
REMARK    4  A    between atoms: C_5  and  C_6
REMARK    5  A    between atoms: C_13  and  C_14
REMARK    6  A    between atoms: C_14  and  N_15
REMARK    7  A    between atoms: N_15  and  C_16
REMARK    8  A    between atoms: C_17  and  C_19
REMARK    9  A    between atoms: C_25  and  C_26
REMARK   10  A    between atoms: N_28  and  C_29
REMARK   11  A    between atoms: C_29  and  C_30
REMARK   12  A    between atoms: C_29  and  C_31
REMARK   13  A    between atoms: C_31  and  O_32
REMARK                            x       y       z     vdW  Elec       q    Type
REMARK                         _______ _______ _______ _____ _____    ______ ____
ROOT
ATOM      1  C   UNL     1       6.626   7.080  17.643  0.00  0.00    +0.000 A 
ATOM      2  C   UNL     1       7.189   5.830  17.439  0.00  0.00    +0.000 A 
ATOM      3  C   UNL     1       6.338   4.762  17.312  0.00  0.00    +0.000 A 
ATOM      4  C   UNL     1       4.953   4.950  17.438  0.00  0.00    +0.000 A 
ATOM      5  C   UNL     1       4.390   6.214  17.722  0.00  0.00    +0.000 A 
ATOM      6  C   UNL     1       5.253   7.289  17.744  0.00  0.00    +0.000 A 
ATOM      7  O   UNL     1       3.051   6.422  17.873  0.00  0.00    +0.000 OA
ATOM      8  C   UNL     1       2.520   6.712  19.212  0.00  0.00    +0.000 C 
ATOM      9  C   UNL     1       3.041   5.746  20.344  0.00  0.00    +0.000 C 
ATOM     10  C   UNL     1       2.180   5.584  21.619  0.00  0.00    +0.000 C 
ATOM     11  C   UNL     1       3.448   4.316  19.913  0.00  0.00    +0.000 C 
ATOM     12  N   UNL     1       2.845   3.754  18.660  0.00  0.00    +0.000 NA
ATOM     13  S   UNL     1       4.017   3.451  17.474  0.00  0.00    +0.000 S 
ATOM     14  O   UNL     1       4.886   2.437  18.027  0.00  0.00    +0.000 OA
ATOM     15  O   UNL     1       3.484   3.285  16.127  0.00  0.00    +0.000 OA
ENDROOT
BRANCH   1  17
ATOM     16  C   UNL     1       8.255   9.219  17.914  0.00  0.00    +0.000 C 
ATOM     17  C   UNL     1       7.487   8.173  17.783  0.00  0.00    +0.000 C 
BRANCH  16  19
ATOM     18  C   UNL     1       8.389  11.688  17.631  0.00  0.00    +0.000 C 
ATOM     19  C   UNL     1       9.149  10.439  18.065  0.00  0.00    +0.000 C 
ATOM     20  C   UNL     1       9.614  10.559  19.513  0.00  0.00    +0.000 C 
ENDBRANCH  16  19
ENDBRANCH   1  17
BRANCH  12  21
ATOM     21  C   UNL     1       1.377   3.855  18.331  0.00  0.00    +0.000 C 
ATOM     22  C   UNL     1       1.090   4.189  16.863  0.00  0.00    +0.000 C 
BRANCH  21  23
ATOM     23  C   UNL     1       0.564   2.583  18.642  0.00  0.00    +0.000 C 
BRANCH  23  24
ATOM     24  O   UNL     1       1.349   1.393  18.660  0.00  0.00    +0.000 OA
ATOM     25  H   UNL     1       1.618   1.238  19.585  0.00  0.00    +0.000 HD
ENDBRANCH  23  24
ENDBRANCH  21  23
ENDBRANCH  12  21
BRANCH   8  26
ATOM     26  C   UNL     1       2.595   8.240  19.529  0.00  0.00    +0.000 C 
BRANCH  26  27
ATOM     27  N   UNL     1       1.282   8.953  19.539  0.00  0.00    +0.000 N 
ATOM     28  C   UNL     1       0.418   8.755  20.699  0.00  0.00    +0.000 C 
ATOM     29  C   UNL     1       0.852   9.593  18.357  0.00  0.00    +0.000 C 
ATOM     30  O   UNL     1       1.516   9.565  17.323  0.00  0.00    +0.000 OA
BRANCH  29  31
ATOM     31  C   UNL     1      -0.479  10.289  18.324  0.00  0.00    +0.000 A 
ATOM     32  C   UNL     1      -1.513   9.884  17.479  0.00  0.00    +0.000 A 
ATOM     33  C   UNL     1      -2.620  10.696  17.349  0.00  0.00    +0.000 A 
ATOM     34  N   UNL     1      -2.817  11.806  18.085  0.00  0.00    +0.000 NA
ATOM     35  C   UNL     1      -1.862  12.112  18.992  0.00  0.00    +0.000 A 
ATOM     36  C   UNL     1      -0.682  11.403  19.141  0.00  0.00    +0.000 A 
ENDBRANCH  29  31
ENDBRANCH  26  27
ENDBRANCH   8  26
TORSDOF 8
ENDMDL
MODEL 8
REMARK VINA RESULT:      -5.7     10.341     12.809
REMARK  Name = 
REMARK  13 active torsions:
REMARK  status: ('A' for Active; 'I' for Inactive)
REMARK    1  A    between atoms: C_1  and  C_2
REMARK    2  A    between atoms: C_2  and  C_3
REMARK    3  A    between atoms: C_2  and  C_4
REMARK    4  A    between atoms: C_5  and  C_6
REMARK    5  A    between atoms: C_13  and  C_14
REMARK    6  A    between atoms: C_14  and  N_15
REMARK    7  A    between atoms: N_15  and  C_16
REMARK    8  A    between atoms: C_17  and  C_19
REMARK    9  A    between atoms: C_25  and  C_26
REMARK   10  A    between atoms: N_28  and  C_29
REMARK   11  A    between atoms: C_29  and  C_30
REMARK   12  A    between atoms: C_29  and  C_31
REMARK   13  A    between atoms: C_31  and  O_32
REMARK                            x       y       z     vdW  Elec       q    Type
REMARK                         _______ _______ _______ _____ _____    ______ ____
ROOT
ATOM      1  C   UNL     1      -1.975  10.593  18.577  0.00  0.00    +0.000 A 
ATOM      2  C   UNL     1      -2.938   9.858  17.905  0.00  0.00    +0.000 A 
ATOM      3  C   UNL     1      -4.176  10.426  17.745  0.00  0.00    +0.000 A 
ATOM      4  C   UNL     1      -4.445  11.688  18.297  0.00  0.00    +0.000 A 
ATOM      5  C   UNL     1      -3.482  12.400  19.046  0.00  0.00    +0.000 A 
ATOM      6  C   UNL     1      -2.216  11.858  19.107  0.00  0.00    +0.000 A 
ATOM      7  O   UNL     1      -3.722  13.616  19.612  0.00  0.00    +0.000 OA
ATOM      8  C   UNL     1      -3.844  13.712  21.074  0.00  0.00    +0.000 C 
ATOM      9  C   UNL     1      -4.785  12.627  21.722  0.00  0.00    +0.000 C 
ATOM     10  C   UNL     1      -5.421  12.938  23.098  0.00  0.00    +0.000 C 
ATOM     11  C   UNL     1      -5.926  12.068  20.837  0.00  0.00    +0.000 C 
ATOM     12  N   UNL     1      -6.420  12.912  19.699  0.00  0.00    +0.000 NA
ATOM     13  S   UNL     1      -6.140  12.178  18.198  0.00  0.00    +0.000 S 
ATOM     14  O   UNL     1      -6.920  10.961  18.202  0.00  0.00    +0.000 OA
ATOM     15  O   UNL     1      -6.225  13.083  17.058  0.00  0.00    +0.000 OA
ENDROOT
BRANCH   1  17
ATOM     16  C   UNL     1       0.481   9.520  18.917  0.00  0.00    +0.000 C 
ATOM     17  C   UNL     1      -0.713  10.017  18.753  0.00  0.00    +0.000 C 
BRANCH  16  19
ATOM     18  C   UNL     1       1.834   7.845  20.166  0.00  0.00    +0.000 C 
ATOM     19  C   UNL     1       1.874   8.942  19.108  0.00  0.00    +0.000 C 
ATOM     20  C   UNL     1       2.391   8.399  17.779  0.00  0.00    +0.000 C 
ENDBRANCH  16  19
ENDBRANCH   1  17
BRANCH  12  21
ATOM     21  C   UNL     1      -6.716  14.385  19.830  0.00  0.00    +0.000 C 
ATOM     22  C   UNL     1      -7.307  15.016  18.565  0.00  0.00    +0.000 C 
BRANCH  21  23
ATOM     23  C   UNL     1      -7.686  14.742  20.974  0.00  0.00    +0.000 C 
BRANCH  23  24
ATOM     24  O   UNL     1      -7.196  15.761  21.842  0.00  0.00    +0.000 OA
ATOM     25  H   UNL     1      -7.335  15.453  22.757  0.00  0.00    +0.000 HD
ENDBRANCH  23  24
ENDBRANCH  21  23
ENDBRANCH  12  21
BRANCH   8  26
ATOM     26  C   UNL     1      -2.445  13.894  21.745  0.00  0.00    +0.000 C 
BRANCH  26  27
ATOM     27  N   UNL     1      -1.619  15.012  21.200  0.00  0.00    +0.000 N 
ATOM     28  C   UNL     1      -2.279  16.297  20.992  0.00  0.00    +0.000 C 
ATOM     29  C   UNL     1      -0.325  14.722  20.716  0.00  0.00    +0.000 C 
ATOM     30  O   UNL     1       0.129  13.580  20.716  0.00  0.00    +0.000 OA
BRANCH  29  31
ATOM     31  C   UNL     1       0.519  15.819  20.131  0.00  0.00    +0.000 A 
ATOM     32  C   UNL     1       1.287  16.673  20.923  0.00  0.00    +0.000 A 
ATOM     33  C   UNL     1       1.862  17.782  20.339  0.00  0.00    +0.000 A 
ATOM     34  N   UNL     1       1.823  18.027  19.015  0.00  0.00    +0.000 NA
ATOM     35  C   UNL     1       1.183  17.118  18.247  0.00  0.00    +0.000 A 
ATOM     36  C   UNL     1       0.511  16.016  18.749  0.00  0.00    +0.000 A 
ENDBRANCH  29  31
ENDBRANCH  26  27
ENDBRANCH   8  26
TORSDOF 8
ENDMDL
MODEL 9
REMARK VINA RESULT:      -5.7      9.506     12.153
REMARK  Name = 
REMARK  13 active torsions:
REMARK  status: ('A' for Active; 'I' for Inactive)
REMARK    1  A    between atoms: C_1  and  C_2
REMARK    2  A    between atoms: C_2  and  C_3
REMARK    3  A    between atoms: C_2  and  C_4
REMARK    4  A    between atoms: C_5  and  C_6
REMARK    5  A    between atoms: C_13  and  C_14
REMARK    6  A    between atoms: C_14  and  N_15
REMARK    7  A    between atoms: N_15  and  C_16
REMARK    8  A    between atoms: C_17  and  C_19
REMARK    9  A    between atoms: C_25  and  C_26
REMARK   10  A    between atoms: N_28  and  C_29
REMARK   11  A    between atoms: C_29  and  C_30
REMARK   12  A    between atoms: C_29  and  C_31
REMARK   13  A    between atoms: C_31  and  O_32
REMARK                            x       y       z     vdW  Elec       q    Type
REMARK                         _______ _______ _______ _____ _____    ______ ____
ROOT
ATOM      1  C   UNL     1      -2.159  11.423  18.917  0.00  0.00    +0.000 A 
ATOM      2  C   UNL     1      -3.359  11.023  18.350  0.00  0.00    +0.000 A 
ATOM      3  C   UNL     1      -4.485  11.736  18.674  0.00  0.00    +0.000 A 
ATOM      4  C   UNL     1      -4.404  12.797  19.589  0.00  0.00    +0.000 A 
ATOM      5  C   UNL     1      -3.192  13.152  20.222  0.00  0.00    +0.000 A 
ATOM      6  C   UNL     1      -2.056  12.491  19.805  0.00  0.00    +0.000 A 
ATOM      7  O   UNL     1      -3.088  14.162  21.131  0.00  0.00    +0.000 OA
ATOM      8  C   UNL     1      -2.866  13.830  22.545  0.00  0.00    +0.000 C 
ATOM      9  C   UNL     1      -3.813  12.702  23.107  0.00  0.00    +0.000 C 
ATOM     10  C   UNL     1      -4.067  12.653  24.632  0.00  0.00    +0.000 C 
ATOM     11  C   UNL     1      -5.200  12.551  22.435  0.00  0.00    +0.000 C 
ATOM     12  N   UNL     1      -5.780  13.742  21.729  0.00  0.00    +0.000 NA
ATOM     13  S   UNL     1      -5.969  13.463  20.069  0.00  0.00    +0.000 S 
ATOM     14  O   UNL     1      -6.927  12.386  19.955  0.00  0.00    +0.000 OA
ATOM     15  O   UNL     1      -6.146  14.671  19.271  0.00  0.00    +0.000 OA
ENDROOT
BRANCH   1  17
ATOM     16  C   UNL     1       0.087  10.038  18.335  0.00  0.00    +0.000 C 
ATOM     17  C   UNL     1      -1.007  10.695  18.600  0.00  0.00    +0.000 C 
BRANCH  16  19
ATOM     18  C   UNL     1       2.508  10.256  17.802  0.00  0.00    +0.000 C 
ATOM     19  C   UNL     1       1.364   9.273  18.028  0.00  0.00    +0.000 C 
ATOM     20  C   UNL     1       1.682   8.322  19.177  0.00  0.00    +0.000 C 
ENDBRANCH  16  19
ENDBRANCH   1  17
BRANCH  12  21
ATOM     21  C   UNL     1      -5.782  15.130  22.316  0.00  0.00    +0.000 C 
ATOM     22  C   UNL     1      -6.650  16.131  21.546  0.00  0.00    +0.000 C 
BRANCH  21  23
ATOM     23  C   UNL     1      -6.254  15.203  23.783  0.00  0.00    +0.000 C 
BRANCH  23  24
ATOM     24  O   UNL     1      -5.559  16.177  24.558  0.00  0.00    +0.000 OA
ATOM     25  H   UNL     1      -6.138  16.417  25.306  0.00  0.00    +0.000 HD
ENDBRANCH  23  24
ENDBRANCH  21  23
ENDBRANCH  12  21
BRANCH   8  26
ATOM     26  C   UNL     1      -1.344  13.661  22.852  0.00  0.00    +0.000 C 
BRANCH  26  27
ATOM     27  N   UNL     1      -0.457  14.714  22.272  0.00  0.00    +0.000 N 
ATOM     28  C   UNL     1      -0.959  16.084  22.261  0.00  0.00    +0.000 C 
ATOM     29  C   UNL     1       0.705  14.312  21.579  0.00  0.00    +0.000 C 
ATOM     30  O   UNL     1       0.994  13.127  21.426  0.00  0.00    +0.000 OA
BRANCH  29  31
ATOM     31  C   UNL     1       1.600  15.345  20.956  0.00  0.00    +0.000 A 
ATOM     32  C   UNL     1       2.576  16.025  21.685  0.00  0.00    +0.000 A 
ATOM     33  C   UNL     1       3.208  17.104  21.103  0.00  0.00    +0.000 A 
ATOM     34  N   UNL     1       3.023  17.469  19.820  0.00  0.00    +0.000 NA
ATOM     35  C   UNL     1       2.168  16.717  19.091  0.00  0.00    +0.000 A 
ATOM     36  C   UNL     1       1.430  15.665  19.607  0.00  0.00    +0.000 A 
ENDBRANCH  29  31
ENDBRANCH  26  27
ENDBRANCH   8  26
TORSDOF 8
ENDMDL
