MODEL 1
REMARK VINA RESULT:      -7.8      0.000      0.000
REMARK  Name = 
REMARK  8 active torsions:
REMARK  status: ('A' for Active; 'I' for Inactive)
REMARK    1  A    between atoms: C_1  and  C_2
REMARK    2  A    between atoms: C_2  and  S_3
REMARK    3  A    between atoms: S_3  and  C_6
REMARK    4  A    between atoms: C_6  and  C_7
REMARK    5  A    between atoms: C_7  and  C_8
REMARK    6  A    between atoms: C_7  and  N_9
REMARK    7  A    between atoms: N_9  and  C_10
REMARK    8  A    between atoms: C_14  and  C_15
REMARK                            x       y       z     vdW  Elec       q    Type
REMARK                         _______ _______ _______ _____ _____    ______ ____
ROOT
ATOM      1  N   UNL     1       6.249   5.495  18.544  0.00  0.00    +0.000 N 
ATOM      2  C   UNL     1       7.220   5.558  19.633  0.00  0.00    +0.000 C 
ATOM      3  C   UNL     1       5.004   5.004  18.979  0.00  0.00    +0.000 A 
ATOM      4  C   UNL     1       4.898   3.663  19.333  0.00  0.00    +0.000 A 
ATOM      5  C   UNL     1       3.688   3.149  19.794  0.00  0.00    +0.000 A 
ATOM      6  C   UNL     1       2.596   3.995  19.900  0.00  0.00    +0.000 A 
ATOM      7  N   UNL     1       2.708   5.295  19.539  0.00  0.00    +0.000 NA
ATOM      8  N   UNL     1       3.914   5.791  19.070  0.00  0.00    +0.000 NA
ENDROOT
BRANCH   6   9
ATOM      9  C   UNL     1       1.270   3.498  20.428  0.00  0.00    +0.000 C 
ATOM     10  F   UNL     1       0.716   2.520  19.647  0.00  0.00    +0.000 F 
ATOM     11  F   UNL     1       1.362   2.948  21.673  0.00  0.00    +0.000 F 
ATOM     12  F   UNL     1       0.318   4.470  20.514  0.00  0.00    +0.000 F 
ENDBRANCH   6   9
BRANCH   1  13
ATOM     13  C   UNL     1       6.190   6.578  17.545  0.00  0.00    +0.000 C 
ATOM     14  C   UNL     1       7.540   7.294  17.397  0.00  0.00    +0.000 C 
BRANCH  13  15
ATOM     15  C   UNL     1       5.757   6.013  16.186  0.00  0.00    +0.000 C 
BRANCH  15  16
ATOM     16  S   UNL     1       6.983   4.922  15.475  0.00  0.00    +0.000 S 
ATOM     17  O   UNL     1       7.655   4.231  16.558  0.00  0.00    +0.000 OA
ATOM     18  O   UNL     1       7.727   5.630  14.450  0.00  0.00    +0.000 OA
BRANCH  16  20
ATOM     19  C   UNL     1       6.274   3.679  13.141  0.00  0.00    +0.000 C 
ATOM     20  C   UNL     1       5.975   3.714  14.629  0.00  0.00    +0.000 C 
ENDBRANCH  16  20
ENDBRANCH  15  16
ENDBRANCH  13  15
ENDBRANCH   1  13
TORSDOF 5
ENDMDL
MODEL 2
REMARK VINA RESULT:      -7.7      0.636      1.153
REMARK  Name = 
REMARK  8 active torsions:
REMARK  status: ('A' for Active; 'I' for Inactive)
REMARK    1  A    between atoms: C_1  and  C_2
REMARK    2  A    between atoms: C_2  and  S_3
REMARK    3  A    between atoms: S_3  and  C_6
REMARK    4  A    between atoms: C_6  and  C_7
REMARK    5  A    between atoms: C_7  and  C_8
REMARK    6  A    between atoms: C_7  and  N_9
REMARK    7  A    between atoms: N_9  and  C_10
REMARK    8  A    between atoms: C_14  and  C_15
REMARK                            x       y       z     vdW  Elec       q    Type
REMARK                         _______ _______ _______ _____ _____    ______ ____
ROOT
ATOM      1  N   UNL     1       6.179   5.459  18.489  0.00  0.00    +0.000 N 
ATOM      2  C   UNL     1       7.155   5.490  19.574  0.00  0.00    +0.000 C 
ATOM      3  C   UNL     1       4.930   4.974  18.920  0.00  0.00    +0.000 A 
ATOM      4  C   UNL     1       4.811   3.628  19.250  0.00  0.00    +0.000 A 
ATOM      5  C   UNL     1       3.597   3.120  19.707  0.00  0.00    +0.000 A 
ATOM      6  C   UNL     1       2.515   3.976  19.834  0.00  0.00    +0.000 A 
ATOM      7  N   UNL     1       2.641   5.281  19.497  0.00  0.00    +0.000 NA
ATOM      8  N   UNL     1       3.850   5.772  19.032  0.00  0.00    +0.000 NA
ENDROOT
BRANCH   6   9
ATOM      9  C   UNL     1       1.186   3.485  20.359  0.00  0.00    +0.000 C 
ATOM     10  F   UNL     1       1.283   2.887  21.586  0.00  0.00    +0.000 F 
ATOM     11  F   UNL     1       0.272   4.484  20.522  0.00  0.00    +0.000 F 
ATOM     12  F   UNL     1       0.591   2.558  19.556  0.00  0.00    +0.000 F 
ENDBRANCH   6   9
BRANCH   1  13
ATOM     13  C   UNL     1       6.128   6.561  17.511  0.00  0.00    +0.000 C 
ATOM     14  C   UNL     1       7.478   7.281  17.389  0.00  0.00    +0.000 C 
BRANCH  13  15
ATOM     15  C   UNL     1       5.710   6.021  16.137  0.00  0.00    +0.000 C 
BRANCH  15  16
ATOM     16  S   UNL     1       6.606   4.543  15.679  0.00  0.00    +0.000 S 
ATOM     17  O   UNL     1       5.701   3.415  15.786  0.00  0.00    +0.000 OA
ATOM     18  O   UNL     1       7.902   4.539  16.331  0.00  0.00    +0.000 OA
BRANCH  16  20
ATOM     19  C   UNL     1       6.256   3.735  13.087  0.00  0.00    +0.000 C 
ATOM     20  C   UNL     1       6.913   4.806  13.939  0.00  0.00    +0.000 C 
ENDBRANCH  16  20
ENDBRANCH  15  16
ENDBRANCH  13  15
ENDBRANCH   1  13
TORSDOF 5
ENDMDL
MODEL 3
REMARK VINA RESULT:      -7.6      0.958      1.421
REMARK  Name = 
REMARK  8 active torsions:
REMARK  status: ('A' for Active; 'I' for Inactive)
REMARK    1  A    between atoms: C_1  and  C_2
REMARK    2  A    between atoms: C_2  and  S_3
REMARK    3  A    between atoms: S_3  and  C_6
REMARK    4  A    between atoms: C_6  and  C_7
REMARK    5  A    between atoms: C_7  and  C_8
REMARK    6  A    between atoms: C_7  and  N_9
REMARK    7  A    between atoms: N_9  and  C_10
REMARK    8  A    between atoms: C_14  and  C_15
REMARK                            x       y       z     vdW  Elec       q    Type
REMARK                         _______ _______ _______ _____ _____    ______ ____
ROOT
ATOM      1  N   UNL     1       6.371   4.930  18.587  0.00  0.00    +0.000 N 
ATOM      2  C   UNL     1       7.098   5.404  19.761  0.00  0.00    +0.000 C 
ATOM      3  C   UNL     1       5.067   4.510  18.911  0.00  0.00    +0.000 A 
ATOM      4  C   UNL     1       4.903   3.345  19.651  0.00  0.00    +0.000 A 
ATOM      5  C   UNL     1       3.629   2.914  20.013  0.00  0.00    +0.000 A 
ATOM      6  C   UNL     1       2.530   3.668  19.631  0.00  0.00    +0.000 A 
ATOM      7  N   UNL     1       2.703   4.793  18.898  0.00  0.00    +0.000 NA
ATOM      8  N   UNL     1       3.975   5.204  18.533  0.00  0.00    +0.000 NA
ENDROOT
BRANCH   6   9
ATOM      9  C   UNL     1       1.129   3.265  20.027  0.00  0.00    +0.000 C 
ATOM     10  F   UNL     1       0.331   4.334  20.332  0.00  0.00    +0.000 F 
ATOM     11  F   UNL     1       0.464   2.597  19.040  0.00  0.00    +0.000 F 
ATOM     12  F   UNL     1       1.082   2.459  21.125  0.00  0.00    +0.000 F 
ENDBRANCH   6   9
BRANCH   1  13
ATOM     13  C   UNL     1       6.508   5.638  17.300  0.00  0.00    +0.000 C 
ATOM     14  C   UNL     1       7.383   6.892  17.428  0.00  0.00    +0.000 C 
BRANCH  13  15
ATOM     15  C   UNL     1       7.111   4.697  16.249  0.00  0.00    +0.000 C 
BRANCH  15  16
ATOM     16  S   UNL     1       6.676   5.168  14.578  0.00  0.00    +0.000 S 
ATOM     17  O   UNL     1       7.893   5.535  13.882  0.00  0.00    +0.000 OA
ATOM     18  O   UNL     1       5.523   6.048  14.606  0.00  0.00    +0.000 OA
BRANCH  16  20
ATOM     19  C   UNL     1       6.358   3.566  12.381  0.00  0.00    +0.000 C 
ATOM     20  C   UNL     1       6.118   3.621  13.879  0.00  0.00    +0.000 C 
ENDBRANCH  16  20
ENDBRANCH  15  16
ENDBRANCH  13  15
ENDBRANCH   1  13
TORSDOF 5
ENDMDL
MODEL 4
REMARK VINA RESULT:      -7.3      0.534      1.045
REMARK  Name = 
REMARK  8 active torsions:
REMARK  status: ('A' for Active; 'I' for Inactive)
REMARK    1  A    between atoms: C_1  and  C_2
REMARK    2  A    between atoms: C_2  and  S_3
REMARK    3  A    between atoms: S_3  and  C_6
REMARK    4  A    between atoms: C_6  and  C_7
REMARK    5  A    between atoms: C_7  and  C_8
REMARK    6  A    between atoms: C_7  and  N_9
REMARK    7  A    between atoms: N_9  and  C_10
REMARK    8  A    between atoms: C_14  and  C_15
REMARK                            x       y       z     vdW  Elec       q    Type
REMARK                         _______ _______ _______ _____ _____    ______ ____
ROOT
ATOM      1  N   UNL     1       6.434   5.583  18.617  0.00  0.00    +0.000 N 
ATOM      2  C   UNL     1       7.456   5.604  19.659  0.00  0.00    +0.000 C 
ATOM      3  C   UNL     1       5.214   5.062  19.089  0.00  0.00    +0.000 A 
ATOM      4  C   UNL     1       5.135   3.706  19.384  0.00  0.00    +0.000 A 
ATOM      5  C   UNL     1       3.952   3.161  19.880  0.00  0.00    +0.000 A 
ATOM      6  C   UNL     1       2.860   3.991  20.078  0.00  0.00    +0.000 A 
ATOM      7  N   UNL     1       2.947   5.307  19.773  0.00  0.00    +0.000 NA
ATOM      8  N   UNL     1       4.125   5.835  19.269  0.00  0.00    +0.000 NA
ENDROOT
BRANCH   6   9
ATOM      9  C   UNL     1       1.566   3.459  20.646  0.00  0.00    +0.000 C 
ATOM     10  F   UNL     1       0.491   4.261  20.372  0.00  0.00    +0.000 F 
ATOM     11  F   UNL     1       1.228   2.233  20.151  0.00  0.00    +0.000 F 
ATOM     12  F   UNL     1       1.577   3.328  22.003  0.00  0.00    +0.000 F 
ENDBRANCH   6   9
BRANCH   1  13
ATOM     13  C   UNL     1       6.319   6.711  17.674  0.00  0.00    +0.000 C 
ATOM     14  C   UNL     1       7.629   7.503  17.566  0.00  0.00    +0.000 C 
BRANCH  13  15
ATOM     15  C   UNL     1       5.917   6.193  16.287  0.00  0.00    +0.000 C 
BRANCH  15  16
ATOM     16  S   UNL     1       7.099   5.026  15.622  0.00  0.00    +0.000 S 
ATOM     17  O   UNL     1       7.847   4.462  16.728  0.00  0.00    +0.000 OA
ATOM     18  O   UNL     1       7.767   5.612  14.475  0.00  0.00    +0.000 OA
BRANCH  16  20
ATOM     19  C   UNL     1       4.708   3.695  15.711  0.00  0.00    +0.000 C 
ATOM     20  C   UNL     1       6.043   3.733  14.988  0.00  0.00    +0.000 C 
ENDBRANCH  16  20
ENDBRANCH  15  16
ENDBRANCH  13  15
ENDBRANCH   1  13
TORSDOF 5
ENDMDL
MODEL 5
REMARK VINA RESULT:      -7.1      1.544      2.222
REMARK  Name = 
REMARK  8 active torsions:
REMARK  status: ('A' for Active; 'I' for Inactive)
REMARK    1  A    between atoms: C_1  and  C_2
REMARK    2  A    between atoms: C_2  and  S_3
REMARK    3  A    between atoms: S_3  and  C_6
REMARK    4  A    between atoms: C_6  and  C_7
REMARK    5  A    between atoms: C_7  and  C_8
REMARK    6  A    between atoms: C_7  and  N_9
REMARK    7  A    between atoms: N_9  and  C_10
REMARK    8  A    between atoms: C_14  and  C_15
REMARK                            x       y       z     vdW  Elec       q    Type
REMARK                         _______ _______ _______ _____ _____    ______ ____
ROOT
ATOM      1  N   UNL     1       3.977   6.677  17.668  0.00  0.00    +0.000 N 
ATOM      2  C   UNL     1       2.999   7.741  17.463  0.00  0.00    +0.000 C 
ATOM      3  C   UNL     1       3.460   5.636  18.463  0.00  0.00    +0.000 A 
ATOM      4  C   UNL     1       3.232   5.874  19.814  0.00  0.00    +0.000 A 
ATOM      5  C   UNL     1       2.696   4.876  20.624  0.00  0.00    +0.000 A 
ATOM      6  C   UNL     1       2.387   3.647  20.063  0.00  0.00    +0.000 A 
ATOM      7  N   UNL     1       2.627   3.424  18.750  0.00  0.00    +0.000 NA
ATOM      8  N   UNL     1       3.172   4.421  17.956  0.00  0.00    +0.000 NA
ENDROOT
BRANCH   6   9
ATOM      9  C   UNL     1       1.771   2.543  20.888  0.00  0.00    +0.000 C 
ATOM     10  F   UNL     1       0.604   2.917  21.497  0.00  0.00    +0.000 F 
ATOM     11  F   UNL     1       1.449   1.440  20.152  0.00  0.00    +0.000 F 
ATOM     12  F   UNL     1       2.575   2.101  21.897  0.00  0.00    +0.000 F 
ENDBRANCH   6   9
BRANCH   1  13
ATOM     13  C   UNL     1       4.850   6.253  16.558  0.00  0.00    +0.000 C 
ATOM     14  C   UNL     1       4.795   7.236  15.380  0.00  0.00    +0.000 C 
BRANCH  13  15
ATOM     15  C   UNL     1       6.297   6.125  17.051  0.00  0.00    +0.000 C 
BRANCH  15  16
ATOM     16  S   UNL     1       7.242   4.939  16.103  0.00  0.00    +0.000 S 
ATOM     17  O   UNL     1       8.076   4.189  17.021  0.00  0.00    +0.000 OA
ATOM     18  O   UNL     1       7.798   5.587  14.930  0.00  0.00    +0.000 OA
BRANCH  16  20
ATOM     19  C   UNL     1       5.887   3.828  13.999  0.00  0.00    +0.000 C 
ATOM     20  C   UNL     1       5.975   3.825  15.515  0.00  0.00    +0.000 C 
ENDBRANCH  16  20
ENDBRANCH  15  16
ENDBRANCH  13  15
ENDBRANCH   1  13
TORSDOF 5
ENDMDL
MODEL 6
REMARK VINA RESULT:      -6.9      4.378      6.260
REMARK  Name = 
REMARK  8 active torsions:
REMARK  status: ('A' for Active; 'I' for Inactive)
REMARK    1  A    between atoms: C_1  and  C_2
REMARK    2  A    between atoms: C_2  and  S_3
REMARK    3  A    between atoms: S_3  and  C_6
REMARK    4  A    between atoms: C_6  and  C_7
REMARK    5  A    between atoms: C_7  and  C_8
REMARK    6  A    between atoms: C_7  and  N_9
REMARK    7  A    between atoms: N_9  and  C_10
REMARK    8  A    between atoms: C_14  and  C_15
REMARK                            x       y       z     vdW  Elec       q    Type
REMARK                         _______ _______ _______ _____ _____    ______ ____
ROOT
ATOM      1  N   UNL     1       6.305   6.035  17.613  0.00  0.00    +0.000 N 
ATOM      2  C   UNL     1       7.167   7.210  17.526  0.00  0.00    +0.000 C 
ATOM      3  C   UNL     1       6.167   5.393  16.368  0.00  0.00    +0.000 A 
ATOM      4  C   UNL     1       5.438   6.022  15.366  0.00  0.00    +0.000 A 
ATOM      5  C   UNL     1       5.304   5.429  14.113  0.00  0.00    +0.000 A 
ATOM      6  C   UNL     1       5.913   4.205  13.880  0.00  0.00    +0.000 A 
ATOM      7  N   UNL     1       6.608   3.596  14.869  0.00  0.00    +0.000 NA
ATOM      8  N   UNL     1       6.724   4.191  16.115  0.00  0.00    +0.000 NA
ENDROOT
BRANCH   6   9
ATOM      9  C   UNL     1       5.829   3.535  12.530  0.00  0.00    +0.000 C 
ATOM     10  F   UNL     1       6.047   2.185  12.588  0.00  0.00    +0.000 F 
ATOM     11  F   UNL     1       4.607   3.671  11.938  0.00  0.00    +0.000 F 
ATOM     12  F   UNL     1       6.738   4.005  11.629  0.00  0.00    +0.000 F 
ENDBRANCH   6   9
BRANCH   1  13
ATOM     13  C   UNL     1       6.393   5.141  18.783  0.00  0.00    +0.000 C 
ATOM     14  C   UNL     1       7.493   5.581  19.758  0.00  0.00    +0.000 C 
BRANCH  13  15
ATOM     15  C   UNL     1       5.045   5.103  19.514  0.00  0.00    +0.000 C 
BRANCH  15  16
ATOM     16  S   UNL     1       4.205   3.535  19.325  0.00  0.00    +0.000 S 
ATOM     17  O   UNL     1       4.987   2.520  20.002  0.00  0.00    +0.000 OA
ATOM     18  O   UNL     1       3.784   3.373  17.946  0.00  0.00    +0.000 OA
BRANCH  16  20
ATOM     19  C   UNL     1       1.512   3.144  19.619  0.00  0.00    +0.000 C 
ATOM     20  C   UNL     1       2.719   3.780  20.285  0.00  0.00    +0.000 C 
ENDBRANCH  16  20
ENDBRANCH  15  16
ENDBRANCH  13  15
ENDBRANCH   1  13
TORSDOF 5
ENDMDL
MODEL 7
REMARK VINA RESULT:      -6.9      1.165      1.645
REMARK  Name = 
REMARK  8 active torsions:
REMARK  status: ('A' for Active; 'I' for Inactive)
REMARK    1  A    between atoms: C_1  and  C_2
REMARK    2  A    between atoms: C_2  and  S_3
REMARK    3  A    between atoms: S_3  and  C_6
REMARK    4  A    between atoms: C_6  and  C_7
REMARK    5  A    between atoms: C_7  and  C_8
REMARK    6  A    between atoms: C_7  and  N_9
REMARK    7  A    between atoms: N_9  and  C_10
REMARK    8  A    between atoms: C_14  and  C_15
REMARK                            x       y       z     vdW  Elec       q    Type
REMARK                         _______ _______ _______ _____ _____    ______ ____
ROOT
ATOM      1  N   UNL     1       6.588   5.326  18.417  0.00  0.00    +0.000 N 
ATOM      2  C   UNL     1       7.423   5.581  19.587  0.00  0.00    +0.000 C 
ATOM      3  C   UNL     1       5.284   4.937  18.779  0.00  0.00    +0.000 A 
ATOM      4  C   UNL     1       5.094   3.687  19.357  0.00  0.00    +0.000 A 
ATOM      5  C   UNL     1       3.822   3.281  19.753  0.00  0.00    +0.000 A 
ATOM      6  C   UNL     1       2.752   4.142  19.567  0.00  0.00    +0.000 A 
ATOM      7  N   UNL     1       2.949   5.351  18.990  0.00  0.00    +0.000 NA
ATOM      8  N   UNL     1       4.217   5.739  18.589  0.00  0.00    +0.000 NA
ENDROOT
BRANCH   6   9
ATOM      9  C   UNL     1       1.358   3.766  20.010  0.00  0.00    +0.000 C 
ATOM     10  F   UNL     1       0.663   4.817  20.544  0.00  0.00    +0.000 F 
ATOM     11  F   UNL     1       0.577   3.307  18.990  0.00  0.00    +0.000 F 
ATOM     12  F   UNL     1       1.332   2.797  20.969  0.00  0.00    +0.000 F 
ENDBRANCH   6   9
BRANCH   1  13
ATOM     13  C   UNL     1       6.683   6.205  17.237  0.00  0.00    +0.000 C 
ATOM     14  C   UNL     1       7.565   7.432  17.507  0.00  0.00    +0.000 C 
BRANCH  13  15
ATOM     15  C   UNL     1       7.248   5.420  16.046  0.00  0.00    +0.000 C 
BRANCH  15  16
ATOM     16  S   UNL     1       5.981   4.531  15.148  0.00  0.00    +0.000 S 
ATOM     17  O   UNL     1       4.863   5.428  14.938  0.00  0.00    +0.000 OA
ATOM     18  O   UNL     1       5.800   3.218  15.738  0.00  0.00    +0.000 OA
BRANCH  16  20
ATOM     19  C   UNL     1       7.823   5.310  13.278  0.00  0.00    +0.000 C 
ATOM     20  C   UNL     1       6.752   4.271  13.558  0.00  0.00    +0.000 C 
ENDBRANCH  16  20
ENDBRANCH  15  16
ENDBRANCH  13  15
ENDBRANCH   1  13
TORSDOF 5
ENDMDL
MODEL 8
REMARK VINA RESULT:      -6.8      4.590      6.200
REMARK  Name = 
REMARK  8 active torsions:
REMARK  status: ('A' for Active; 'I' for Inactive)
REMARK    1  A    between atoms: C_1  and  C_2
REMARK    2  A    between atoms: C_2  and  S_3
REMARK    3  A    between atoms: S_3  and  C_6
REMARK    4  A    between atoms: C_6  and  C_7
REMARK    5  A    between atoms: C_7  and  C_8
REMARK    6  A    between atoms: C_7  and  N_9
REMARK    7  A    between atoms: N_9  and  C_10
REMARK    8  A    between atoms: C_14  and  C_15
REMARK                            x       y       z     vdW  Elec       q    Type
REMARK                         _______ _______ _______ _____ _____    ______ ____
ROOT
ATOM      1  N   UNL     1       6.209   6.040  17.560  0.00  0.00    +0.000 N 
ATOM      2  C   UNL     1       7.109   7.187  17.492  0.00  0.00    +0.000 C 
ATOM      3  C   UNL     1       6.093   5.390  16.317  0.00  0.00    +0.000 A 
ATOM      4  C   UNL     1       5.419   6.031  15.285  0.00  0.00    +0.000 A 
ATOM      5  C   UNL     1       5.309   5.429  14.033  0.00  0.00    +0.000 A 
ATOM      6  C   UNL     1       5.888   4.186  13.832  0.00  0.00    +0.000 A 
ATOM      7  N   UNL     1       6.530   3.566  14.850  0.00  0.00    +0.000 NA
ATOM      8  N   UNL     1       6.622   4.170  16.094  0.00  0.00    +0.000 NA
ENDROOT
BRANCH   6   9
ATOM      9  C   UNL     1       5.830   3.504  12.486  0.00  0.00    +0.000 C 
ATOM     10  F   UNL     1       4.631   3.678  11.849  0.00  0.00    +0.000 F 
ATOM     11  F   UNL     1       6.767   3.969  11.609  0.00  0.00    +0.000 F 
ATOM     12  F   UNL     1       6.009   2.154  12.548  0.00  0.00    +0.000 F 
ENDBRANCH   6   9
BRANCH   1  13
ATOM     13  C   UNL     1       6.229   5.155  18.740  0.00  0.00    +0.000 C 
ATOM     14  C   UNL     1       7.359   5.523  19.711  0.00  0.00    +0.000 C 
BRANCH  13  15
ATOM     15  C   UNL     1       4.882   5.227  19.470  0.00  0.00    +0.000 C 
BRANCH  15  16
ATOM     16  S   UNL     1       4.069   3.637  19.566  0.00  0.00    +0.000 S 
ATOM     17  O   UNL     1       2.864   3.793  20.358  0.00  0.00    +0.000 OA
ATOM     18  O   UNL     1       5.047   2.609  19.869  0.00  0.00    +0.000 OA
BRANCH  16  20
ATOM     19  C   UNL     1       2.530   2.252  17.774  0.00  0.00    +0.000 C 
ATOM     20  C   UNL     1       3.555   3.367  17.877  0.00  0.00    +0.000 C 
ENDBRANCH  16  20
ENDBRANCH  15  16
ENDBRANCH  13  15
ENDBRANCH   1  13
TORSDOF 5
ENDMDL
MODEL 9
REMARK VINA RESULT:      -6.8      4.860      6.851
REMARK  Name = 
REMARK  8 active torsions:
REMARK  status: ('A' for Active; 'I' for Inactive)
REMARK    1  A    between atoms: C_1  and  C_2
REMARK    2  A    between atoms: C_2  and  S_3
REMARK    3  A    between atoms: S_3  and  C_6
REMARK    4  A    between atoms: C_6  and  C_7
REMARK    5  A    between atoms: C_7  and  C_8
REMARK    6  A    between atoms: C_7  and  N_9
REMARK    7  A    between atoms: N_9  and  C_10
REMARK    8  A    between atoms: C_14  and  C_15
REMARK                            x       y       z     vdW  Elec       q    Type
REMARK                         _______ _______ _______ _____ _____    ______ ____
ROOT
ATOM      1  N   UNL     1       6.065   4.951  17.742  0.00  0.00    +0.000 N 
ATOM      2  C   UNL     1       7.326   4.676  18.424  0.00  0.00    +0.000 C 
ATOM      3  C   UNL     1       6.132   4.640  16.371  0.00  0.00    +0.000 A 
ATOM      4  C   UNL     1       6.912   5.437  15.541  0.00  0.00    +0.000 A 
ATOM      5  C   UNL     1       7.024   5.143  14.184  0.00  0.00    +0.000 A 
ATOM      6  C   UNL     1       6.352   4.042  13.677  0.00  0.00    +0.000 A 
ATOM      7  N   UNL     1       5.584   3.283  14.493  0.00  0.00    +0.000 NA
ATOM      8  N   UNL     1       5.471   3.593  15.839  0.00  0.00    +0.000 NA
ENDROOT
BRANCH   6   9
ATOM      9  C   UNL     1       6.466   3.657  12.221  0.00  0.00    +0.000 C 
ATOM     10  F   UNL     1       5.262   3.655  11.571  0.00  0.00    +0.000 F 
ATOM     11  F   UNL     1       7.255   4.508  11.502  0.00  0.00    +0.000 F 
ATOM     12  F   UNL     1       6.981   2.410  12.024  0.00  0.00    +0.000 F 
ENDBRANCH   6   9
BRANCH   1  13
ATOM     13  C   UNL     1       4.785   4.634  18.403  0.00  0.00    +0.000 C 
ATOM     14  C   UNL     1       4.887   3.375  19.274  0.00  0.00    +0.000 C 
BRANCH  13  15
ATOM     15  C   UNL     1       4.336   5.820  19.266  0.00  0.00    +0.000 C 
BRANCH  15  16
ATOM     16  S   UNL     1       2.560   6.033  19.268  0.00  0.00    +0.000 S 
ATOM     17  O   UNL     1       2.025   5.372  18.095  0.00  0.00    +0.000 OA
ATOM     18  O   UNL     1       2.237   7.414  19.574  0.00  0.00    +0.000 OA
BRANCH  16  20
ATOM     19  C   UNL     1       0.979   4.067  20.330  0.00  0.00    +0.000 C 
ATOM     20  C   UNL     1       2.062   5.069  20.687  0.00  0.00    +0.000 C 
ENDBRANCH  16  20
ENDBRANCH  15  16
ENDBRANCH  13  15
ENDBRANCH   1  13
TORSDOF 5
ENDMDL
