MODEL 1
REMARK VINA RESULT:      -8.3      0.000      0.000
REMARK  Name = 
REMARK  12 active torsions:
REMARK  status: ('A' for Active; 'I' for Inactive)
REMARK    1  A    between atoms: C_1  and  O_2
REMARK    2  A    between atoms: O_2  and  C_3
REMARK    3  A    between atoms: C_5  and  O_6
REMARK    4  A    between atoms: O_6  and  C_7
REMARK    5  A    between atoms: C_9  and  O_10
REMARK    6  A    between atoms: O_10  and  S_11
REMARK    7  A    between atoms: S_11  and  C_14
REMARK    8  A    between atoms: C_17  and  N_18
REMARK    9  A    between atoms: N_21  and  C_22
REMARK   10  A    between atoms: C_22  and  C_23
REMARK   11  A    between atoms: C_23  and  C_24
REMARK   12  A    between atoms: C_23  and  C_25
REMARK                            x       y       z     vdW  Elec       q    Type
REMARK                         _______ _______ _______ _____ _____    ______ ____
ROOT
ATOM      1  C   UNL     1       3.037   4.835  19.139  0.00  0.00    +0.000 A 
ATOM      2  C   UNL     1       2.562   5.168  20.406  0.00  0.00    +0.000 A 
ATOM      3  C   UNL     1       2.040   6.444  20.619  0.00  0.00    +0.000 A 
ATOM      4  C   UNL     1       1.970   7.377  19.575  0.00  0.00    +0.000 A 
ATOM      5  C   UNL     1       2.426   7.007  18.302  0.00  0.00    +0.000 A 
ATOM      6  C   UNL     1       2.971   5.745  18.084  0.00  0.00    +0.000 A 
ENDROOT
BRANCH   4   7
ATOM      7  N   UNL     1       1.444   8.666  19.787  0.00  0.00    +0.000 N 
ATOM      8  C   UNL     1       0.739   9.055  20.991  0.00  0.00    +0.000 C 
ATOM      9  C   UNL     1       0.645  10.564  20.861  0.00  0.00    +0.000 C 
ATOM     10  N   UNL     1       0.661  10.751  19.433  0.00  0.00    +0.000 N 
ATOM     11  C   UNL     1       1.322   9.683  18.812  0.00  0.00    +0.000 C 
ATOM     12  O   UNL     1       1.670   9.664  17.642  0.00  0.00    +0.000 OA
BRANCH  10  13
ATOM     13  C   UNL     1       0.251  11.967  18.761  0.00  0.00    +0.000 C 
BRANCH  13  14
ATOM     14  C   UNL     1      -1.238  12.011  18.409  0.00  0.00    +0.000 C 
ATOM     15  C   UNL     1      -1.776  10.636  18.013  0.00  0.00    +0.000 C 
ATOM     16  C   UNL     1      -2.032  12.556  19.597  0.00  0.00    +0.000 C 
ENDBRANCH  13  14
ENDBRANCH  10  13
ENDBRANCH   4   7
BRANCH   1  17
ATOM     17  S   UNL     1       3.781   3.251  18.875  0.00  0.00    +0.000 S 
ATOM     18  O   UNL     1       3.560   2.924  17.480  0.00  0.00    +0.000 OA
ATOM     19  O   UNL     1       3.287   2.385  19.931  0.00  0.00    +0.000 OA
BRANCH  17  20
ATOM     20  O   UNL     1       5.376   3.521  19.116  0.00  0.00    +0.000 OA
BRANCH  20  25
ATOM     21  C   UNL     1       7.457   6.430  18.175  0.00  0.00    +0.000 A 
ATOM     22  C   UNL     1       7.260   6.404  16.798  0.00  0.00    +0.000 A 
ATOM     23  C   UNL     1       6.440   5.435  16.203  0.00  0.00    +0.000 A 
ATOM     24  C   UNL     1       5.828   4.472  17.007  0.00  0.00    +0.000 A 
ATOM     25  C   UNL     1       6.036   4.482  18.389  0.00  0.00    +0.000 A 
ATOM     26  C   UNL     1       6.843   5.466  18.968  0.00  0.00    +0.000 A 
BRANCH  21  28
ATOM     27  C   UNL     1       8.197   8.683  17.941  0.00  0.00    +0.000 C 
ATOM     28  O   UNL     1       8.250   7.445  18.646  0.00  0.00    +0.000 OA
ENDBRANCH  21  28
BRANCH  23  29
ATOM     29  O   UNL     1       6.314   5.548  14.846  0.00  0.00    +0.000 OA
ATOM     30  C   UNL     1       6.628   4.399  14.068  0.00  0.00    +0.000 C 
ENDBRANCH  23  29
ENDBRANCH  20  25
ENDBRANCH  17  20
ENDBRANCH   1  17
TORSDOF 8
ENDMDL
MODEL 2
REMARK VINA RESULT:      -8.3      1.206      2.687
REMARK  Name = 
REMARK  12 active torsions:
REMARK  status: ('A' for Active; 'I' for Inactive)
REMARK    1  A    between atoms: C_1  and  O_2
REMARK    2  A    between atoms: O_2  and  C_3
REMARK    3  A    between atoms: C_5  and  O_6
REMARK    4  A    between atoms: O_6  and  C_7
REMARK    5  A    between atoms: C_9  and  O_10
REMARK    6  A    between atoms: O_10  and  S_11
REMARK    7  A    between atoms: S_11  and  C_14
REMARK    8  A    between atoms: C_17  and  N_18
REMARK    9  A    between atoms: N_21  and  C_22
REMARK   10  A    between atoms: C_22  and  C_23
REMARK   11  A    between atoms: C_23  and  C_24
REMARK   12  A    between atoms: C_23  and  C_25
REMARK                            x       y       z     vdW  Elec       q    Type
REMARK                         _______ _______ _______ _____ _____    ______ ____
ROOT
ATOM      1  C   UNL     1       3.005   5.033  19.260  0.00  0.00    +0.000 A 
ATOM      2  C   UNL     1       2.450   5.488  20.453  0.00  0.00    +0.000 A 
ATOM      3  C   UNL     1       1.952   6.789  20.516  0.00  0.00    +0.000 A 
ATOM      4  C   UNL     1       1.987   7.629  19.393  0.00  0.00    +0.000 A 
ATOM      5  C   UNL     1       2.524   7.137  18.195  0.00  0.00    +0.000 A 
ATOM      6  C   UNL     1       3.045   5.848  18.128  0.00  0.00    +0.000 A 
ENDROOT
BRANCH   4   7
ATOM      7  N   UNL     1       1.486   8.943  19.453  0.00  0.00    +0.000 N 
ATOM      8  C   UNL     1       1.653   9.913  18.392  0.00  0.00    +0.000 C 
ATOM      9  C   UNL     1       0.711  11.031  18.796  0.00  0.00    +0.000 C 
ATOM     10  N   UNL     1       0.675  10.899  20.230  0.00  0.00    +0.000 N 
ATOM     11  C   UNL     1       0.957   9.577  20.602  0.00  0.00    +0.000 C 
ATOM     12  O   UNL     1       0.798   9.119  21.722  0.00  0.00    +0.000 OA
BRANCH  10  13
ATOM     13  C   UNL     1       0.201  11.924  21.136  0.00  0.00    +0.000 C 
BRANCH  13  14
ATOM     14  C   UNL     1      -1.299  11.846  21.433  0.00  0.00    +0.000 C 
ATOM     15  C   UNL     1      -1.590  11.870  22.934  0.00  0.00    +0.000 C 
ATOM     16  C   UNL     1      -2.020  13.007  20.747  0.00  0.00    +0.000 C 
ENDBRANCH  13  14
ENDBRANCH  10  13
ENDBRANCH   4   7
BRANCH   1  17
ATOM     17  S   UNL     1       3.719   3.415  19.190  0.00  0.00    +0.000 S 
ATOM     18  O   UNL     1       3.471   2.917  17.851  0.00  0.00    +0.000 OA
ATOM     19  O   UNL     1       3.228   2.700  20.355  0.00  0.00    +0.000 OA
BRANCH  17  20
ATOM     20  O   UNL     1       5.322   3.684  19.373  0.00  0.00    +0.000 OA
BRANCH  20  25
ATOM     21  C   UNL     1       6.849   4.913  16.237  0.00  0.00    +0.000 A 
ATOM     22  C   UNL     1       7.485   6.047  16.732  0.00  0.00    +0.000 A 
ATOM     23  C   UNL     1       7.407   6.384  18.090  0.00  0.00    +0.000 A 
ATOM     24  C   UNL     1       6.664   5.575  18.953  0.00  0.00    +0.000 A 
ATOM     25  C   UNL     1       6.008   4.445  18.458  0.00  0.00    +0.000 A 
ATOM     26  C   UNL     1       6.110   4.114  17.103  0.00  0.00    +0.000 A 
BRANCH  21  28
ATOM     27  C   UNL     1       5.864   4.305  14.154  0.00  0.00    +0.000 C 
ATOM     28  O   UNL     1       7.025   4.665  14.899  0.00  0.00    +0.000 OA
ENDBRANCH  21  28
BRANCH  23  29
ATOM     29  O   UNL     1       8.104   7.507  18.442  0.00  0.00    +0.000 OA
ATOM     30  C   UNL     1       7.866   8.684  17.679  0.00  0.00    +0.000 C 
ENDBRANCH  23  29
ENDBRANCH  20  25
ENDBRANCH  17  20
ENDBRANCH   1  17
TORSDOF 8
ENDMDL
MODEL 3
REMARK VINA RESULT:      -8.2      3.244      9.324
REMARK  Name = 
REMARK  12 active torsions:
REMARK  status: ('A' for Active; 'I' for Inactive)
REMARK    1  A    between atoms: C_1  and  O_2
REMARK    2  A    between atoms: O_2  and  C_3
REMARK    3  A    between atoms: C_5  and  O_6
REMARK    4  A    between atoms: O_6  and  C_7
REMARK    5  A    between atoms: C_9  and  O_10
REMARK    6  A    between atoms: O_10  and  S_11
REMARK    7  A    between atoms: S_11  and  C_14
REMARK    8  A    between atoms: C_17  and  N_18
REMARK    9  A    between atoms: N_21  and  C_22
REMARK   10  A    between atoms: C_22  and  C_23
REMARK   11  A    between atoms: C_23  and  C_24
REMARK   12  A    between atoms: C_23  and  C_25
REMARK                            x       y       z     vdW  Elec       q    Type
REMARK                         _______ _______ _______ _____ _____    ______ ____
ROOT
ATOM      1  C   UNL     1       1.153   9.480  19.804  0.00  0.00    +0.000 A 
ATOM      2  C   UNL     1       1.439   8.367  20.591  0.00  0.00    +0.000 A 
ATOM      3  C   UNL     1       2.022   7.249  19.996  0.00  0.00    +0.000 A 
ATOM      4  C   UNL     1       2.339   7.243  18.630  0.00  0.00    +0.000 A 
ATOM      5  C   UNL     1       2.069   8.387  17.866  0.00  0.00    +0.000 A 
ATOM      6  C   UNL     1       1.465   9.499  18.445  0.00  0.00    +0.000 A 
ENDROOT
BRANCH   4   7
ATOM      7  N   UNL     1       2.927   6.115  18.026  0.00  0.00    +0.000 N 
ATOM      8  C   UNL     1       2.403   4.772  18.156  0.00  0.00    +0.000 C 
ATOM      9  C   UNL     1       3.186   3.995  17.115  0.00  0.00    +0.000 C 
ATOM     10  N   UNL     1       4.416   4.740  17.037  0.00  0.00    +0.000 N 
ATOM     11  C   UNL     1       4.199   6.074  17.408  0.00  0.00    +0.000 C 
ATOM     12  O   UNL     1       4.997   6.982  17.244  0.00  0.00    +0.000 OA
BRANCH  10  13
ATOM     13  C   UNL     1       5.642   4.240  16.451  0.00  0.00    +0.000 C 
BRANCH  13  14
ATOM     14  C   UNL     1       5.943   4.804  15.060  0.00  0.00    +0.000 C 
ATOM     15  C   UNL     1       7.435   5.063  14.854  0.00  0.00    +0.000 C 
ATOM     16  C   UNL     1       5.433   3.836  13.991  0.00  0.00    +0.000 C 
ENDBRANCH  13  14
ENDBRANCH  10  13
ENDBRANCH   4   7
BRANCH   1  17
ATOM     17  S   UNL     1       0.334  10.873  20.527  0.00  0.00    +0.000 S 
ATOM     18  O   UNL     1       1.364  11.661  21.175  0.00  0.00    +0.000 OA
ATOM     19  O   UNL     1      -0.786  10.342  21.284  0.00  0.00    +0.000 OA
BRANCH  17  20
ATOM     20  O   UNL     1      -0.243  11.701  19.240  0.00  0.00    +0.000 OA
BRANCH  20  25
ATOM     21  C   UNL     1      -3.006  10.399  17.156  0.00  0.00    +0.000 A 
ATOM     22  C   UNL     1      -4.076  11.014  17.800  0.00  0.00    +0.000 A 
ATOM     23  C   UNL     1      -3.869  11.852  18.904  0.00  0.00    +0.000 A 
ATOM     24  C   UNL     1      -2.569  12.056  19.372  0.00  0.00    +0.000 A 
ATOM     25  C   UNL     1      -1.493  11.427  18.741  0.00  0.00    +0.000 A 
ATOM     26  C   UNL     1      -1.715  10.608  17.629  0.00  0.00    +0.000 A 
BRANCH  21  28
ATOM     27  C   UNL     1      -3.045  10.184  14.783  0.00  0.00    +0.000 C 
ATOM     28  O   UNL     1      -3.327   9.630  16.066  0.00  0.00    +0.000 OA
ENDBRANCH  21  28
BRANCH  23  29
ATOM     29  O   UNL     1      -5.006  12.411  19.418  0.00  0.00    +0.000 OA
ATOM     30  C   UNL     1      -5.981  12.871  18.490  0.00  0.00    +0.000 C 
ENDBRANCH  23  29
ENDBRANCH  20  25
ENDBRANCH  17  20
ENDBRANCH   1  17
TORSDOF 8
ENDMDL
MODEL 4
REMARK VINA RESULT:      -8.1      1.071      2.736
REMARK  Name = 
REMARK  12 active torsions:
REMARK  status: ('A' for Active; 'I' for Inactive)
REMARK    1  A    between atoms: C_1  and  O_2
REMARK    2  A    between atoms: O_2  and  C_3
REMARK    3  A    between atoms: C_5  and  O_6
REMARK    4  A    between atoms: O_6  and  C_7
REMARK    5  A    between atoms: C_9  and  O_10
REMARK    6  A    between atoms: O_10  and  S_11
REMARK    7  A    between atoms: S_11  and  C_14
REMARK    8  A    between atoms: C_17  and  N_18
REMARK    9  A    between atoms: N_21  and  C_22
REMARK   10  A    between atoms: C_22  and  C_23
REMARK   11  A    between atoms: C_23  and  C_24
REMARK   12  A    between atoms: C_23  and  C_25
REMARK                            x       y       z     vdW  Elec       q    Type
REMARK                         _______ _______ _______ _____ _____    ______ ____
ROOT
ATOM      1  C   UNL     1       3.121   5.144  19.111  0.00  0.00    +0.000 A 
ATOM      2  C   UNL     1       3.060   5.917  17.955  0.00  0.00    +0.000 A 
ATOM      3  C   UNL     1       2.478   7.184  18.017  0.00  0.00    +0.000 A 
ATOM      4  C   UNL     1       1.978   7.688  19.227  0.00  0.00    +0.000 A 
ATOM      5  C   UNL     1       2.079   6.901  20.383  0.00  0.00    +0.000 A 
ATOM      6  C   UNL     1       2.637   5.626  20.327  0.00  0.00    +0.000 A 
ENDROOT
BRANCH   4   7
ATOM      7  N   UNL     1       1.390   8.965  19.293  0.00  0.00    +0.000 N 
ATOM      8  C   UNL     1       1.708  10.041  18.380  0.00  0.00    +0.000 C 
ATOM      9  C   UNL     1       0.631  11.070  18.671  0.00  0.00    +0.000 C 
ATOM     10  N   UNL     1       0.309  10.795  20.048  0.00  0.00    +0.000 N 
ATOM     11  C   UNL     1       0.595   9.457  20.355  0.00  0.00    +0.000 C 
ATOM     12  O   UNL     1       0.239   8.884  21.371  0.00  0.00    +0.000 OA
BRANCH  10  13
ATOM     13  C   UNL     1      -0.409  11.703  20.919  0.00  0.00    +0.000 C 
BRANCH  13  14
ATOM     14  C   UNL     1      -1.154  12.816  20.178  0.00  0.00    +0.000 C 
ATOM     15  C   UNL     1      -2.668  12.608  20.198  0.00  0.00    +0.000 C 
ATOM     16  C   UNL     1      -0.809  14.169  20.802  0.00  0.00    +0.000 C 
ENDBRANCH  13  14
ENDBRANCH  10  13
ENDBRANCH   4   7
BRANCH   1  17
ATOM     17  S   UNL     1       3.778   3.502  19.029  0.00  0.00    +0.000 S 
ATOM     18  O   UNL     1       3.481   3.010  17.698  0.00  0.00    +0.000 OA
ATOM     19  O   UNL     1       3.289   2.806  20.206  0.00  0.00    +0.000 OA
BRANCH  17  20
ATOM     20  O   UNL     1       5.392   3.716  19.174  0.00  0.00    +0.000 OA
BRANCH  20  25
ATOM     21  C   UNL     1       6.814   5.305  16.152  0.00  0.00    +0.000 A 
ATOM     22  C   UNL     1       7.502   6.352  16.758  0.00  0.00    +0.000 A 
ATOM     23  C   UNL     1       7.493   6.513  18.150  0.00  0.00    +0.000 A 
ATOM     24  C   UNL     1       6.765   5.616  18.936  0.00  0.00    +0.000 A 
ATOM     25  C   UNL     1       6.058   4.573  18.333  0.00  0.00    +0.000 A 
ATOM     26  C   UNL     1       6.092   4.417  16.943  0.00  0.00    +0.000 A 
BRANCH  21  28
ATOM     27  C   UNL     1       6.120   4.251  14.132  0.00  0.00    +0.000 C 
ATOM     28  O   UNL     1       6.925   5.227  14.787  0.00  0.00    +0.000 OA
ENDBRANCH  21  28
BRANCH  23  29
ATOM     29  O   UNL     1       8.234   7.566  18.609  0.00  0.00    +0.000 OA
ATOM     30  C   UNL     1       8.131   8.792  17.895  0.00  0.00    +0.000 C 
ENDBRANCH  23  29
ENDBRANCH  20  25
ENDBRANCH  17  20
ENDBRANCH   1  17
TORSDOF 8
ENDMDL
MODEL 5
REMARK VINA RESULT:      -8.1      3.107      9.265
REMARK  Name = 
REMARK  12 active torsions:
REMARK  status: ('A' for Active; 'I' for Inactive)
REMARK    1  A    between atoms: C_1  and  O_2
REMARK    2  A    between atoms: O_2  and  C_3
REMARK    3  A    between atoms: C_5  and  O_6
REMARK    4  A    between atoms: O_6  and  C_7
REMARK    5  A    between atoms: C_9  and  O_10
REMARK    6  A    between atoms: O_10  and  S_11
REMARK    7  A    between atoms: S_11  and  C_14
REMARK    8  A    between atoms: C_17  and  N_18
REMARK    9  A    between atoms: N_21  and  C_22
REMARK   10  A    between atoms: C_22  and  C_23
REMARK   11  A    between atoms: C_23  and  C_24
REMARK   12  A    between atoms: C_23  and  C_25
REMARK                            x       y       z     vdW  Elec       q    Type
REMARK                         _______ _______ _______ _____ _____    ______ ____
ROOT
ATOM      1  C   UNL     1       1.599   8.485  19.800  0.00  0.00    +0.000 A 
ATOM      2  C   UNL     1       1.932   7.288  20.428  0.00  0.00    +0.000 A 
ATOM      3  C   UNL     1       2.662   6.332  19.721  0.00  0.00    +0.000 A 
ATOM      4  C   UNL     1       3.077   6.573  18.404  0.00  0.00    +0.000 A 
ATOM      5  C   UNL     1       2.755   7.799  17.804  0.00  0.00    +0.000 A 
ATOM      6  C   UNL     1       2.006   8.749  18.492  0.00  0.00    +0.000 A 
ENDROOT
BRANCH   4   7
ATOM      7  N   UNL     1       3.813   5.610  17.687  0.00  0.00    +0.000 N 
ATOM      8  C   UNL     1       3.674   4.183  17.887  0.00  0.00    +0.000 C 
ATOM      9  C   UNL     1       4.432   3.595  16.711  0.00  0.00    +0.000 C 
ATOM     10  N   UNL     1       5.402   4.622  16.428  0.00  0.00    +0.000 N 
ATOM     11  C   UNL     1       4.926   5.870  16.852  0.00  0.00    +0.000 C 
ATOM     12  O   UNL     1       5.429   6.943  16.564  0.00  0.00    +0.000 OA
BRANCH  10  13
ATOM     13  C   UNL     1       6.592   4.426  15.626  0.00  0.00    +0.000 C 
BRANCH  13  14
ATOM     14  C   UNL     1       6.412   4.785  14.148  0.00  0.00    +0.000 C 
ATOM     15  C   UNL     1       7.722   5.235  13.502  0.00  0.00    +0.000 C 
ATOM     16  C   UNL     1       5.849   3.580  13.392  0.00  0.00    +0.000 C 
ENDBRANCH  13  14
ENDBRANCH  10  13
ENDBRANCH   4   7
BRANCH   1  17
ATOM     17  S   UNL     1       0.599   9.670  20.654  0.00  0.00    +0.000 S 
ATOM     18  O   UNL     1       1.445  10.257  21.675  0.00  0.00    +0.000 OA
ATOM     19  O   UNL     1      -0.633   8.987  21.008  0.00  0.00    +0.000 OA
BRANCH  17  20
ATOM     20  O   UNL     1       0.269  10.799  19.517  0.00  0.00    +0.000 OA
BRANCH  20  25
ATOM     21  C   UNL     1      -2.863  10.660  17.556  0.00  0.00    +0.000 A 
ATOM     22  C   UNL     1      -3.630  11.549  18.304  0.00  0.00    +0.000 A 
ATOM     23  C   UNL     1      -3.101  12.184  19.436  0.00  0.00    +0.000 A 
ATOM     24  C   UNL     1      -1.789  11.903  19.826  0.00  0.00    +0.000 A 
ATOM     25  C   UNL     1      -1.020  10.999  19.089  0.00  0.00    +0.000 A 
ATOM     26  C   UNL     1      -1.557  10.388  17.952  0.00  0.00    +0.000 A 
BRANCH  21  28
ATOM     27  C   UNL     1      -2.903  10.447  15.183  0.00  0.00    +0.000 C 
ATOM     28  O   UNL     1      -3.474  10.128  16.449  0.00  0.00    +0.000 OA
ENDBRANCH  21  28
BRANCH  23  29
ATOM     29  O   UNL     1      -3.956  13.052  20.056  0.00  0.00    +0.000 OA
ATOM     30  C   UNL     1      -5.106  12.494  20.682  0.00  0.00    +0.000 C 
ENDBRANCH  23  29
ENDBRANCH  20  25
ENDBRANCH  17  20
ENDBRANCH   1  17
TORSDOF 8
ENDMDL
MODEL 6
REMARK VINA RESULT:      -8.0      0.838      2.702
REMARK  Name = 
REMARK  12 active torsions:
REMARK  status: ('A' for Active; 'I' for Inactive)
REMARK    1  A    between atoms: C_1  and  O_2
REMARK    2  A    between atoms: O_2  and  C_3
REMARK    3  A    between atoms: C_5  and  O_6
REMARK    4  A    between atoms: O_6  and  C_7
REMARK    5  A    between atoms: C_9  and  O_10
REMARK    6  A    between atoms: O_10  and  S_11
REMARK    7  A    between atoms: S_11  and  C_14
REMARK    8  A    between atoms: C_17  and  N_18
REMARK    9  A    between atoms: N_21  and  C_22
REMARK   10  A    between atoms: C_22  and  C_23
REMARK   11  A    between atoms: C_23  and  C_24
REMARK   12  A    between atoms: C_23  and  C_25
REMARK                            x       y       z     vdW  Elec       q    Type
REMARK                         _______ _______ _______ _____ _____    ______ ____
ROOT
ATOM      1  C   UNL     1       2.992   5.096  19.225  0.00  0.00    +0.000 A 
ATOM      2  C   UNL     1       3.028   6.047  18.208  0.00  0.00    +0.000 A 
ATOM      3  C   UNL     1       2.452   7.298  18.431  0.00  0.00    +0.000 A 
ATOM      4  C   UNL     1       1.863   7.611  19.664  0.00  0.00    +0.000 A 
ATOM      5  C   UNL     1       1.867   6.646  20.682  0.00  0.00    +0.000 A 
ATOM      6  C   UNL     1       2.417   5.386  20.462  0.00  0.00    +0.000 A 
ENDROOT
BRANCH   4   7
ATOM      7  N   UNL     1       1.281   8.872  19.892  0.00  0.00    +0.000 N 
ATOM      8  C   UNL     1       0.344   9.140  20.962  0.00  0.00    +0.000 C 
ATOM      9  C   UNL     1       0.249  10.655  20.966  0.00  0.00    +0.000 C 
ATOM     10  N   UNL     1       0.545  10.983  19.595  0.00  0.00    +0.000 N 
ATOM     11  C   UNL     1       1.337   9.982  19.016  0.00  0.00    +0.000 C 
ATOM     12  O   UNL     1       1.911  10.080  17.944  0.00  0.00    +0.000 OA
BRANCH  10  13
ATOM     13  C   UNL     1       0.255  12.261  18.977  0.00  0.00    +0.000 C 
BRANCH  13  14
ATOM     14  C   UNL     1       1.417  13.257  19.033  0.00  0.00    +0.000 C 
ATOM     15  C   UNL     1       0.962  14.687  18.743  0.00  0.00    +0.000 C 
ATOM     16  C   UNL     1       2.082  13.194  20.409  0.00  0.00    +0.000 C 
ENDBRANCH  13  14
ENDBRANCH  10  13
ENDBRANCH   4   7
BRANCH   1  17
ATOM     17  S   UNL     1       3.640   3.476  18.927  0.00  0.00    +0.000 S 
ATOM     18  O   UNL     1       3.328   3.159  17.547  0.00  0.00    +0.000 OA
ATOM     19  O   UNL     1       3.160   2.638  20.011  0.00  0.00    +0.000 OA
BRANCH  17  20
ATOM     20  O   UNL     1       5.257   3.665  19.081  0.00  0.00    +0.000 OA
BRANCH  20  25
ATOM     21  C   UNL     1       6.665   5.350  16.106  0.00  0.00    +0.000 A 
ATOM     22  C   UNL     1       7.411   6.336  16.745  0.00  0.00    +0.000 A 
ATOM     23  C   UNL     1       7.444   6.425  18.144  0.00  0.00    +0.000 A 
ATOM     24  C   UNL     1       6.701   5.519  18.903  0.00  0.00    +0.000 A 
ATOM     25  C   UNL     1       5.936   4.537  18.267  0.00  0.00    +0.000 A 
ATOM     26  C   UNL     1       5.928   4.452  16.871  0.00  0.00    +0.000 A 
BRANCH  21  28
ATOM     27  C   UNL     1       6.371   4.127  14.083  0.00  0.00    +0.000 C 
ATOM     28  O   UNL     1       6.738   5.339  14.736  0.00  0.00    +0.000 OA
ENDBRANCH  21  28
BRANCH  23  29
ATOM     29  O   UNL     1       8.240   7.423  18.634  0.00  0.00    +0.000 OA
ATOM     30  C   UNL     1       8.170   8.687  17.986  0.00  0.00    +0.000 C 
ENDBRANCH  23  29
ENDBRANCH  20  25
ENDBRANCH  17  20
ENDBRANCH   1  17
TORSDOF 8
ENDMDL
MODEL 7
REMARK VINA RESULT:      -8.0      0.805      1.174
REMARK  Name = 
REMARK  12 active torsions:
REMARK  status: ('A' for Active; 'I' for Inactive)
REMARK    1  A    between atoms: C_1  and  O_2
REMARK    2  A    between atoms: O_2  and  C_3
REMARK    3  A    between atoms: C_5  and  O_6
REMARK    4  A    between atoms: O_6  and  C_7
REMARK    5  A    between atoms: C_9  and  O_10
REMARK    6  A    between atoms: O_10  and  S_11
REMARK    7  A    between atoms: S_11  and  C_14
REMARK    8  A    between atoms: C_17  and  N_18
REMARK    9  A    between atoms: N_21  and  C_22
REMARK   10  A    between atoms: C_22  and  C_23
REMARK   11  A    between atoms: C_23  and  C_24
REMARK   12  A    between atoms: C_23  and  C_25
REMARK                            x       y       z     vdW  Elec       q    Type
REMARK                         _______ _______ _______ _____ _____    ______ ____
ROOT
ATOM      1  C   UNL     1       2.719   4.994  19.288  0.00  0.00    +0.000 A 
ATOM      2  C   UNL     1       2.152   5.299  20.523  0.00  0.00    +0.000 A 
ATOM      3  C   UNL     1       1.698   6.597  20.758  0.00  0.00    +0.000 A 
ATOM      4  C   UNL     1       1.787   7.582  19.764  0.00  0.00    +0.000 A 
ATOM      5  C   UNL     1       2.334   7.242  18.518  0.00  0.00    +0.000 A 
ATOM      6  C   UNL     1       2.812   5.956  18.282  0.00  0.00    +0.000 A 
ENDROOT
BRANCH   4   7
ATOM      7  N   UNL     1       1.330   8.893  19.998  0.00  0.00    +0.000 N 
ATOM      8  C   UNL     1       0.973   9.395  21.308  0.00  0.00    +0.000 C 
ATOM      9  C   UNL     1       0.839  10.889  21.079  0.00  0.00    +0.000 C 
ATOM     10  N   UNL     1       0.468  10.954  19.688  0.00  0.00    +0.000 N 
ATOM     11  C   UNL     1       0.944   9.826  19.006  0.00  0.00    +0.000 C 
ATOM     12  O   UNL     1       0.965   9.702  17.793  0.00  0.00    +0.000 OA
BRANCH  10  13
ATOM     13  C   UNL     1      -0.114  12.116  19.049  0.00  0.00    +0.000 C 
BRANCH  13  14
ATOM     14  C   UNL     1       0.758  13.372  19.130  0.00  0.00    +0.000 C 
ATOM     15  C   UNL     1       1.993  13.274  18.235  0.00  0.00    +0.000 C 
ATOM     16  C   UNL     1      -0.069  14.598  18.739  0.00  0.00    +0.000 C 
ENDBRANCH  13  14
ENDBRANCH  10  13
ENDBRANCH   4   7
BRANCH   1  17
ATOM     17  S   UNL     1       3.378   3.376  19.006  0.00  0.00    +0.000 S 
ATOM     18  O   UNL     1       3.133   3.073  17.610  0.00  0.00    +0.000 OA
ATOM     19  O   UNL     1       2.845   2.528  20.057  0.00  0.00    +0.000 OA
BRANCH  17  20
ATOM     20  O   UNL     1       4.986   3.560  19.240  0.00  0.00    +0.000 OA
BRANCH  20  25
ATOM     21  C   UNL     1       7.248   6.256  18.101  0.00  0.00    +0.000 A 
ATOM     22  C   UNL     1       7.062   6.132  16.727  0.00  0.00    +0.000 A 
ATOM     23  C   UNL     1       6.191   5.170  16.200  0.00  0.00    +0.000 A 
ATOM     24  C   UNL     1       5.514   4.312  17.069  0.00  0.00    +0.000 A 
ATOM     25  C   UNL     1       5.710   4.419  18.449  0.00  0.00    +0.000 A 
ATOM     26  C   UNL     1       6.569   5.397  18.959  0.00  0.00    +0.000 A 
BRANCH  21  28
ATOM     27  C   UNL     1       8.053   8.472  17.759  0.00  0.00    +0.000 C 
ATOM     28  O   UNL     1       8.096   7.256  18.502  0.00  0.00    +0.000 OA
ENDBRANCH  21  28
BRANCH  23  29
ATOM     29  O   UNL     1       6.084   5.181  14.836  0.00  0.00    +0.000 OA
ATOM     30  C   UNL     1       7.271   4.935  14.091  0.00  0.00    +0.000 C 
ENDBRANCH  23  29
ENDBRANCH  20  25
ENDBRANCH  17  20
ENDBRANCH   1  17
TORSDOF 8
ENDMDL
MODEL 8
REMARK VINA RESULT:      -7.9      0.718      2.452
REMARK  Name = 
REMARK  12 active torsions:
REMARK  status: ('A' for Active; 'I' for Inactive)
REMARK    1  A    between atoms: C_1  and  O_2
REMARK    2  A    between atoms: O_2  and  C_3
REMARK    3  A    between atoms: C_5  and  O_6
REMARK    4  A    between atoms: O_6  and  C_7
REMARK    5  A    between atoms: C_9  and  O_10
REMARK    6  A    between atoms: O_10  and  S_11
REMARK    7  A    between atoms: S_11  and  C_14
REMARK    8  A    between atoms: C_17  and  N_18
REMARK    9  A    between atoms: N_21  and  C_22
REMARK   10  A    between atoms: C_22  and  C_23
REMARK   11  A    between atoms: C_23  and  C_24
REMARK   12  A    between atoms: C_23  and  C_25
REMARK                            x       y       z     vdW  Elec       q    Type
REMARK                         _______ _______ _______ _____ _____    ______ ____
ROOT
ATOM      1  C   UNL     1       3.021   4.897  19.496  0.00  0.00    +0.000 A 
ATOM      2  C   UNL     1       3.128   6.003  18.656  0.00  0.00    +0.000 A 
ATOM      3  C   UNL     1       2.481   7.187  19.010  0.00  0.00    +0.000 A 
ATOM      4  C   UNL     1       1.750   7.279  20.203  0.00  0.00    +0.000 A 
ATOM      5  C   UNL     1       1.683   6.161  21.047  0.00  0.00    +0.000 A 
ATOM      6  C   UNL     1       2.304   4.967  20.691  0.00  0.00    +0.000 A 
ENDROOT
BRANCH   4   7
ATOM      7  N   UNL     1       1.096   8.472  20.563  0.00  0.00    +0.000 N 
ATOM      8  C   UNL     1       0.104   8.557  21.615  0.00  0.00    +0.000 C 
ATOM      9  C   UNL     1      -0.068  10.052  21.807  0.00  0.00    +0.000 C 
ATOM     10  N   UNL     1       0.265  10.569  20.504  0.00  0.00    +0.000 N 
ATOM     11  C   UNL     1       1.129   9.688  19.839  0.00  0.00    +0.000 C 
ATOM     12  O   UNL     1       1.740   9.950  18.816  0.00  0.00    +0.000 OA
BRANCH  10  13
ATOM     13  C   UNL     1      -0.066  11.901  20.042  0.00  0.00    +0.000 C 
BRANCH  13  14
ATOM     14  C   UNL     1      -0.660  11.940  18.632  0.00  0.00    +0.000 C 
ATOM     15  C   UNL     1      -2.136  11.542  18.618  0.00  0.00    +0.000 C 
ATOM     16  C   UNL     1      -0.496  13.342  18.043  0.00  0.00    +0.000 C 
ENDBRANCH  13  14
ENDBRANCH  10  13
ENDBRANCH   4   7
BRANCH   1  17
ATOM     17  S   UNL     1       3.763   3.362  19.018  0.00  0.00    +0.000 S 
ATOM     18  O   UNL     1       3.400   3.149  17.631  0.00  0.00    +0.000 OA
ATOM     19  O   UNL     1       3.401   2.397  20.040  0.00  0.00    +0.000 OA
BRANCH  17  20
ATOM     20  O   UNL     1       5.369   3.656  19.112  0.00  0.00    +0.000 OA
BRANCH  20  25
ATOM     21  C   UNL     1       6.462   5.545  16.127  0.00  0.00    +0.000 A 
ATOM     22  C   UNL     1       7.253   6.504  16.751  0.00  0.00    +0.000 A 
ATOM     23  C   UNL     1       7.420   6.508  18.143  0.00  0.00    +0.000 A 
ATOM     24  C   UNL     1       6.765   5.544  18.912  0.00  0.00    +0.000 A 
ATOM     25  C   UNL     1       5.955   4.589  18.293  0.00  0.00    +0.000 A 
ATOM     26  C   UNL     1       5.813   4.588  16.901  0.00  0.00    +0.000 A 
BRANCH  21  28
ATOM     27  C   UNL     1       6.747   4.439  14.036  0.00  0.00    +0.000 C 
ATOM     28  O   UNL     1       6.402   5.618  14.758  0.00  0.00    +0.000 OA
ENDBRANCH  21  28
BRANCH  23  29
ATOM     29  O   UNL     1       8.247   7.490  18.617  0.00  0.00    +0.000 OA
ATOM     30  C   UNL     1       8.173   8.762  17.984  0.00  0.00    +0.000 C 
ENDBRANCH  23  29
ENDBRANCH  20  25
ENDBRANCH  17  20
ENDBRANCH   1  17
TORSDOF 8
ENDMDL
MODEL 9
REMARK VINA RESULT:      -7.9      1.198      1.589
REMARK  Name = 
REMARK  12 active torsions:
REMARK  status: ('A' for Active; 'I' for Inactive)
REMARK    1  A    between atoms: C_1  and  O_2
REMARK    2  A    between atoms: O_2  and  C_3
REMARK    3  A    between atoms: C_5  and  O_6
REMARK    4  A    between atoms: O_6  and  C_7
REMARK    5  A    between atoms: C_9  and  O_10
REMARK    6  A    between atoms: O_10  and  S_11
REMARK    7  A    between atoms: S_11  and  C_14
REMARK    8  A    between atoms: C_17  and  N_18
REMARK    9  A    between atoms: N_21  and  C_22
REMARK   10  A    between atoms: C_22  and  C_23
REMARK   11  A    between atoms: C_23  and  C_24
REMARK   12  A    between atoms: C_23  and  C_25
REMARK                            x       y       z     vdW  Elec       q    Type
REMARK                         _______ _______ _______ _____ _____    ______ ____
ROOT
ATOM      1  C   UNL     1       3.076   5.027  19.020  0.00  0.00    +0.000 A 
ATOM      2  C   UNL     1       2.760   5.573  20.261  0.00  0.00    +0.000 A 
ATOM      3  C   UNL     1       2.257   6.873  20.321  0.00  0.00    +0.000 A 
ATOM      4  C   UNL     1       2.050   7.620  19.153  0.00  0.00    +0.000 A 
ATOM      5  C   UNL     1       2.348   7.036  17.913  0.00  0.00    +0.000 A 
ATOM      6  C   UNL     1       2.873   5.748  17.844  0.00  0.00    +0.000 A 
ENDROOT
BRANCH   4   7
ATOM      7  N   UNL     1       1.544   8.932  19.210  0.00  0.00    +0.000 N 
ATOM      8  C   UNL     1       1.954   9.988  18.310  0.00  0.00    +0.000 C 
ATOM      9  C   UNL     1       0.938  11.083  18.577  0.00  0.00    +0.000 C 
ATOM     10  N   UNL     1       0.562  10.825  19.944  0.00  0.00    +0.000 N 
ATOM     11  C   UNL     1       0.754   9.472  20.252  0.00  0.00    +0.000 C 
ATOM     12  O   UNL     1       0.335   8.919  21.256  0.00  0.00    +0.000 OA
BRANCH  10  13
ATOM     13  C   UNL     1      -0.118  11.775  20.800  0.00  0.00    +0.000 C 
BRANCH  13  14
ATOM     14  C   UNL     1       0.207  13.238  20.486  0.00  0.00    +0.000 C 
ATOM     15  C   UNL     1      -0.937  13.937  19.751  0.00  0.00    +0.000 C 
ATOM     16  C   UNL     1       0.520  13.984  21.784  0.00  0.00    +0.000 C 
ENDBRANCH  13  14
ENDBRANCH  10  13
ENDBRANCH   4   7
BRANCH   1  17
ATOM     17  S   UNL     1       3.796   3.412  18.934  0.00  0.00    +0.000 S 
ATOM     18  O   UNL     1       3.625   2.961  17.567  0.00  0.00    +0.000 OA
ATOM     19  O   UNL     1       3.240   2.657  20.044  0.00  0.00    +0.000 OA
BRANCH  17  20
ATOM     20  O   UNL     1       5.385   3.674  19.217  0.00  0.00    +0.000 OA
BRANCH  20  25
ATOM     21  C   UNL     1       7.488   6.530  18.166  0.00  0.00    +0.000 A 
ATOM     22  C   UNL     1       7.406   6.366  16.787  0.00  0.00    +0.000 A 
ATOM     23  C   UNL     1       6.655   5.325  16.226  0.00  0.00    +0.000 A 
ATOM     24  C   UNL     1       5.994   4.428  17.069  0.00  0.00    +0.000 A 
ATOM     25  C   UNL     1       6.087   4.576  18.455  0.00  0.00    +0.000 A 
ATOM     26  C   UNL     1       6.827   5.632  18.998  0.00  0.00    +0.000 A 
BRANCH  21  28
ATOM     27  C   UNL     1       8.072   8.820  17.870  0.00  0.00    +0.000 C 
ATOM     28  O   UNL     1       8.222   7.605  18.599  0.00  0.00    +0.000 OA
ENDBRANCH  21  28
BRANCH  23  29
ATOM     29  O   UNL     1       6.640   5.303  14.858  0.00  0.00    +0.000 OA
ATOM     30  C   UNL     1       6.298   4.072  14.232  0.00  0.00    +0.000 C 
ENDBRANCH  23  29
ENDBRANCH  20  25
ENDBRANCH  17  20
ENDBRANCH   1  17
TORSDOF 8
ENDMDL
