MODEL 1
REMARK VINA RESULT:      -8.1      0.000      0.000
REMARK  Name = 
REMARK  5 active torsions:
REMARK  status: ('A' for Active; 'I' for Inactive)
REMARK    1  A    between atoms: C_1  and  C_2
REMARK    2  A    between atoms: C_4  and  O_5
REMARK    3  A    between atoms: C_8  and  O_9
REMARK    4  A    between atoms: C_11  and  C_12
REMARK    5  A    between atoms: C_16  and  C_17
REMARK                            x       y       z     vdW  Elec       q    Type
REMARK                         _______ _______ _______ _____ _____    ______ ____
ROOT
ATOM      1  C   UNL     1       2.972   6.735  19.087  0.00  0.00    +0.000 C 
ATOM      2  C   UNL     1       2.918   5.235  19.012  0.00  0.00    +0.000 A 
ATOM      3  C   UNL     1       1.597   4.685  19.305  0.00  0.00    +0.000 A 
ATOM      4  C   UNL     1       1.091   3.857  18.372  0.00  0.00    +0.000 A 
ATOM      5  C   UNL     1       1.329   2.478  18.888  0.00  0.00    +0.000 A 
ATOM      6  O   UNL     1       0.418   1.748  19.253  0.00  0.00    +0.000 OA
ATOM      7  C   UNL     1       2.786   2.053  18.828  0.00  0.00    +0.000 A 
ATOM      8  C   UNL     1       3.836   2.901  18.745  0.00  0.00    +0.000 A 
ATOM      9  C   UNL     1       3.919   4.384  18.645  0.00  0.00    +0.000 A 
ENDROOT
BRANCH   9  10
ATOM     10  C   UNL     1       5.136   4.945  17.995  0.00  0.00    +0.000 A 
ATOM     11  C   UNL     1       6.107   5.657  18.692  0.00  0.00    +0.000 A 
ATOM     12  C   UNL     1       7.251   6.102  18.026  0.00  0.00    +0.000 A 
ATOM     13  C   UNL     1       7.437   5.817  16.664  0.00  0.00    +0.000 A 
ATOM     14  C   UNL     1       6.488   5.091  15.930  0.00  0.00    +0.000 A 
ATOM     15  C   UNL     1       5.340   4.669  16.626  0.00  0.00    +0.000 A 
BRANCH  14  16
ATOM     16  C   UNL     1       6.689   4.775  14.489  0.00  0.00    +0.000 A 
ATOM     17  C   UNL     1       5.946   3.766  13.842  0.00  0.00    +0.000 A 
ATOM     18  C   UNL     1       6.145   3.455  12.492  0.00  0.00    +0.000 A 
ATOM     19  C   UNL     1       7.094   4.152  11.751  0.00  0.00    +0.000 A 
ATOM     20  C   UNL     1       7.838   5.156  12.352  0.00  0.00    +0.000 A 
ATOM     21  C   UNL     1       7.637   5.460  13.711  0.00  0.00    +0.000 A 
ENDBRANCH  14  16
ENDBRANCH   9  10
BRANCH   4  22
ATOM     22  O   UNL     1       1.340   4.087  17.016  0.00  0.00    +0.000 OA
ATOM     23  H   UNL     1       0.832   4.875  16.754  0.00  0.00    +0.000 HD
ENDBRANCH   4  22
BRANCH   7  24
ATOM     24  O   UNL     1       3.000   0.680  18.820  0.00  0.00    +0.000 OA
ATOM     25  H   UNL     1       3.739   0.479  19.417  0.00  0.00    +0.000 HD
ENDBRANCH   7  24
TORSDOF 4
ENDMDL
MODEL 2
REMARK VINA RESULT:      -8.1      0.053      1.002
REMARK  Name = 
REMARK  5 active torsions:
REMARK  status: ('A' for Active; 'I' for Inactive)
REMARK    1  A    between atoms: C_1  and  C_2
REMARK    2  A    between atoms: C_4  and  O_5
REMARK    3  A    between atoms: C_8  and  O_9
REMARK    4  A    between atoms: C_11  and  C_12
REMARK    5  A    between atoms: C_16  and  C_17
REMARK                            x       y       z     vdW  Elec       q    Type
REMARK                         _______ _______ _______ _____ _____    ______ ____
ROOT
ATOM      1  C   UNL     1       2.973   6.750  19.064  0.00  0.00    +0.000 C 
ATOM      2  C   UNL     1       2.925   5.248  19.000  0.00  0.00    +0.000 A 
ATOM      3  C   UNL     1       1.609   4.695  19.311  0.00  0.00    +0.000 A 
ATOM      4  C   UNL     1       1.097   3.859  18.389  0.00  0.00    +0.000 A 
ATOM      5  C   UNL     1       1.345   2.485  18.913  0.00  0.00    +0.000 A 
ATOM      6  O   UNL     1       0.440   1.754  19.293  0.00  0.00    +0.000 OA
ATOM      7  C   UNL     1       2.803   2.064  18.842  0.00  0.00    +0.000 A 
ATOM      8  C   UNL     1       3.849   2.916  18.742  0.00  0.00    +0.000 A 
ATOM      9  C   UNL     1       3.925   4.399  18.630  0.00  0.00    +0.000 A 
ENDROOT
BRANCH   9  10
ATOM     10  C   UNL     1       5.133   4.959  17.963  0.00  0.00    +0.000 A 
ATOM     11  C   UNL     1       6.097   5.698  18.641  0.00  0.00    +0.000 A 
ATOM     12  C   UNL     1       7.234   6.141  17.961  0.00  0.00    +0.000 A 
ATOM     13  C   UNL     1       7.420   5.828  16.605  0.00  0.00    +0.000 A 
ATOM     14  C   UNL     1       6.476   5.076  15.891  0.00  0.00    +0.000 A 
ATOM     15  C   UNL     1       5.336   4.656  16.600  0.00  0.00    +0.000 A 
BRANCH  14  16
ATOM     16  C   UNL     1       6.676   4.730  14.457  0.00  0.00    +0.000 A 
ATOM     17  C   UNL     1       7.649   5.379  13.667  0.00  0.00    +0.000 A 
ATOM     18  C   UNL     1       7.827   5.069  12.315  0.00  0.00    +0.000 A 
ATOM     19  C   UNL     1       7.037   4.093  11.715  0.00  0.00    +0.000 A 
ATOM     20  C   UNL     1       6.076   3.428  12.462  0.00  0.00    +0.000 A 
ATOM     21  C   UNL     1       5.897   3.749  13.820  0.00  0.00    +0.000 A 
ENDBRANCH  14  16
ENDBRANCH   9  10
BRANCH   4  22
ATOM     22  O   UNL     1       1.330   4.079  17.029  0.00  0.00    +0.000 OA
ATOM     23  H   UNL     1       2.097   4.675  16.956  0.00  0.00    +0.000 HD
ENDBRANCH   4  22
BRANCH   7  24
ATOM     24  O   UNL     1       3.022   0.692  18.842  0.00  0.00    +0.000 OA
ATOM     25  H   UNL     1       3.668   0.482  19.535  0.00  0.00    +0.000 HD
ENDBRANCH   7  24
TORSDOF 4
ENDMDL
MODEL 3
REMARK VINA RESULT:      -8.1      1.033      1.055
REMARK  Name = 
REMARK  5 active torsions:
REMARK  status: ('A' for Active; 'I' for Inactive)
REMARK    1  A    between atoms: C_1  and  C_2
REMARK    2  A    between atoms: C_4  and  O_5
REMARK    3  A    between atoms: C_8  and  O_9
REMARK    4  A    between atoms: C_11  and  C_12
REMARK    5  A    between atoms: C_16  and  C_17
REMARK                            x       y       z     vdW  Elec       q    Type
REMARK                         _______ _______ _______ _____ _____    ______ ____
ROOT
ATOM      1  C   UNL     1       2.635   7.017  17.952  0.00  0.00    +0.000 C 
ATOM      2  C   UNL     1       2.946   5.718  18.642  0.00  0.00    +0.000 A 
ATOM      3  C   UNL     1       1.769   5.067  19.214  0.00  0.00    +0.000 A 
ATOM      4  C   UNL     1       1.571   3.790  18.839  0.00  0.00    +0.000 A 
ATOM      5  C   UNL     1       2.074   2.957  19.969  0.00  0.00    +0.000 A 
ATOM      6  O   UNL     1       1.329   2.297  20.680  0.00  0.00    +0.000 OA
ATOM      7  C   UNL     1       3.589   2.946  20.084  0.00  0.00    +0.000 A 
ATOM      8  C   UNL     1       4.411   3.879  19.552  0.00  0.00    +0.000 A 
ATOM      9  C   UNL     1       4.151   5.085  18.720  0.00  0.00    +0.000 A 
ENDROOT
BRANCH   9  10
ATOM     10  C   UNL     1       5.260   5.542  17.837  0.00  0.00    +0.000 A 
ATOM     11  C   UNL     1       6.262   6.406  18.267  0.00  0.00    +0.000 A 
ATOM     12  C   UNL     1       7.303   6.744  17.399  0.00  0.00    +0.000 A 
ATOM     13  C   UNL     1       7.357   6.201  16.106  0.00  0.00    +0.000 A 
ATOM     14  C   UNL     1       6.373   5.317  15.641  0.00  0.00    +0.000 A 
ATOM     15  C   UNL     1       5.330   5.007  16.533  0.00  0.00    +0.000 A 
BRANCH  14  16
ATOM     16  C   UNL     1       6.434   4.728  14.275  0.00  0.00    +0.000 A 
ATOM     17  C   UNL     1       5.458   3.819  13.816  0.00  0.00    +0.000 A 
ATOM     18  C   UNL     1       5.522   3.251  12.539  0.00  0.00    +0.000 A 
ATOM     19  C   UNL     1       6.568   3.582  11.682  0.00  0.00    +0.000 A 
ATOM     20  C   UNL     1       7.541   4.479  12.096  0.00  0.00    +0.000 A 
ATOM     21  C   UNL     1       7.474   5.042  13.384  0.00  0.00    +0.000 A 
ENDBRANCH  14  16
ENDBRANCH   9  10
BRANCH   4  22
ATOM     22  O   UNL     1       1.894   3.376  17.543  0.00  0.00    +0.000 OA
ATOM     23  H   UNL     1       1.078   3.042  17.130  0.00  0.00    +0.000 HD
ENDBRANCH   4  22
BRANCH   7  24
ATOM     24  O   UNL     1       4.121   1.854  20.759  0.00  0.00    +0.000 OA
ATOM     25  H   UNL     1       3.778   1.856  21.668  0.00  0.00    +0.000 HD
ENDBRANCH   7  24
TORSDOF 4
ENDMDL
MODEL 4
REMARK VINA RESULT:      -8.1      1.012      1.431
REMARK  Name = 
REMARK  5 active torsions:
REMARK  status: ('A' for Active; 'I' for Inactive)
REMARK    1  A    between atoms: C_1  and  C_2
REMARK    2  A    between atoms: C_4  and  O_5
REMARK    3  A    between atoms: C_8  and  O_9
REMARK    4  A    between atoms: C_11  and  C_12
REMARK    5  A    between atoms: C_16  and  C_17
REMARK                            x       y       z     vdW  Elec       q    Type
REMARK                         _______ _______ _______ _____ _____    ______ ____
ROOT
ATOM      1  C   UNL     1       2.629   6.933  17.918  0.00  0.00    +0.000 C 
ATOM      2  C   UNL     1       2.957   5.638  18.607  0.00  0.00    +0.000 A 
ATOM      3  C   UNL     1       1.789   4.967  19.172  0.00  0.00    +0.000 A 
ATOM      4  C   UNL     1       1.614   3.687  18.794  0.00  0.00    +0.000 A 
ATOM      5  C   UNL     1       2.125   2.861  19.926  0.00  0.00    +0.000 A 
ATOM      6  O   UNL     1       1.387   2.188  20.632  0.00  0.00    +0.000 OA
ATOM      7  C   UNL     1       3.639   2.875  20.049  0.00  0.00    +0.000 A 
ATOM      8  C   UNL     1       4.448   3.822  19.523  0.00  0.00    +0.000 A 
ATOM      9  C   UNL     1       4.173   5.025  18.691  0.00  0.00    +0.000 A 
ENDROOT
BRANCH   9  10
ATOM     10  C   UNL     1       5.278   5.501  17.814  0.00  0.00    +0.000 A 
ATOM     11  C   UNL     1       6.266   6.378  18.252  0.00  0.00    +0.000 A 
ATOM     12  C   UNL     1       7.306   6.734  17.390  0.00  0.00    +0.000 A 
ATOM     13  C   UNL     1       7.373   6.198  16.094  0.00  0.00    +0.000 A 
ATOM     14  C   UNL     1       6.403   5.302  15.622  0.00  0.00    +0.000 A 
ATOM     15  C   UNL     1       5.361   4.973  16.509  0.00  0.00    +0.000 A 
BRANCH  14  16
ATOM     16  C   UNL     1       6.478   4.720  14.253  0.00  0.00    +0.000 A 
ATOM     17  C   UNL     1       7.487   5.096  13.343  0.00  0.00    +0.000 A 
ATOM     18  C   UNL     1       7.550   4.565  12.050  0.00  0.00    +0.000 A 
ATOM     19  C   UNL     1       6.602   3.634  11.635  0.00  0.00    +0.000 A 
ATOM     20  C   UNL     1       5.600   3.234  12.506  0.00  0.00    +0.000 A 
ATOM     21  C   UNL     1       5.539   3.777  13.801  0.00  0.00    +0.000 A 
ENDBRANCH  14  16
ENDBRANCH   9  10
BRANCH   4  22
ATOM     22  O   UNL     1       1.950   3.281  17.500  0.00  0.00    +0.000 OA
ATOM     23  H   UNL     1       2.832   3.641  17.300  0.00  0.00    +0.000 HD
ENDBRANCH   4  22
BRANCH   7  24
ATOM     24  O   UNL     1       4.185   1.791  20.725  0.00  0.00    +0.000 OA
ATOM     25  H   UNL     1       4.949   2.100  21.239  0.00  0.00    +0.000 HD
ENDBRANCH   7  24
TORSDOF 4
ENDMDL
MODEL 5
REMARK VINA RESULT:      -8.0      3.118      6.981
REMARK  Name = 
REMARK  5 active torsions:
REMARK  status: ('A' for Active; 'I' for Inactive)
REMARK    1  A    between atoms: C_1  and  C_2
REMARK    2  A    between atoms: C_4  and  O_5
REMARK    3  A    between atoms: C_8  and  O_9
REMARK    4  A    between atoms: C_11  and  C_12
REMARK    5  A    between atoms: C_16  and  C_17
REMARK                            x       y       z     vdW  Elec       q    Type
REMARK                         _______ _______ _______ _____ _____    ______ ____
ROOT
ATOM      1  C   UNL     1       2.584   3.448  16.732  0.00  0.00    +0.000 C 
ATOM      2  C   UNL     1       3.959   3.884  17.157  0.00  0.00    +0.000 A 
ATOM      3  C   UNL     1       4.964   3.747  16.106  0.00  0.00    +0.000 A 
ATOM      4  C   UNL     1       5.672   4.858  15.830  0.00  0.00    +0.000 A 
ATOM      5  C   UNL     1       6.976   4.687  16.532  0.00  0.00    +0.000 A 
ATOM      6  O   UNL     1       8.028   4.519  15.931  0.00  0.00    +0.000 OA
ATOM      7  C   UNL     1       6.874   4.830  18.042  0.00  0.00    +0.000 A 
ATOM      8  C   UNL     1       5.733   4.694  18.755  0.00  0.00    +0.000 A 
ATOM      9  C   UNL     1       4.325   4.433  18.351  0.00  0.00    +0.000 A 
ENDROOT
BRANCH   9  10
ATOM     10  C   UNL     1       3.262   4.914  19.276  0.00  0.00    +0.000 A 
ATOM     11  C   UNL     1       2.696   4.112  20.262  0.00  0.00    +0.000 A 
ATOM     12  C   UNL     1       1.745   4.652  21.131  0.00  0.00    +0.000 A 
ATOM     13  C   UNL     1       1.373   6.002  21.031  0.00  0.00    +0.000 A 
ATOM     14  C   UNL     1       1.931   6.845  20.059  0.00  0.00    +0.000 A 
ATOM     15  C   UNL     1       2.875   6.268  19.189  0.00  0.00    +0.000 A 
BRANCH  14  16
ATOM     16  C   UNL     1       1.549   8.280  19.958  0.00  0.00    +0.000 A 
ATOM     17  C   UNL     1       1.073   9.000  21.075  0.00  0.00    +0.000 A 
ATOM     18  C   UNL     1       0.697  10.344  20.980  0.00  0.00    +0.000 A 
ATOM     19  C   UNL     1       0.792  11.008  19.760  0.00  0.00    +0.000 A 
ATOM     20  C   UNL     1       1.264  10.335  18.643  0.00  0.00    +0.000 A 
ATOM     21  C   UNL     1       1.634   8.982  18.744  0.00  0.00    +0.000 A 
ENDBRANCH  14  16
ENDBRANCH   9  10
BRANCH   4  22
ATOM     22  O   UNL     1       5.066   6.116  15.899  0.00  0.00    +0.000 OA
ATOM     23  H   UNL     1       5.773   6.784  15.856  0.00  0.00    +0.000 HD
ENDBRANCH   4  22
BRANCH   7  24
ATOM     24  O   UNL     1       8.060   5.166  18.683  0.00  0.00    +0.000 OA
ATOM     25  H   UNL     1       8.096   6.131  18.781  0.00  0.00    +0.000 HD
ENDBRANCH   7  24
TORSDOF 4
ENDMDL
MODEL 6
REMARK VINA RESULT:      -8.0      3.866      7.611
REMARK  Name = 
REMARK  5 active torsions:
REMARK  status: ('A' for Active; 'I' for Inactive)
REMARK    1  A    between atoms: C_1  and  C_2
REMARK    2  A    between atoms: C_4  and  O_5
REMARK    3  A    between atoms: C_8  and  O_9
REMARK    4  A    between atoms: C_11  and  C_12
REMARK    5  A    between atoms: C_16  and  C_17
REMARK                            x       y       z     vdW  Elec       q    Type
REMARK                         _______ _______ _______ _____ _____    ______ ____
ROOT
ATOM      1  C   UNL     1       0.672   4.969  20.766  0.00  0.00    +0.000 C 
ATOM      2  C   UNL     1       2.071   4.691  20.292  0.00  0.00    +0.000 A 
ATOM      3  C   UNL     1       2.442   3.280  20.369  0.00  0.00    +0.000 A 
ATOM      4  C   UNL     1       2.904   2.736  19.228  0.00  0.00    +0.000 A 
ATOM      5  C   UNL     1       4.388   2.711  19.369  0.00  0.00    +0.000 A 
ATOM      6  O   UNL     1       5.019   1.669  19.486  0.00  0.00    +0.000 OA
ATOM      7  C   UNL     1       5.030   4.085  19.264  0.00  0.00    +0.000 A 
ATOM      8  C   UNL     1       4.382   5.256  19.456  0.00  0.00    +0.000 A 
ATOM      9  C   UNL     1       2.960   5.576  19.758  0.00  0.00    +0.000 A 
ENDROOT
BRANCH   9  10
ATOM     10  C   UNL     1       2.470   6.917  19.335  0.00  0.00    +0.000 A 
ATOM     11  C   UNL     1       2.610   7.400  18.037  0.00  0.00    +0.000 A 
ATOM     12  C   UNL     1       2.073   8.644  17.700  0.00  0.00    +0.000 A 
ATOM     13  C   UNL     1       1.375   9.401  18.654  0.00  0.00    +0.000 A 
ATOM     14  C   UNL     1       1.202   8.943  19.969  0.00  0.00    +0.000 A 
ATOM     15  C   UNL     1       1.767   7.693  20.281  0.00  0.00    +0.000 A 
BRANCH  14  16
ATOM     16  C   UNL     1       0.451   9.737  20.980  0.00  0.00    +0.000 A 
ATOM     17  C   UNL     1       0.100   9.196  22.234  0.00  0.00    +0.000 A 
ATOM     18  C   UNL     1      -0.621   9.933  23.180  0.00  0.00    +0.000 A 
ATOM     19  C   UNL     1      -1.008  11.239  22.894  0.00  0.00    +0.000 A 
ATOM     20  C   UNL     1      -0.674  11.807  21.674  0.00  0.00    +0.000 A 
ATOM     21  C   UNL     1       0.046  11.058  20.726  0.00  0.00    +0.000 A 
ENDBRANCH  14  16
ENDBRANCH   9  10
BRANCH   4  22
ATOM     22  O   UNL     1       2.383   3.136  17.994  0.00  0.00    +0.000 OA
ATOM     23  H   UNL     1       3.013   3.765  17.600  0.00  0.00    +0.000 HD
ENDBRANCH   4  22
BRANCH   7  24
ATOM     24  O   UNL     1       6.371   4.084  18.901  0.00  0.00    +0.000 OA
ATOM     25  H   UNL     1       6.889   3.719  19.636  0.00  0.00    +0.000 HD
ENDBRANCH   7  24
TORSDOF 4
ENDMDL
MODEL 7
REMARK VINA RESULT:      -8.0      3.124      6.986
REMARK  Name = 
REMARK  5 active torsions:
REMARK  status: ('A' for Active; 'I' for Inactive)
REMARK    1  A    between atoms: C_1  and  C_2
REMARK    2  A    between atoms: C_4  and  O_5
REMARK    3  A    between atoms: C_8  and  O_9
REMARK    4  A    between atoms: C_11  and  C_12
REMARK    5  A    between atoms: C_16  and  C_17
REMARK                            x       y       z     vdW  Elec       q    Type
REMARK                         _______ _______ _______ _____ _____    ______ ____
ROOT
ATOM      1  C   UNL     1       2.574   3.524  16.701  0.00  0.00    +0.000 C 
ATOM      2  C   UNL     1       3.955   3.932  17.134  0.00  0.00    +0.000 A 
ATOM      3  C   UNL     1       4.959   3.793  16.083  0.00  0.00    +0.000 A 
ATOM      4  C   UNL     1       5.685   4.896  15.822  0.00  0.00    +0.000 A 
ATOM      5  C   UNL     1       6.986   4.695  16.524  0.00  0.00    +0.000 A 
ATOM      6  O   UNL     1       8.036   4.518  15.922  0.00  0.00    +0.000 OA
ATOM      7  C   UNL     1       6.884   4.819  18.035  0.00  0.00    +0.000 A 
ATOM      8  C   UNL     1       5.740   4.692  18.745  0.00  0.00    +0.000 A 
ATOM      9  C   UNL     1       4.328   4.459  18.335  0.00  0.00    +0.000 A 
ENDROOT
BRANCH   9  10
ATOM     10  C   UNL     1       3.272   4.945  19.265  0.00  0.00    +0.000 A 
ATOM     11  C   UNL     1       2.724   4.153  20.270  0.00  0.00    +0.000 A 
ATOM     12  C   UNL     1       1.779   4.697  21.142  0.00  0.00    +0.000 A 
ATOM     13  C   UNL     1       1.394   6.042  21.026  0.00  0.00    +0.000 A 
ATOM     14  C   UNL     1       1.932   6.876  20.034  0.00  0.00    +0.000 A 
ATOM     15  C   UNL     1       2.871   6.294  19.163  0.00  0.00    +0.000 A 
BRANCH  14  16
ATOM     16  C   UNL     1       1.536   8.306  19.917  0.00  0.00    +0.000 A 
ATOM     17  C   UNL     1       1.628   9.002  18.693  0.00  0.00    +0.000 A 
ATOM     18  C   UNL     1       1.273  10.350  18.583  0.00  0.00    +0.000 A 
ATOM     19  C   UNL     1       0.811  11.041  19.700  0.00  0.00    +0.000 A 
ATOM     20  C   UNL     1       0.700  10.387  20.918  0.00  0.00    +0.000 A 
ATOM     21  C   UNL     1       1.064   9.033  21.023  0.00  0.00    +0.000 A 
ENDBRANCH  14  16
ENDBRANCH   9  10
BRANCH   4  22
ATOM     22  O   UNL     1       5.100   6.163  15.907  0.00  0.00    +0.000 OA
ATOM     23  H   UNL     1       5.224   6.483  16.818  0.00  0.00    +0.000 HD
ENDBRANCH   4  22
BRANCH   7  24
ATOM     24  O   UNL     1       8.074   5.128  18.682  0.00  0.00    +0.000 OA
ATOM     25  H   UNL     1       8.750   4.487  18.408  0.00  0.00    +0.000 HD
ENDBRANCH   7  24
TORSDOF 4
ENDMDL
MODEL 8
REMARK VINA RESULT:      -7.9      3.856      7.636
REMARK  Name = 
REMARK  5 active torsions:
REMARK  status: ('A' for Active; 'I' for Inactive)
REMARK    1  A    between atoms: C_1  and  C_2
REMARK    2  A    between atoms: C_4  and  O_5
REMARK    3  A    between atoms: C_8  and  O_9
REMARK    4  A    between atoms: C_11  and  C_12
REMARK    5  A    between atoms: C_16  and  C_17
REMARK                            x       y       z     vdW  Elec       q    Type
REMARK                         _______ _______ _______ _____ _____    ______ ____
ROOT
ATOM      1  C   UNL     1       0.702   4.988  20.786  0.00  0.00    +0.000 C 
ATOM      2  C   UNL     1       2.096   4.703  20.300  0.00  0.00    +0.000 A 
ATOM      3  C   UNL     1       2.463   3.291  20.383  0.00  0.00    +0.000 A 
ATOM      4  C   UNL     1       2.914   2.740  19.240  0.00  0.00    +0.000 A 
ATOM      5  C   UNL     1       4.399   2.711  19.368  0.00  0.00    +0.000 A 
ATOM      6  O   UNL     1       5.028   1.668  19.485  0.00  0.00    +0.000 OA
ATOM      7  C   UNL     1       5.044   4.082  19.249  0.00  0.00    +0.000 A 
ATOM      8  C   UNL     1       4.401   5.257  19.440  0.00  0.00    +0.000 A 
ATOM      9  C   UNL     1       2.983   5.583  19.753  0.00  0.00    +0.000 A 
ENDROOT
BRANCH   9  10
ATOM     10  C   UNL     1       2.493   6.923  19.327  0.00  0.00    +0.000 A 
ATOM     11  C   UNL     1       2.650   7.410  18.033  0.00  0.00    +0.000 A 
ATOM     12  C   UNL     1       2.113   8.652  17.691  0.00  0.00    +0.000 A 
ATOM     13  C   UNL     1       1.397   9.403  18.637  0.00  0.00    +0.000 A 
ATOM     14  C   UNL     1       1.207   8.941  19.947  0.00  0.00    +0.000 A 
ATOM     15  C   UNL     1       1.773   7.692  20.265  0.00  0.00    +0.000 A 
BRANCH  14  16
ATOM     16  C   UNL     1       0.437   9.728  20.949  0.00  0.00    +0.000 A 
ATOM     17  C   UNL     1      -0.019  11.034  20.673  0.00  0.00    +0.000 A 
ATOM     18  C   UNL     1      -0.728  11.783  21.619  0.00  0.00    +0.000 A 
ATOM     19  C   UNL     1      -1.004  11.240  22.870  0.00  0.00    +0.000 A 
ATOM     20  C   UNL     1      -0.578   9.956  23.174  0.00  0.00    +0.000 A 
ATOM     21  C   UNL     1       0.139   9.211  22.221  0.00  0.00    +0.000 A 
ENDBRANCH  14  16
ENDBRANCH   9  10
BRANCH   4  22
ATOM     22  O   UNL     1       2.383   3.134  18.009  0.00  0.00    +0.000 OA
ATOM     23  H   UNL     1       1.505   3.518  18.178  0.00  0.00    +0.000 HD
ENDBRANCH   4  22
BRANCH   7  24
ATOM     24  O   UNL     1       6.381   4.075  18.874  0.00  0.00    +0.000 OA
ATOM     25  H   UNL     1       6.902   3.684  19.594  0.00  0.00    +0.000 HD
ENDBRANCH   7  24
TORSDOF 4
ENDMDL
MODEL 9
REMARK VINA RESULT:      -7.7      3.280      7.398
REMARK  Name = 
REMARK  5 active torsions:
REMARK  status: ('A' for Active; 'I' for Inactive)
REMARK    1  A    between atoms: C_1  and  C_2
REMARK    2  A    between atoms: C_4  and  O_5
REMARK    3  A    between atoms: C_8  and  O_9
REMARK    4  A    between atoms: C_11  and  C_12
REMARK    5  A    between atoms: C_16  and  C_17
REMARK                            x       y       z     vdW  Elec       q    Type
REMARK                         _______ _______ _______ _____ _____    ______ ____
ROOT
ATOM      1  C   UNL     1       1.376   5.218  21.013  0.00  0.00    +0.000 C 
ATOM      2  C   UNL     1       2.300   4.737  19.929  0.00  0.00    +0.000 A 
ATOM      3  C   UNL     1       2.406   3.282  19.857  0.00  0.00    +0.000 A 
ATOM      4  C   UNL     1       2.158   2.739  18.651  0.00  0.00    +0.000 A 
ATOM      5  C   UNL     1       3.495   2.456  18.056  0.00  0.00    +0.000 A 
ATOM      6  O   UNL     1       3.909   1.318  17.882  0.00  0.00    +0.000 OA
ATOM      7  C   UNL     1       4.237   3.707  17.613  0.00  0.00    +0.000 A 
ATOM      8  C   UNL     1       3.980   4.956  18.062  0.00  0.00    +0.000 A 
ATOM      9  C   UNL     1       2.962   5.492  19.005  0.00  0.00    +0.000 A 
ENDROOT
BRANCH   9  10
ATOM     10  C   UNL     1       2.574   6.919  18.834  0.00  0.00    +0.000 A 
ATOM     11  C   UNL     1       2.827   7.638  17.670  0.00  0.00    +0.000 A 
ATOM     12  C   UNL     1       2.382   8.957  17.560  0.00  0.00    +0.000 A 
ATOM     13  C   UNL     1       1.662   9.555  18.607  0.00  0.00    +0.000 A 
ATOM     14  C   UNL     1       1.378   8.860  19.791  0.00  0.00    +0.000 A 
ATOM     15  C   UNL     1       1.852   7.538  19.877  0.00  0.00    +0.000 A 
BRANCH  14  16
ATOM     16  C   UNL     1       0.604   9.486  20.898  0.00  0.00    +0.000 A 
ATOM     17  C   UNL     1      -0.159  10.656  20.698  0.00  0.00    +0.000 A 
ATOM     18  C   UNL     1      -0.873  11.257  21.740  0.00  0.00    +0.000 A 
ATOM     19  C   UNL     1      -0.846  10.698  23.015  0.00  0.00    +0.000 A 
ATOM     20  C   UNL     1      -0.114   9.543  23.246  0.00  0.00    +0.000 A 
ATOM     21  C   UNL     1       0.607   8.948  22.196  0.00  0.00    +0.000 A 
ENDBRANCH  14  16
ENDBRANCH   9  10
BRANCH   4  22
ATOM     22  O   UNL     1       1.187   3.295  17.813  0.00  0.00    +0.000 OA
ATOM     23  H   UNL     1       1.340   2.948  16.916  0.00  0.00    +0.000 HD
ENDBRANCH   4  22
BRANCH   7  24
ATOM     24  O   UNL     1       5.214   3.502  16.646  0.00  0.00    +0.000 OA
ATOM     25  H   UNL     1       5.892   4.190  16.741  0.00  0.00    +0.000 HD
ENDBRANCH   7  24
TORSDOF 4
ENDMDL
