MODEL 1
REMARK VINA RESULT:      -8.0      0.000      0.000
REMARK  Name = 
REMARK  11 active torsions:
REMARK  status: ('A' for Active; 'I' for Inactive)
REMARK    1  A    between atoms: C_1  and  C_2
REMARK    2  A    between atoms: C_2  and  O_3
REMARK    3  A    between atoms: O_3  and  C_4
REMARK    4  A    between atoms: C_6  and  C_7
REMARK    5  A    between atoms: N_8  and  N_9
REMARK    6  A    between atoms: C_10  and  C_12
REMARK    7  A    between atoms: C_12  and  S_13
REMARK    8  A    between atoms: S_13  and  C_14
REMARK    9  A    between atoms: C_16  and  C_17
REMARK   10  A    between atoms: C_27  and  O_28
REMARK   11  A    between atoms: O_28  and  C_29
REMARK                            x       y       z     vdW  Elec       q    Type
REMARK                         _______ _______ _______ _____ _____    ______ ____
ROOT
ATOM      1  N   UNL     1       7.236   6.331  16.969  0.00  0.00    +0.000 N 
ATOM      2  C   UNL     1       7.282   5.438  15.867  0.00  0.00    +0.000 C 
ATOM      3  O   UNL     1       7.830   5.722  14.798  0.00  0.00    +0.000 OA
ATOM      4  H   UNL     1       7.125   5.919  17.914  0.00  0.00    +0.000 HD
ENDROOT
BRANCH   1   6
ATOM      5  C   UNL     1       8.076   8.169  18.169  0.00  0.00    +0.000 C 
ATOM      6  N   UNL     1       7.668   7.689  17.025  0.00  0.00    +0.000 NA
BRANCH   5   9
ATOM      7  C   UNL     1       9.764  11.394  19.701  0.00  0.00    +0.000 A 
ATOM      8  C   UNL     1       9.314  10.020  19.581  0.00  0.00    +0.000 A 
ATOM      9  C   UNL     1       8.581   9.570  18.461  0.00  0.00    +0.000 A 
ATOM     10  C   UNL     1       8.253  10.524  17.490  0.00  0.00    +0.000 A 
ATOM     11  C   UNL     1       8.646  11.854  17.613  0.00  0.00    +0.000 A 
ATOM     12  C   UNL     1       9.399  12.301  18.714  0.00  0.00    +0.000 A 
BRANCH  12  13
ATOM     13  O   UNL     1       9.634  13.647  18.609  0.00  0.00    +0.000 OA
ATOM     14  C   UNL     1      10.588  14.192  17.728  0.00  0.00    +0.000 C 
ENDBRANCH  12  13
BRANCH   7  15
ATOM     15  O   UNL     1      10.444  11.859  20.815  0.00  0.00    +0.000 OA
BRANCH  15  17
ATOM     16  C   UNL     1       8.540  11.885  22.333  0.00  0.00    +0.000 C 
ATOM     17  C   UNL     1       9.695  12.672  21.725  0.00  0.00    +0.000 C 
ENDBRANCH  15  17
ENDBRANCH   7  15
ENDBRANCH   5   9
ENDBRANCH   1   6
BRANCH   2  18
ATOM     18  C   UNL     1       6.504   4.127  16.048  0.00  0.00    +0.000 C 
BRANCH  18  19
ATOM     19  S   UNL     1       4.794   3.982  16.724  0.00  0.00    +0.000 S 
BRANCH  19  20
ATOM     20  C   UNL     1       4.353   4.382  18.428  0.00  0.00    +0.000 A 
ATOM     21  C   UNL     1       4.763   3.290  19.184  0.00  0.00    +0.000 A 
ATOM     22  C   UNL     1       3.672   2.654  19.723  0.00  0.00    +0.000 A 
ATOM     23  C   UNL     1       2.821   1.832  18.774  0.00  0.00    +0.000 C 
ATOM     24  N   UNL     1       2.871   3.375  20.517  0.00  0.00    +0.000 NA
ATOM     25  C   UNL     1       2.692   4.641  20.148  0.00  0.00    +0.000 A 
ATOM     26  C   UNL     1       1.641   5.282  20.756  0.00  0.00    +0.000 A 
ATOM     27  C   UNL     1       1.389   6.630  20.554  0.00  0.00    +0.000 A 
ATOM     28  C   UNL     1       2.281   7.344  19.752  0.00  0.00    +0.000 A 
ATOM     29  C   UNL     1       3.288   6.682  19.012  0.00  0.00    +0.000 A 
ATOM     30  C   UNL     1       3.454   5.272  19.109  0.00  0.00    +0.000 A 
ENDBRANCH  19  20
ENDBRANCH  18  19
ENDBRANCH   2  18
TORSDOF 8
ENDMDL
MODEL 2
REMARK VINA RESULT:      -8.0      1.893      3.003
REMARK  Name = 
REMARK  11 active torsions:
REMARK  status: ('A' for Active; 'I' for Inactive)
REMARK    1  A    between atoms: C_1  and  C_2
REMARK    2  A    between atoms: C_2  and  O_3
REMARK    3  A    between atoms: O_3  and  C_4
REMARK    4  A    between atoms: C_6  and  C_7
REMARK    5  A    between atoms: N_8  and  N_9
REMARK    6  A    between atoms: C_10  and  C_12
REMARK    7  A    between atoms: C_12  and  S_13
REMARK    8  A    between atoms: S_13  and  C_14
REMARK    9  A    between atoms: C_16  and  C_17
REMARK   10  A    between atoms: C_27  and  O_28
REMARK   11  A    between atoms: O_28  and  C_29
REMARK                            x       y       z     vdW  Elec       q    Type
REMARK                         _______ _______ _______ _____ _____    ______ ____
ROOT
ATOM      1  N   UNL     1       8.305   7.988  18.586  0.00  0.00    +0.000 N 
ATOM      2  C   UNL     1       7.535   7.042  17.863  0.00  0.00    +0.000 C 
ATOM      3  O   UNL     1       7.159   7.233  16.703  0.00  0.00    +0.000 OA
ATOM      4  H   UNL     1       8.896   7.633  19.361  0.00  0.00    +0.000 HD
ENDROOT
BRANCH   1   6
ATOM      5  C   UNL     1       9.286  10.070  19.069  0.00  0.00    +0.000 C 
ATOM      6  N   UNL     1       8.671   9.312  18.200  0.00  0.00    +0.000 NA
BRANCH   5   9
ATOM      7  C   UNL     1      10.082  13.924  19.396  0.00  0.00    +0.000 A 
ATOM      8  C   UNL     1       9.512  12.623  19.688  0.00  0.00    +0.000 A 
ATOM      9  C   UNL     1       9.770  11.495  18.878  0.00  0.00    +0.000 A 
ATOM     10  C   UNL     1      10.558  11.698  17.738  0.00  0.00    +0.000 A 
ATOM     11  C   UNL     1      11.078  12.951  17.425  0.00  0.00    +0.000 A 
ATOM     12  C   UNL     1      10.846  14.070  18.244  0.00  0.00    +0.000 A 
BRANCH  12  13
ATOM     13  O   UNL     1      11.445  15.180  17.707  0.00  0.00    +0.000 OA
ATOM     14  C   UNL     1      10.735  16.168  16.999  0.00  0.00    +0.000 C 
ENDBRANCH  12  13
BRANCH   7  15
ATOM     15  O   UNL     1       9.801  15.047  20.156  0.00  0.00    +0.000 OA
BRANCH  15  17
ATOM     16  C   UNL     1      11.453  16.633  20.985  0.00  0.00    +0.000 C 
ATOM     17  C   UNL     1      10.702  15.330  21.232  0.00  0.00    +0.000 C 
ENDBRANCH  15  17
ENDBRANCH   7  15
ENDBRANCH   5   9
ENDBRANCH   1   6
BRANCH   2  18
ATOM     18  C   UNL     1       7.098   5.803  18.656  0.00  0.00    +0.000 C 
BRANCH  18  19
ATOM     19  S   UNL     1       6.218   4.341  17.955  0.00  0.00    +0.000 S 
BRANCH  19  20
ATOM     20  C   UNL     1       4.482   3.965  18.283  0.00  0.00    +0.000 A 
ATOM     21  C   UNL     1       3.777   4.506  17.214  0.00  0.00    +0.000 A 
ATOM     22  C   UNL     1       2.976   5.532  17.649  0.00  0.00    +0.000 A 
ATOM     23  C   UNL     1       3.668   6.834  18.009  0.00  0.00    +0.000 C 
ATOM     24  N   UNL     1       2.066   5.247  18.587  0.00  0.00    +0.000 NA
ATOM     25  C   UNL     1       2.455   4.371  19.512  0.00  0.00    +0.000 A 
ATOM     26  C   UNL     1       1.667   4.319  20.635  0.00  0.00    +0.000 A 
ATOM     27  C   UNL     1       1.882   3.388  21.639  0.00  0.00    +0.000 A 
ATOM     28  C   UNL     1       2.899   2.452  21.448  0.00  0.00    +0.000 A 
ATOM     29  C   UNL     1       3.805   2.567  20.369  0.00  0.00    +0.000 A 
ATOM     30  C   UNL     1       3.670   3.614  19.414  0.00  0.00    +0.000 A 
ENDBRANCH  19  20
ENDBRANCH  18  19
ENDBRANCH   2  18
TORSDOF 8
ENDMDL
MODEL 3
REMARK VINA RESULT:      -7.7      1.402      2.165
REMARK  Name = 
REMARK  11 active torsions:
REMARK  status: ('A' for Active; 'I' for Inactive)
REMARK    1  A    between atoms: C_1  and  C_2
REMARK    2  A    between atoms: C_2  and  O_3
REMARK    3  A    between atoms: O_3  and  C_4
REMARK    4  A    between atoms: C_6  and  C_7
REMARK    5  A    between atoms: N_8  and  N_9
REMARK    6  A    between atoms: C_10  and  C_12
REMARK    7  A    between atoms: C_12  and  S_13
REMARK    8  A    between atoms: S_13  and  C_14
REMARK    9  A    between atoms: C_16  and  C_17
REMARK   10  A    between atoms: C_27  and  O_28
REMARK   11  A    between atoms: O_28  and  C_29
REMARK                            x       y       z     vdW  Elec       q    Type
REMARK                         _______ _______ _______ _____ _____    ______ ____
ROOT
ATOM      1  N   UNL     1       6.917   6.921  16.625  0.00  0.00    +0.000 N 
ATOM      2  C   UNL     1       6.904   5.948  15.592  0.00  0.00    +0.000 C 
ATOM      3  O   UNL     1       7.910   5.650  14.942  0.00  0.00    +0.000 OA
ATOM      4  H   UNL     1       6.189   6.848  17.360  0.00  0.00    +0.000 HD
ENDROOT
BRANCH   1   6
ATOM      5  C   UNL     1       7.725   8.772  17.829  0.00  0.00    +0.000 C 
ATOM      6  N   UNL     1       7.984   7.784  17.013  0.00  0.00    +0.000 NA
BRANCH   5   9
ATOM      7  C   UNL     1       9.895  11.170  20.094  0.00  0.00    +0.000 A 
ATOM      8  C   UNL     1       8.894  10.190  19.719  0.00  0.00    +0.000 A 
ATOM      9  C   UNL     1       8.695   9.802  18.375  0.00  0.00    +0.000 A 
ATOM     10  C   UNL     1       9.470  10.448  17.406  0.00  0.00    +0.000 A 
ATOM     11  C   UNL     1      10.408  11.420  17.750  0.00  0.00    +0.000 A 
ATOM     12  C   UNL     1      10.627  11.789  19.088  0.00  0.00    +0.000 A 
BRANCH  12  13
ATOM     13  O   UNL     1      11.578  12.774  19.155  0.00  0.00    +0.000 OA
ATOM     14  C   UNL     1      11.929  13.577  18.053  0.00  0.00    +0.000 C 
ENDBRANCH  12  13
BRANCH   7  15
ATOM     15  O   UNL     1      10.069  11.593  21.401  0.00  0.00    +0.000 OA
BRANCH  15  17
ATOM     16  C   UNL     1       8.343  11.874  23.096  0.00  0.00    +0.000 C 
ATOM     17  C   UNL     1       9.082  12.494  21.917  0.00  0.00    +0.000 C 
ENDBRANCH  15  17
ENDBRANCH   7  15
ENDBRANCH   5   9
ENDBRANCH   1   6
BRANCH   2  18
ATOM     18  C   UNL     1       5.525   5.364  15.254  0.00  0.00    +0.000 C 
BRANCH  18  19
ATOM     19  S   UNL     1       4.601   4.141  16.280  0.00  0.00    +0.000 S 
BRANCH  19  20
ATOM     20  C   UNL     1       3.376   4.601  17.524  0.00  0.00    +0.000 A 
ATOM     21  C   UNL     1       3.670   5.916  17.867  0.00  0.00    +0.000 A 
ATOM     22  C   UNL     1       4.086   5.980  19.174  0.00  0.00    +0.000 A 
ATOM     23  C   UNL     1       5.479   5.461  19.475  0.00  0.00    +0.000 C 
ATOM     24  N   UNL     1       3.241   5.532  20.111  0.00  0.00    +0.000 NA
ATOM     25  C   UNL     1       2.529   4.459  19.771  0.00  0.00    +0.000 A 
ATOM     26  C   UNL     1       1.914   3.814  20.815  0.00  0.00    +0.000 A 
ATOM     27  C   UNL     1       1.056   2.744  20.611  0.00  0.00    +0.000 A 
ATOM     28  C   UNL     1       0.783   2.373  19.294  0.00  0.00    +0.000 A 
ATOM     29  C   UNL     1       1.504   2.932  18.213  0.00  0.00    +0.000 A 
ATOM     30  C   UNL     1       2.491   3.932  18.437  0.00  0.00    +0.000 A 
ENDBRANCH  19  20
ENDBRANCH  18  19
ENDBRANCH   2  18
TORSDOF 8
ENDMDL
MODEL 4
REMARK VINA RESULT:      -7.6      7.437     10.105
REMARK  Name = 
REMARK  11 active torsions:
REMARK  status: ('A' for Active; 'I' for Inactive)
REMARK    1  A    between atoms: C_1  and  C_2
REMARK    2  A    between atoms: C_2  and  O_3
REMARK    3  A    between atoms: O_3  and  C_4
REMARK    4  A    between atoms: C_6  and  C_7
REMARK    5  A    between atoms: N_8  and  N_9
REMARK    6  A    between atoms: C_10  and  C_12
REMARK    7  A    between atoms: C_12  and  S_13
REMARK    8  A    between atoms: S_13  and  C_14
REMARK    9  A    between atoms: C_16  and  C_17
REMARK   10  A    between atoms: C_27  and  O_28
REMARK   11  A    between atoms: O_28  and  C_29
REMARK                            x       y       z     vdW  Elec       q    Type
REMARK                         _______ _______ _______ _____ _____    ______ ____
ROOT
ATOM      1  N   UNL     1       0.908   9.700  21.841  0.00  0.00    +0.000 N 
ATOM      2  C   UNL     1       0.614   8.399  21.357  0.00  0.00    +0.000 C 
ATOM      3  O   UNL     1      -0.453   7.824  21.591  0.00  0.00    +0.000 OA
ATOM      4  H   UNL     1       1.605  10.260  21.315  0.00  0.00    +0.000 HD
ENDROOT
BRANCH   1   6
ATOM      5  C   UNL     1      -0.766  11.302  22.243  0.00  0.00    +0.000 C 
ATOM      6  N   UNL     1       0.143  10.504  22.738  0.00  0.00    +0.000 NA
BRANCH   5   9
ATOM      7  C   UNL     1      -3.768  12.978  24.184  0.00  0.00    +0.000 A 
ATOM      8  C   UNL     1      -3.016  11.994  23.430  0.00  0.00    +0.000 A 
ATOM      9  C   UNL     1      -1.692  12.234  22.999  0.00  0.00    +0.000 A 
ATOM     10  C   UNL     1      -1.151  13.494  23.282  0.00  0.00    +0.000 A 
ATOM     11  C   UNL     1      -1.878  14.462  23.971  0.00  0.00    +0.000 A 
ATOM     12  C   UNL     1      -3.186  14.217  24.425  0.00  0.00    +0.000 A 
BRANCH  12  13
ATOM     13  O   UNL     1      -3.685  15.330  25.050  0.00  0.00    +0.000 OA
ATOM     14  C   UNL     1      -4.525  16.259  24.407  0.00  0.00    +0.000 C 
ENDBRANCH  12  13
BRANCH   7  15
ATOM     15  O   UNL     1      -5.082  12.773  24.572  0.00  0.00    +0.000 OA
BRANCH  15  17
ATOM     16  C   UNL     1      -7.332  13.603  24.148  0.00  0.00    +0.000 C 
ATOM     17  C   UNL     1      -6.081  12.958  23.563  0.00  0.00    +0.000 C 
ENDBRANCH  15  17
ENDBRANCH   7  15
ENDBRANCH   5   9
ENDBRANCH   1   6
BRANCH   2  18
ATOM     18  C   UNL     1       1.758   7.699  20.612  0.00  0.00    +0.000 C 
BRANCH  18  19
ATOM     19  S   UNL     1       1.815   5.905  20.183  0.00  0.00    +0.000 S 
BRANCH  19  20
ATOM     20  C   UNL     1       2.335   5.277  18.572  0.00  0.00    +0.000 A 
ATOM     21  C   UNL     1       1.572   4.136  18.354  0.00  0.00    +0.000 A 
ATOM     22  C   UNL     1       2.379   3.026  18.336  0.00  0.00    +0.000 A 
ATOM     23  C   UNL     1       2.924   2.555  19.672  0.00  0.00    +0.000 C 
ATOM     24  N   UNL     1       3.361   2.994  17.427  0.00  0.00    +0.000 NA
ATOM     25  C   UNL     1       3.959   4.161  17.193  0.00  0.00    +0.000 A 
ATOM     26  C   UNL     1       5.153   4.079  16.520  0.00  0.00    +0.000 A 
ATOM     27  C   UNL     1       5.843   5.210  16.112  0.00  0.00    +0.000 A 
ATOM     28  C   UNL     1       5.253   6.452  16.353  0.00  0.00    +0.000 A 
ATOM     29  C   UNL     1       4.096   6.567  17.158  0.00  0.00    +0.000 A 
ATOM     30  C   UNL     1       3.468   5.411  17.699  0.00  0.00    +0.000 A 
ENDBRANCH  19  20
ENDBRANCH  18  19
ENDBRANCH   2  18
TORSDOF 8
ENDMDL
MODEL 5
REMARK VINA RESULT:      -7.5      5.219      8.833
REMARK  Name = 
REMARK  11 active torsions:
REMARK  status: ('A' for Active; 'I' for Inactive)
REMARK    1  A    between atoms: C_1  and  C_2
REMARK    2  A    between atoms: C_2  and  O_3
REMARK    3  A    between atoms: O_3  and  C_4
REMARK    4  A    between atoms: C_6  and  C_7
REMARK    5  A    between atoms: N_8  and  N_9
REMARK    6  A    between atoms: C_10  and  C_12
REMARK    7  A    between atoms: C_12  and  S_13
REMARK    8  A    between atoms: S_13  and  C_14
REMARK    9  A    between atoms: C_16  and  C_17
REMARK   10  A    between atoms: C_27  and  O_28
REMARK   11  A    between atoms: O_28  and  C_29
REMARK                            x       y       z     vdW  Elec       q    Type
REMARK                         _______ _______ _______ _____ _____    ______ ____
ROOT
ATOM      1  N   UNL     1       1.775  11.296  17.860  0.00  0.00    +0.000 N 
ATOM      2  C   UNL     1       2.205  12.603  18.204  0.00  0.00    +0.000 C 
ATOM      3  O   UNL     1       3.393  12.938  18.202  0.00  0.00    +0.000 OA
ATOM      4  H   UNL     1       0.805  11.187  17.510  0.00  0.00    +0.000 HD
ENDROOT
BRANCH   1   6
ATOM      5  C   UNL     1       2.179   8.986  18.042  0.00  0.00    +0.000 C 
ATOM      6  N   UNL     1       2.573  10.145  17.586  0.00  0.00    +0.000 NA
BRANCH   5   9
ATOM      7  C   UNL     1       4.663   6.021  17.250  0.00  0.00    +0.000 A 
ATOM      8  C   UNL     1       4.127   7.367  17.312  0.00  0.00    +0.000 A 
ATOM      9  C   UNL     1       2.859   7.642  17.869  0.00  0.00    +0.000 A 
ATOM     10  C   UNL     1       2.108   6.545  18.311  0.00  0.00    +0.000 A 
ATOM     11  C   UNL     1       2.596   5.244  18.221  0.00  0.00    +0.000 A 
ATOM     12  C   UNL     1       3.869   4.969  17.692  0.00  0.00    +0.000 A 
BRANCH  12  13
ATOM     13  O   UNL     1       4.099   3.619  17.694  0.00  0.00    +0.000 OA
ATOM     14  C   UNL     1       3.079   2.667  17.883  0.00  0.00    +0.000 C 
ENDBRANCH  12  13
BRANCH   7  15
ATOM     15  O   UNL     1       5.885   5.732  16.666  0.00  0.00    +0.000 OA
BRANCH  15  17
ATOM     16  C   UNL     1       7.450   5.896  18.524  0.00  0.00    +0.000 C 
ATOM     17  C   UNL     1       7.018   6.447  17.171  0.00  0.00    +0.000 C 
ENDBRANCH  15  17
ENDBRANCH   7  15
ENDBRANCH   5   9
ENDBRANCH   1   6
BRANCH   2  18
ATOM     18  C   UNL     1       1.102  13.553  18.690  0.00  0.00    +0.000 C 
BRANCH  18  19
ATOM     19  S   UNL     1      -0.680  13.116  18.880  0.00  0.00    +0.000 S 
BRANCH  19  20
ATOM     20  C   UNL     1      -1.311  12.025  20.173  0.00  0.00    +0.000 A 
ATOM     21  C   UNL     1      -2.384  12.702  20.739  0.00  0.00    +0.000 A 
ATOM     22  C   UNL     1      -2.100  13.031  22.041  0.00  0.00    +0.000 A 
ATOM     23  C   UNL     1      -1.113  14.162  22.261  0.00  0.00    +0.000 C 
ATOM     24  N   UNL     1      -1.811  12.028  22.879  0.00  0.00    +0.000 NA
ATOM     25  C   UNL     1      -1.098  11.033  22.354  0.00  0.00    +0.000 A 
ATOM     26  C   UNL     1      -0.532  10.177  23.265  0.00  0.00    +0.000 A 
ATOM     27  C   UNL     1       0.151   9.036  22.873  0.00  0.00    +0.000 A 
ATOM     28  C   UNL     1       0.197   8.745  21.509  0.00  0.00    +0.000 A 
ATOM     29  C   UNL     1      -0.260   9.676  20.547  0.00  0.00    +0.000 A 
ATOM     30  C   UNL     1      -0.832  10.915  20.949  0.00  0.00    +0.000 A 
ENDBRANCH  19  20
ENDBRANCH  18  19
ENDBRANCH   2  18
TORSDOF 8
ENDMDL
MODEL 6
REMARK VINA RESULT:      -7.4      1.381      2.273
REMARK  Name = 
REMARK  11 active torsions:
REMARK  status: ('A' for Active; 'I' for Inactive)
REMARK    1  A    between atoms: C_1  and  C_2
REMARK    2  A    between atoms: C_2  and  O_3
REMARK    3  A    between atoms: O_3  and  C_4
REMARK    4  A    between atoms: C_6  and  C_7
REMARK    5  A    between atoms: N_8  and  N_9
REMARK    6  A    between atoms: C_10  and  C_12
REMARK    7  A    between atoms: C_12  and  S_13
REMARK    8  A    between atoms: S_13  and  C_14
REMARK    9  A    between atoms: C_16  and  C_17
REMARK   10  A    between atoms: C_27  and  O_28
REMARK   11  A    between atoms: O_28  and  C_29
REMARK                            x       y       z     vdW  Elec       q    Type
REMARK                         _______ _______ _______ _____ _____    ______ ____
ROOT
ATOM      1  N   UNL     1       6.738   6.279  16.598  0.00  0.00    +0.000 N 
ATOM      2  C   UNL     1       6.868   5.247  15.633  0.00  0.00    +0.000 C 
ATOM      3  O   UNL     1       7.724   5.268  14.744  0.00  0.00    +0.000 OA
ATOM      4  H   UNL     1       6.297   6.035  17.504  0.00  0.00    +0.000 HD
ENDROOT
BRANCH   1   6
ATOM      5  C   UNL     1       7.497   8.148  17.807  0.00  0.00    +0.000 C 
ATOM      6  N   UNL     1       7.433   7.524  16.661  0.00  0.00    +0.000 NA
BRANCH   5   9
ATOM      7  C   UNL     1       8.692  11.910  17.906  0.00  0.00    +0.000 A 
ATOM      8  C   UNL     1       7.986  10.717  17.478  0.00  0.00    +0.000 A 
ATOM      9  C   UNL     1       8.181   9.468  18.107  0.00  0.00    +0.000 A 
ATOM     10  C   UNL     1       9.133   9.414  19.132  0.00  0.00    +0.000 A 
ATOM     11  C   UNL     1       9.846  10.544  19.526  0.00  0.00    +0.000 A 
ATOM     12  C   UNL     1       9.635  11.795  18.920  0.00  0.00    +0.000 A 
BRANCH  12  13
ATOM     13  O   UNL     1      10.471  12.732  19.469  0.00  0.00    +0.000 OA
ATOM     14  C   UNL     1      11.436  13.432  18.720  0.00  0.00    +0.000 C 
ENDBRANCH  12  13
BRANCH   7  15
ATOM     15  O   UNL     1       8.545  13.131  17.268  0.00  0.00    +0.000 OA
BRANCH  15  17
ATOM     16  C   UNL     1       8.086  15.428  17.933  0.00  0.00    +0.000 C 
ATOM     17  C   UNL     1       7.546  14.010  17.797  0.00  0.00    +0.000 C 
ENDBRANCH  15  17
ENDBRANCH   7  15
ENDBRANCH   5   9
ENDBRANCH   1   6
BRANCH   2  18
ATOM     18  C   UNL     1       5.799   4.148  15.695  0.00  0.00    +0.000 C 
BRANCH  18  19
ATOM     19  S   UNL     1       4.353   4.126  16.840  0.00  0.00    +0.000 S 
BRANCH  19  20
ATOM     20  C   UNL     1       4.076   5.362  18.127  0.00  0.00    +0.000 A 
ATOM     21  C   UNL     1       4.395   4.731  19.323  0.00  0.00    +0.000 A 
ATOM     22  C   UNL     1       3.271   4.597  20.100  0.00  0.00    +0.000 A 
ATOM     23  C   UNL     1       2.265   3.545  19.672  0.00  0.00    +0.000 C 
ATOM     24  N   UNL     1       2.618   5.717  20.434  0.00  0.00    +0.000 NA
ATOM     25  C   UNL     1       2.573   6.655  19.489  0.00  0.00    +0.000 A 
ATOM     26  C   UNL     1       1.650   7.650  19.699  0.00  0.00    +0.000 A 
ATOM     27  C   UNL     1       1.555   8.749  18.859  0.00  0.00    +0.000 A 
ATOM     28  C   UNL     1       2.475   8.849  17.815  0.00  0.00    +0.000 A 
ATOM     29  C   UNL     1       3.343   7.778  17.500  0.00  0.00    +0.000 A 
ATOM     30  C   UNL     1       3.339   6.586  18.278  0.00  0.00    +0.000 A 
ENDBRANCH  19  20
ENDBRANCH  18  19
ENDBRANCH   2  18
TORSDOF 8
ENDMDL
MODEL 7
REMARK VINA RESULT:      -7.4      6.856     10.008
REMARK  Name = 
REMARK  11 active torsions:
REMARK  status: ('A' for Active; 'I' for Inactive)
REMARK    1  A    between atoms: C_1  and  C_2
REMARK    2  A    between atoms: C_2  and  O_3
REMARK    3  A    between atoms: O_3  and  C_4
REMARK    4  A    between atoms: C_6  and  C_7
REMARK    5  A    between atoms: N_8  and  N_9
REMARK    6  A    between atoms: C_10  and  C_12
REMARK    7  A    between atoms: C_12  and  S_13
REMARK    8  A    between atoms: S_13  and  C_14
REMARK    9  A    between atoms: C_16  and  C_17
REMARK   10  A    between atoms: C_27  and  O_28
REMARK   11  A    between atoms: O_28  and  C_29
REMARK                            x       y       z     vdW  Elec       q    Type
REMARK                         _______ _______ _______ _____ _____    ______ ____
ROOT
ATOM      1  N   UNL     1       0.813  10.186  17.791  0.00  0.00    +0.000 N 
ATOM      2  C   UNL     1       0.427  11.002  18.885  0.00  0.00    +0.000 C 
ATOM      3  O   UNL     1       1.081  11.073  19.930  0.00  0.00    +0.000 OA
ATOM      4  H   UNL     1       0.472  10.454  16.849  0.00  0.00    +0.000 HD
ENDROOT
BRANCH   1   6
ATOM      5  C   UNL     1       1.818   8.164  18.448  0.00  0.00    +0.000 C 
ATOM      6  N   UNL     1       1.887   9.248  17.722  0.00  0.00    +0.000 NA
BRANCH   5   9
ATOM      7  C   UNL     1       4.885   5.724  17.967  0.00  0.00    +0.000 A 
ATOM      8  C   UNL     1       3.986   6.840  17.743  0.00  0.00    +0.000 A 
ATOM      9  C   UNL     1       2.829   7.037  18.529  0.00  0.00    +0.000 A 
ATOM     10  C   UNL     1       2.552   6.071  19.505  0.00  0.00    +0.000 A 
ATOM     11  C   UNL     1       3.387   4.974  19.703  0.00  0.00    +0.000 A 
ATOM     12  C   UNL     1       4.554   4.790  18.940  0.00  0.00    +0.000 A 
BRANCH  12  13
ATOM     13  O   UNL     1       5.183   3.631  19.313  0.00  0.00    +0.000 OA
ATOM     14  C   UNL     1       4.492   2.510  19.813  0.00  0.00    +0.000 C 
ENDBRANCH  12  13
BRANCH   7  15
ATOM     15  O   UNL     1       5.998   5.495  17.174  0.00  0.00    +0.000 OA
BRANCH  15  17
ATOM     16  C   UNL     1       7.831   6.289  18.567  0.00  0.00    +0.000 C 
ATOM     17  C   UNL     1       7.056   6.456  17.266  0.00  0.00    +0.000 C 
ENDBRANCH  15  17
ENDBRANCH   7  15
ENDBRANCH   5   9
ENDBRANCH   1   6
BRANCH   2  18
ATOM     18  C   UNL     1      -0.924  11.714  18.732  0.00  0.00    +0.000 C 
BRANCH  18  19
ATOM     19  S   UNL     1      -1.749  12.733  20.030  0.00  0.00    +0.000 S 
BRANCH  19  20
ATOM     20  C   UNL     1      -3.530  13.017  20.098  0.00  0.00    +0.000 A 
ATOM     21  C   UNL     1      -3.714  13.989  21.076  0.00  0.00    +0.000 A 
ATOM     22  C   UNL     1      -4.401  13.461  22.141  0.00  0.00    +0.000 A 
ATOM     23  C   UNL     1      -3.634  12.518  23.049  0.00  0.00    +0.000 C 
ATOM     24  N   UNL     1      -5.612  12.946  21.897  0.00  0.00    +0.000 NA
ATOM     25  C   UNL     1      -5.735  12.300  20.739  0.00  0.00    +0.000 A 
ATOM     26  C   UNL     1      -6.850  11.508  20.629  0.00  0.00    +0.000 A 
ATOM     27  C   UNL     1      -7.171  10.855  19.449  0.00  0.00    +0.000 A 
ATOM     28  C   UNL     1      -6.351  11.074  18.342  0.00  0.00    +0.000 A 
ATOM     29  C   UNL     1      -5.129  11.774  18.466  0.00  0.00    +0.000 A 
ATOM     30  C   UNL     1      -4.728  12.323  19.716  0.00  0.00    +0.000 A 
ENDBRANCH  19  20
ENDBRANCH  18  19
ENDBRANCH   2  18
TORSDOF 8
ENDMDL
MODEL 8
REMARK VINA RESULT:      -7.4      6.199      9.399
REMARK  Name = 
REMARK  11 active torsions:
REMARK  status: ('A' for Active; 'I' for Inactive)
REMARK    1  A    between atoms: C_1  and  C_2
REMARK    2  A    between atoms: C_2  and  O_3
REMARK    3  A    between atoms: O_3  and  C_4
REMARK    4  A    between atoms: C_6  and  C_7
REMARK    5  A    between atoms: N_8  and  N_9
REMARK    6  A    between atoms: C_10  and  C_12
REMARK    7  A    between atoms: C_12  and  S_13
REMARK    8  A    between atoms: S_13  and  C_14
REMARK    9  A    between atoms: C_16  and  C_17
REMARK   10  A    between atoms: C_27  and  O_28
REMARK   11  A    between atoms: O_28  and  C_29
REMARK                            x       y       z     vdW  Elec       q    Type
REMARK                         _______ _______ _______ _____ _____    ______ ____
ROOT
ATOM      1  N   UNL     1       1.098  10.283  17.916  0.00  0.00    +0.000 N 
ATOM      2  C   UNL     1       1.605  11.564  18.254  0.00  0.00    +0.000 C 
ATOM      3  O   UNL     1       2.774  11.898  18.039  0.00  0.00    +0.000 OA
ATOM      4  H   UNL     1       0.076  10.199  17.759  0.00  0.00    +0.000 HD
ENDROOT
BRANCH   1   6
ATOM      5  C   UNL     1       2.216   8.243  18.256  0.00  0.00    +0.000 C 
ATOM      6  N   UNL     1       1.810   9.154  17.412  0.00  0.00    +0.000 NA
BRANCH   5   9
ATOM      7  C   UNL     1       4.900   5.535  17.227  0.00  0.00    +0.000 A 
ATOM      8  C   UNL     1       4.287   6.833  17.434  0.00  0.00    +0.000 A 
ATOM      9  C   UNL     1       2.978   6.968  17.948  0.00  0.00    +0.000 A 
ATOM     10  C   UNL     1       2.269   5.787  18.199  0.00  0.00    +0.000 A 
ATOM     11  C   UNL     1       2.833   4.535  17.967  0.00  0.00    +0.000 A 
ATOM     12  C   UNL     1       4.145   4.397  17.481  0.00  0.00    +0.000 A 
BRANCH  12  13
ATOM     13  O   UNL     1       4.451   3.071  17.320  0.00  0.00    +0.000 OA
ATOM     14  C   UNL     1       3.743   2.037  17.963  0.00  0.00    +0.000 C 
ENDBRANCH  12  13
BRANCH   7  15
ATOM     15  O   UNL     1       6.165   5.388  16.682  0.00  0.00    +0.000 OA
BRANCH  15  17
ATOM     16  C   UNL     1       7.555   5.638  18.666  0.00  0.00    +0.000 C 
ATOM     17  C   UNL     1       7.210   6.164  17.278  0.00  0.00    +0.000 C 
ENDBRANCH  15  17
ENDBRANCH   7  15
ENDBRANCH   5   9
ENDBRANCH   1   6
BRANCH   2  18
ATOM     18  C   UNL     1       0.634  12.479  19.012  0.00  0.00    +0.000 C 
BRANCH  18  19
ATOM     19  S   UNL     1      -1.082  12.895  18.477  0.00  0.00    +0.000 S 
BRANCH  19  20
ATOM     20  C   UNL     1      -2.513  11.841  18.794  0.00  0.00    +0.000 A 
ATOM     21  C   UNL     1      -2.155  10.579  18.334  0.00  0.00    +0.000 A 
ATOM     22  C   UNL     1      -2.936  10.230  17.261  0.00  0.00    +0.000 A 
ATOM     23  C   UNL     1      -2.643  10.927  15.945  0.00  0.00    +0.000 C 
ATOM     24  N   UNL     1      -4.260  10.193  17.451  0.00  0.00    +0.000 NA
ATOM     25  C   UNL     1      -4.748  11.139  18.252  0.00  0.00    +0.000 A 
ATOM     26  C   UNL     1      -6.110  11.305  18.195  0.00  0.00    +0.000 A 
ATOM     27  C   UNL     1      -6.777  12.177  19.042  0.00  0.00    +0.000 A 
ATOM     28  C   UNL     1      -6.025  12.846  20.008  0.00  0.00    +0.000 A 
ATOM     29  C   UNL     1      -4.612  12.793  19.999  0.00  0.00    +0.000 A 
ATOM     30  C   UNL     1      -3.919  12.010  19.035  0.00  0.00    +0.000 A 
ENDBRANCH  19  20
ENDBRANCH  18  19
ENDBRANCH   2  18
TORSDOF 8
ENDMDL
MODEL 9
REMARK VINA RESULT:      -7.4      6.433      9.630
REMARK  Name = 
REMARK  11 active torsions:
REMARK  status: ('A' for Active; 'I' for Inactive)
REMARK    1  A    between atoms: C_1  and  C_2
REMARK    2  A    between atoms: C_2  and  O_3
REMARK    3  A    between atoms: O_3  and  C_4
REMARK    4  A    between atoms: C_6  and  C_7
REMARK    5  A    between atoms: N_8  and  N_9
REMARK    6  A    between atoms: C_10  and  C_12
REMARK    7  A    between atoms: C_12  and  S_13
REMARK    8  A    between atoms: S_13  and  C_14
REMARK    9  A    between atoms: C_16  and  C_17
REMARK   10  A    between atoms: C_27  and  O_28
REMARK   11  A    between atoms: O_28  and  C_29
REMARK                            x       y       z     vdW  Elec       q    Type
REMARK                         _______ _______ _______ _____ _____    ______ ____
ROOT
ATOM      1  N   UNL     1       1.358  10.110  17.945  0.00  0.00    +0.000 N 
ATOM      2  C   UNL     1       0.951  10.536  19.235  0.00  0.00    +0.000 C 
ATOM      3  O   UNL     1       0.961   9.791  20.219  0.00  0.00    +0.000 OA
ATOM      4  H   UNL     1       1.691  10.837  17.284  0.00  0.00    +0.000 HD
ENDROOT
BRANCH   1   6
ATOM      5  C   UNL     1       2.900   8.339  17.828  0.00  0.00    +0.000 C 
ATOM      6  N   UNL     1       1.717   8.796  17.519  0.00  0.00    +0.000 NA
BRANCH   5   9
ATOM      7  C   UNL     1       3.706   4.489  17.481  0.00  0.00    +0.000 A 
ATOM      8  C   UNL     1       3.060   5.709  17.926  0.00  0.00    +0.000 A 
ATOM      9  C   UNL     1       3.489   6.983  17.490  0.00  0.00    +0.000 A 
ATOM     10  C   UNL     1       4.607   7.023  16.649  0.00  0.00    +0.000 A 
ATOM     11  C   UNL     1       5.260   5.860  16.246  0.00  0.00    +0.000 A 
ATOM     12  C   UNL     1       4.819   4.589  16.657  0.00  0.00    +0.000 A 
BRANCH  12  13
ATOM     13  O   UNL     1       5.640   3.619  16.145  0.00  0.00    +0.000 OA
ATOM     14  C   UNL     1       6.333   3.763  14.927  0.00  0.00    +0.000 C 
ENDBRANCH  12  13
BRANCH   7  15
ATOM     15  O   UNL     1       3.325   3.237  17.937  0.00  0.00    +0.000 OA
BRANCH  15  17
ATOM     16  C   UNL     1       4.349   2.308  19.941  0.00  0.00    +0.000 C 
ATOM     17  C   UNL     1       3.181   3.091  19.354  0.00  0.00    +0.000 C 
ENDBRANCH  15  17
ENDBRANCH   7  15
ENDBRANCH   5   9
ENDBRANCH   1   6
BRANCH   2  18
ATOM     18  C   UNL     1       0.385  11.961  19.311  0.00  0.00    +0.000 C 
BRANCH  18  19
ATOM     19  S   UNL     1      -1.194  12.527  18.544  0.00  0.00    +0.000 S 
BRANCH  19  20
ATOM     20  C   UNL     1      -2.750  11.621  18.671  0.00  0.00    +0.000 A 
ATOM     21  C   UNL     1      -2.505  10.379  18.096  0.00  0.00    +0.000 A 
ATOM     22  C   UNL     1      -3.249  10.234  16.952  0.00  0.00    +0.000 A 
ATOM     23  C   UNL     1      -2.797  11.022  15.737  0.00  0.00    +0.000 C 
ATOM     24  N   UNL     1      -4.579  10.333  17.067  0.00  0.00    +0.000 NA
ATOM     25  C   UNL     1      -5.010  11.243  17.939  0.00  0.00    +0.000 A 
ATOM     26  C   UNL     1      -6.338  11.571  17.830  0.00  0.00    +0.000 A 
ATOM     27  C   UNL     1      -6.958  12.424  18.730  0.00  0.00    +0.000 A 
ATOM     28  C   UNL     1      -6.200  12.900  19.801  0.00  0.00    +0.000 A 
ATOM     29  C   UNL     1      -4.804  12.684  19.860  0.00  0.00    +0.000 A 
ATOM     30  C   UNL     1      -4.142  11.927  18.854  0.00  0.00    +0.000 A 
ENDBRANCH  19  20
ENDBRANCH  18  19
ENDBRANCH   2  18
TORSDOF 8
ENDMDL
