MODEL 1
REMARK VINA RESULT:      -8.4      0.000      0.000
REMARK  Name = 
REMARK  5 active torsions:
REMARK  status: ('A' for Active; 'I' for Inactive)
REMARK    1  A    between atoms: C_1  and  C_2
REMARK    2  A    between atoms: N_5  and  C_6
REMARK    3  A    between atoms: C_6  and  C_7
REMARK    4  A    between atoms: C_6  and  C_13
REMARK    5  A    between atoms: C_22  and  O_23
REMARK                            x       y       z     vdW  Elec       q    Type
REMARK                         _______ _______ _______ _____ _____    ______ ____
ROOT
ATOM      1  C   UNL     1       3.188   5.798  18.236  0.00  0.00    +0.000 C 
ENDROOT
BRANCH   1   2
ATOM      2  C   UNL     1       2.654   7.071  18.873  0.00  0.00    +0.000 A 
ATOM      3  C   UNL     1       2.128   6.913  20.165  0.00  0.00    +0.000 A 
ATOM      4  C   UNL     1       1.655   8.007  20.853  0.00  0.00    +0.000 A 
ATOM      5  C   UNL     1       0.968   8.893  20.052  0.00  0.00    +0.000 A 
ATOM      6  C   UNL     1      -0.215   9.422  20.546  0.00  0.00    +0.000 A 
ATOM      7  C   UNL     1      -0.954  10.264  19.741  0.00  0.00    +0.000 A 
ATOM      8  C   UNL     1      -0.408  10.617  18.515  0.00  0.00    +0.000 A 
ATOM      9  N   UNL     1       0.758  10.113  18.024  0.00  0.00    +0.000 NA
ATOM     10  C   UNL     1       1.404   9.158  18.737  0.00  0.00    +0.000 A 
ATOM     11  C   UNL     1       2.423   8.301  18.245  0.00  0.00    +0.000 A 
BRANCH  11  12
ATOM     12  O   UNL     1       3.094   8.624  17.096  0.00  0.00    +0.000 OA
ATOM     13  H   UNL     1       4.036   8.550  17.316  0.00  0.00    +0.000 HD
ENDBRANCH  11  12
ENDBRANCH   1   2
BRANCH   1  18
ATOM     14  C   UNL     1       6.213   3.958  13.877  0.00  0.00    +0.000 C 
ATOM     15  C   UNL     1       5.984   4.472  15.240  0.00  0.00    +0.000 A 
ATOM     16  C   UNL     1       4.972   5.172  15.848  0.00  0.00    +0.000 A 
ATOM     17  C   UNL     1       5.350   5.260  17.214  0.00  0.00    +0.000 A 
ATOM     18  N   UNL     1       4.643   5.827  18.203  0.00  0.00    +0.000 N 
ATOM     19  N   UNL     1       6.574   4.724  17.384  0.00  0.00    +0.000 NA
ATOM     20  O   UNL     1       6.954   4.217  16.155  0.00  0.00    +0.000 OA
ATOM     21  H   UNL     1       5.072   5.850  19.121  0.00  0.00    +0.000 HD
ENDBRANCH   1  18
BRANCH   1  22
ATOM     22  C   UNL     1       2.566   4.482  18.700  0.00  0.00    +0.000 A 
ATOM     23  C   UNL     1       1.391   3.972  18.176  0.00  0.00    +0.000 A 
ATOM     24  C   UNL     1       0.926   2.750  18.646  0.00  0.00    +0.000 A 
ATOM     25  C   UNL     1       1.614   2.086  19.653  0.00  0.00    +0.000 A 
ATOM     26  C   UNL     1       2.758   2.673  20.151  0.00  0.00    +0.000 A 
ATOM     27  N   UNL     1       3.250   3.838  19.689  0.00  0.00    +0.000 NA
ENDBRANCH   1  22
TORSDOF 4
ENDMDL
MODEL 2
REMARK VINA RESULT:      -8.2      0.921      1.238
REMARK  Name = 
REMARK  5 active torsions:
REMARK  status: ('A' for Active; 'I' for Inactive)
REMARK    1  A    between atoms: C_1  and  C_2
REMARK    2  A    between atoms: N_5  and  C_6
REMARK    3  A    between atoms: C_6  and  C_7
REMARK    4  A    between atoms: C_6  and  C_13
REMARK    5  A    between atoms: C_22  and  O_23
REMARK                            x       y       z     vdW  Elec       q    Type
REMARK                         _______ _______ _______ _____ _____    ______ ____
ROOT
ATOM      1  C   UNL     1       2.946   5.882  18.983  0.00  0.00    +0.000 C 
ENDROOT
BRANCH   1   2
ATOM      2  C   UNL     1       2.409   7.257  19.349  0.00  0.00    +0.000 A 
ATOM      3  C   UNL     1       1.858   7.357  20.635  0.00  0.00    +0.000 A 
ATOM      4  C   UNL     1       1.380   8.567  21.087  0.00  0.00    +0.000 A 
ATOM      5  C   UNL     1       0.715   9.281  20.114  0.00  0.00    +0.000 A 
ATOM      6  C   UNL     1      -0.473   9.900  20.473  0.00  0.00    +0.000 A 
ATOM      7  C   UNL     1      -1.192  10.571  19.504  0.00  0.00    +0.000 A 
ATOM      8  C   UNL     1      -0.620  10.675  18.243  0.00  0.00    +0.000 A 
ATOM      9  N   UNL     1       0.551  10.080  17.883  0.00  0.00    +0.000 NA
ATOM     10  C   UNL     1       1.177   9.282  18.782  0.00  0.00    +0.000 A 
ATOM     11  C   UNL     1       2.199   8.341  18.488  0.00  0.00    +0.000 A 
BRANCH  11  12
ATOM     12  O   UNL     1       2.893   8.431  17.311  0.00  0.00    +0.000 OA
ATOM     13  H   UNL     1       3.421   9.242  17.382  0.00  0.00    +0.000 HD
ENDBRANCH  11  12
ENDBRANCH   1   2
BRANCH   1  18
ATOM     14  C   UNL     1       5.874   4.130  14.524  0.00  0.00    +0.000 C 
ATOM     15  C   UNL     1       5.676   4.618  15.901  0.00  0.00    +0.000 A 
ATOM     16  C   UNL     1       4.676   5.304  16.545  0.00  0.00    +0.000 A 
ATOM     17  C   UNL     1       5.085   5.366  17.903  0.00  0.00    +0.000 A 
ATOM     18  N   UNL     1       4.399   5.913  18.919  0.00  0.00    +0.000 N 
ATOM     19  N   UNL     1       6.313   4.829  18.036  0.00  0.00    +0.000 NA
ATOM     20  O   UNL     1       6.665   4.345  16.790  0.00  0.00    +0.000 OA
ATOM     21  H   UNL     1       4.849   5.919  19.827  0.00  0.00    +0.000 HD
ENDBRANCH   1  18
BRANCH   1  22
ATOM     22  C   UNL     1       2.345   4.689  19.725  0.00  0.00    +0.000 A 
ATOM     23  C   UNL     1       2.743   4.307  20.994  0.00  0.00    +0.000 A 
ATOM     24  C   UNL     1       2.111   3.225  21.594  0.00  0.00    +0.000 A 
ATOM     25  C   UNL     1       1.131   2.523  20.903  0.00  0.00    +0.000 A 
ATOM     26  C   UNL     1       0.813   2.941  19.628  0.00  0.00    +0.000 A 
ATOM     27  N   UNL     1       1.384   4.008  19.038  0.00  0.00    +0.000 NA
ENDBRANCH   1  22
TORSDOF 4
ENDMDL
MODEL 3
REMARK VINA RESULT:      -7.8      3.333      7.868
REMARK  Name = 
REMARK  5 active torsions:
REMARK  status: ('A' for Active; 'I' for Inactive)
REMARK    1  A    between atoms: C_1  and  C_2
REMARK    2  A    between atoms: N_5  and  C_6
REMARK    3  A    between atoms: C_6  and  C_7
REMARK    4  A    between atoms: C_6  and  C_13
REMARK    5  A    between atoms: C_22  and  O_23
REMARK                            x       y       z     vdW  Elec       q    Type
REMARK                         _______ _______ _______ _____ _____    ______ ____
ROOT
ATOM      1  C   UNL     1       0.721  10.500  18.639  0.00  0.00    +0.000 C 
ENDROOT
BRANCH   1   2
ATOM      2  C   UNL     1       1.560   9.254  18.877  0.00  0.00    +0.000 A 
ATOM      3  C   UNL     1       2.160   8.714  17.729  0.00  0.00    +0.000 A 
ATOM      4  C   UNL     1       2.976   7.611  17.833  0.00  0.00    +0.000 A 
ATOM      5  C   UNL     1       2.511   6.680  18.737  0.00  0.00    +0.000 A 
ATOM      6  C   UNL     1       2.564   5.344  18.367  0.00  0.00    +0.000 A 
ATOM      7  C   UNL     1       2.049   4.396  19.227  0.00  0.00    +0.000 A 
ATOM      8  C   UNL     1       1.604   4.833  20.467  0.00  0.00    +0.000 A 
ATOM      9  N   UNL     1       1.557   6.140  20.845  0.00  0.00    +0.000 NA
ATOM     10  C   UNL     1       1.905   7.090  19.942  0.00  0.00    +0.000 A 
ATOM     11  C   UNL     1       1.611   8.476  20.039  0.00  0.00    +0.000 A 
BRANCH  11  12
ATOM     12  O   UNL     1       1.266   9.019  21.248  0.00  0.00    +0.000 OA
ATOM     13  H   UNL     1       2.092   9.367  21.621  0.00  0.00    +0.000 HD
ENDBRANCH  11  12
ENDBRANCH   1   2
BRANCH   1  18
ATOM     14  C   UNL     1      -3.502  10.183  14.953  0.00  0.00    +0.000 C 
ATOM     15  C   UNL     1      -2.877  10.236  16.287  0.00  0.00    +0.000 A 
ATOM     16  C   UNL     1      -1.625   9.956  16.774  0.00  0.00    +0.000 A 
ATOM     17  C   UNL     1      -1.673  10.316  18.148  0.00  0.00    +0.000 A 
ATOM     18  N   UNL     1      -0.660  10.254  19.026  0.00  0.00    +0.000 N 
ATOM     19  N   UNL     1      -2.923  10.696  18.476  0.00  0.00    +0.000 NA
ATOM     20  O   UNL     1      -3.662  10.664  17.308  0.00  0.00    +0.000 OA
ATOM     21  H   UNL     1      -0.868  10.504  19.985  0.00  0.00    +0.000 HD
ENDBRANCH   1  18
BRANCH   1  22
ATOM     22  C   UNL     1       1.310  11.828  19.113  0.00  0.00    +0.000 A 
ATOM     23  C   UNL     1       2.041  12.669  18.292  0.00  0.00    +0.000 A 
ATOM     24  C   UNL     1       2.508  13.870  18.812  0.00  0.00    +0.000 A 
ATOM     25  C   UNL     1       2.274  14.187  20.144  0.00  0.00    +0.000 A 
ATOM     26  C   UNL     1       1.568  13.283  20.910  0.00  0.00    +0.000 A 
ATOM     27  N   UNL     1       1.075  12.129  20.421  0.00  0.00    +0.000 NA
ENDBRANCH   1  22
TORSDOF 4
ENDMDL
MODEL 4
REMARK VINA RESULT:      -7.8      1.900      2.336
REMARK  Name = 
REMARK  5 active torsions:
REMARK  status: ('A' for Active; 'I' for Inactive)
REMARK    1  A    between atoms: C_1  and  C_2
REMARK    2  A    between atoms: N_5  and  C_6
REMARK    3  A    between atoms: C_6  and  C_7
REMARK    4  A    between atoms: C_6  and  C_13
REMARK    5  A    between atoms: C_22  and  O_23
REMARK                            x       y       z     vdW  Elec       q    Type
REMARK                         _______ _______ _______ _____ _____    ______ ____
ROOT
ATOM      1  C   UNL     1       2.880   5.970  19.091  0.00  0.00    +0.000 C 
ENDROOT
BRANCH   1   2
ATOM      2  C   UNL     1       2.051   7.243  19.043  0.00  0.00    +0.000 A 
ATOM      3  C   UNL     1       2.149   7.971  17.847  0.00  0.00    +0.000 A 
ATOM      4  C   UNL     1       1.408   9.119  17.678  0.00  0.00    +0.000 A 
ATOM      5  C   UNL     1       1.335   9.887  18.820  0.00  0.00    +0.000 A 
ATOM      6  C   UNL     1       1.495  11.258  18.683  0.00  0.00    +0.000 A 
ATOM      7  C   UNL     1       1.487  12.045  19.817  0.00  0.00    +0.000 A 
ATOM      8  C   UNL     1       1.210  11.420  21.025  0.00  0.00    +0.000 A 
ATOM      9  N   UNL     1       1.041  10.076  21.170  0.00  0.00    +0.000 NA
ATOM     10  C   UNL     1       1.214   9.280  20.087  0.00  0.00    +0.000 A 
ATOM     11  C   UNL     1       1.402   7.873  20.112  0.00  0.00    +0.000 A 
BRANCH  11  12
ATOM     12  O   UNL     1       1.055   7.156  21.226  0.00  0.00    +0.000 OA
ATOM     13  H   UNL     1       0.088   7.221  21.286  0.00  0.00    +0.000 HD
ENDBRANCH  11  12
ENDBRANCH   1   2
BRANCH   1  18
ATOM     14  C   UNL     1       7.481   4.323  16.326  0.00  0.00    +0.000 C 
ATOM     15  C   UNL     1       6.715   4.914  17.437  0.00  0.00    +0.000 A 
ATOM     16  C   UNL     1       5.463   5.465  17.558  0.00  0.00    +0.000 A 
ATOM     17  C   UNL     1       5.317   5.754  18.941  0.00  0.00    +0.000 A 
ATOM     18  N   UNL     1       4.232   6.269  19.539  0.00  0.00    +0.000 N 
ATOM     19  N   UNL     1       6.465   5.477  19.588  0.00  0.00    +0.000 NA
ATOM     20  O   UNL     1       7.323   4.935  18.651  0.00  0.00    +0.000 OA
ATOM     21  H   UNL     1       4.301   6.461  20.531  0.00  0.00    +0.000 HD
ENDBRANCH   1  18
BRANCH   1  22
ATOM     22  C   UNL     1       2.228   4.748  19.736  0.00  0.00    +0.000 A 
ATOM     23  C   UNL     1       1.348   3.915  19.066  0.00  0.00    +0.000 A 
ATOM     24  C   UNL     1       0.834   2.811  19.735  0.00  0.00    +0.000 A 
ATOM     25  C   UNL     1       1.173   2.584  21.063  0.00  0.00    +0.000 A 
ATOM     26  C   UNL     1       2.028   3.477  21.675  0.00  0.00    +0.000 A 
ATOM     27  N   UNL     1       2.567   4.534  21.039  0.00  0.00    +0.000 NA
ENDBRANCH   1  22
TORSDOF 4
ENDMDL
MODEL 5
REMARK VINA RESULT:      -7.7      1.716      2.109
REMARK  Name = 
REMARK  5 active torsions:
REMARK  status: ('A' for Active; 'I' for Inactive)
REMARK    1  A    between atoms: C_1  and  C_2
REMARK    2  A    between atoms: N_5  and  C_6
REMARK    3  A    between atoms: C_6  and  C_7
REMARK    4  A    between atoms: C_6  and  C_13
REMARK    5  A    between atoms: C_22  and  O_23
REMARK                            x       y       z     vdW  Elec       q    Type
REMARK                         _______ _______ _______ _____ _____    ______ ____
ROOT
ATOM      1  C   UNL     1       3.252   6.174  17.814  0.00  0.00    +0.000 C 
ENDROOT
BRANCH   1   2
ATOM      2  C   UNL     1       2.245   7.128  18.435  0.00  0.00    +0.000 A 
ATOM      3  C   UNL     1       1.902   8.232  17.639  0.00  0.00    +0.000 A 
ATOM      4  C   UNL     1       0.967   9.138  18.085  0.00  0.00    +0.000 A 
ATOM      5  C   UNL     1       1.075   9.407  19.432  0.00  0.00    +0.000 A 
ATOM      6  C   UNL     1       0.968  10.730  19.834  0.00  0.00    +0.000 A 
ATOM      7  C   UNL     1       1.134  11.035  21.169  0.00  0.00    +0.000 A 
ATOM      8  C   UNL     1       1.292   9.974  22.051  0.00  0.00    +0.000 A 
ATOM      9  N   UNL     1       1.389   8.671  21.669  0.00  0.00    +0.000 NA
ATOM     10  C   UNL     1       1.395   8.381  20.345  0.00  0.00    +0.000 A 
ATOM     11  C   UNL     1       1.809   7.152  19.766  0.00  0.00    +0.000 A 
BRANCH  11  12
ATOM     12  O   UNL     1       1.892   6.025  20.538  0.00  0.00    +0.000 OA
ATOM     13  H   UNL     1       1.448   6.249  21.372  0.00  0.00    +0.000 HD
ENDBRANCH  11  12
ENDBRANCH   1   2
BRANCH   1  18
ATOM     14  C   UNL     1       7.213   4.910  14.039  0.00  0.00    +0.000 C 
ATOM     15  C   UNL     1       6.655   5.538  15.250  0.00  0.00    +0.000 A 
ATOM     16  C   UNL     1       5.391   5.875  15.665  0.00  0.00    +0.000 A 
ATOM     17  C   UNL     1       5.553   6.365  16.989  0.00  0.00    +0.000 A 
ATOM     18  N   UNL     1       4.577   6.777  17.813  0.00  0.00    +0.000 N 
ATOM     19  N   UNL     1       6.862   6.407  17.302  0.00  0.00    +0.000 NA
ATOM     20  O   UNL     1       7.541   5.871  16.224  0.00  0.00    +0.000 OA
ATOM     21  H   UNL     1       4.861   7.143  18.714  0.00  0.00    +0.000 HD
ENDBRANCH   1  18
BRANCH   1  22
ATOM     22  C   UNL     1       3.192   4.717  18.269  0.00  0.00    +0.000 A 
ATOM     23  C   UNL     1       2.304   3.795  17.744  0.00  0.00    +0.000 A 
ATOM     24  C   UNL     1       2.352   2.485  18.205  0.00  0.00    +0.000 A 
ATOM     25  C   UNL     1       3.250   2.133  19.205  0.00  0.00    +0.000 A 
ATOM     26  C   UNL     1       4.079   3.116  19.705  0.00  0.00    +0.000 A 
ATOM     27  N   UNL     1       4.077   4.383  19.251  0.00  0.00    +0.000 NA
ENDBRANCH   1  22
TORSDOF 4
ENDMDL
MODEL 6
REMARK VINA RESULT:      -7.7      3.710      5.795
REMARK  Name = 
REMARK  5 active torsions:
REMARK  status: ('A' for Active; 'I' for Inactive)
REMARK    1  A    between atoms: C_1  and  C_2
REMARK    2  A    between atoms: N_5  and  C_6
REMARK    3  A    between atoms: C_6  and  C_7
REMARK    4  A    between atoms: C_6  and  C_13
REMARK    5  A    between atoms: C_22  and  O_23
REMARK                            x       y       z     vdW  Elec       q    Type
REMARK                         _______ _______ _______ _____ _____    ______ ____
ROOT
ATOM      1  C   UNL     1       5.303   5.322  17.213  0.00  0.00    +0.000 C 
ENDROOT
BRANCH   1   2
ATOM      2  C   UNL     1       4.194   4.440  17.765  0.00  0.00    +0.000 A 
ATOM      3  C   UNL     1       2.893   4.839  17.424  0.00  0.00    +0.000 A 
ATOM      4  C   UNL     1       1.814   4.089  17.835  0.00  0.00    +0.000 A 
ATOM      5  C   UNL     1       1.954   3.598  19.115  0.00  0.00    +0.000 A 
ATOM      6  C   UNL     1       0.852   3.672  19.954  0.00  0.00    +0.000 A 
ATOM      7  C   UNL     1       0.982   3.244  21.260  0.00  0.00    +0.000 A 
ATOM      8  C   UNL     1       2.189   2.663  21.625  0.00  0.00    +0.000 A 
ATOM      9  N   UNL     1       3.273   2.576  20.806  0.00  0.00    +0.000 NA
ATOM     10  C   UNL     1       3.207   3.145  19.577  0.00  0.00    +0.000 A 
ATOM     11  C   UNL     1       4.313   3.439  18.737  0.00  0.00    +0.000 A 
BRANCH  11  12
ATOM     12  O   UNL     1       5.519   2.829  18.955  0.00  0.00    +0.000 OA
ATOM     13  H   UNL     1       5.821   3.152  19.819  0.00  0.00    +0.000 HD
ENDBRANCH  11  12
ENDBRANCH   1   2
BRANCH   1  18
ATOM     14  C   UNL     1       8.151  10.148  17.582  0.00  0.00    +0.000 C 
ATOM     15  C   UNL     1       7.803   8.757  17.926  0.00  0.00    +0.000 A 
ATOM     16  C   UNL     1       6.681   7.980  17.774  0.00  0.00    +0.000 A 
ATOM     17  C   UNL     1       7.057   6.692  18.241  0.00  0.00    +0.000 A 
ATOM     18  N   UNL     1       6.291   5.590  18.248  0.00  0.00    +0.000 N 
ATOM     19  N   UNL     1       8.309   6.733  18.735  0.00  0.00    +0.000 NA
ATOM     20  O   UNL     1       8.775   8.016  18.516  0.00  0.00    +0.000 OA
ATOM     21  H   UNL     1       6.691   4.754  18.658  0.00  0.00    +0.000 HD
ENDBRANCH   1  18
BRANCH   1  22
ATOM     22  C   UNL     1       5.869   4.943  15.845  0.00  0.00    +0.000 A 
ATOM     23  C   UNL     1       5.233   4.073  14.977  0.00  0.00    +0.000 A 
ATOM     24  C   UNL     1       5.817   3.817  13.742  0.00  0.00    +0.000 A 
ATOM     25  C   UNL     1       7.036   4.398  13.417  0.00  0.00    +0.000 A 
ATOM     26  C   UNL     1       7.627   5.227  14.348  0.00  0.00    +0.000 A 
ATOM     27  N   UNL     1       7.065   5.518  15.537  0.00  0.00    +0.000 NA
ENDBRANCH   1  22
TORSDOF 4
ENDMDL
MODEL 7
REMARK VINA RESULT:      -7.6      2.010      6.610
REMARK  Name = 
REMARK  5 active torsions:
REMARK  status: ('A' for Active; 'I' for Inactive)
REMARK    1  A    between atoms: C_1  and  C_2
REMARK    2  A    between atoms: N_5  and  C_6
REMARK    3  A    between atoms: C_6  and  C_7
REMARK    4  A    between atoms: C_6  and  C_13
REMARK    5  A    between atoms: C_22  and  O_23
REMARK                            x       y       z     vdW  Elec       q    Type
REMARK                         _______ _______ _______ _____ _____    ______ ____
ROOT
ATOM      1  C   UNL     1       2.942   6.636  19.329  0.00  0.00    +0.000 C 
ENDROOT
BRANCH   1   2
ATOM      2  C   UNL     1       4.073   6.573  18.314  0.00  0.00    +0.000 A 
ATOM      3  C   UNL     1       3.797   7.179  17.079  0.00  0.00    +0.000 A 
ATOM      4  C   UNL     1       4.765   7.218  16.101  0.00  0.00    +0.000 A 
ATOM      5  C   UNL     1       5.502   6.057  16.025  0.00  0.00    +0.000 A 
ATOM      6  C   UNL     1       5.773   5.551  14.762  0.00  0.00    +0.000 A 
ATOM      7  C   UNL     1       6.456   4.357  14.657  0.00  0.00    +0.000 A 
ATOM      8  C   UNL     1       6.927   3.785  15.832  0.00  0.00    +0.000 A 
ATOM      9  N   UNL     1       6.676   4.278  17.076  0.00  0.00    +0.000 NA
ATOM     10  C   UNL     1       5.864   5.358  17.194  0.00  0.00    +0.000 A 
ATOM     11  C   UNL     1       5.237   5.799  18.390  0.00  0.00    +0.000 A 
BRANCH  11  12
ATOM     12  O   UNL     1       5.703   5.371  19.604  0.00  0.00    +0.000 OA
ATOM     13  H   UNL     1       5.937   4.437  19.478  0.00  0.00    +0.000 HD
ENDBRANCH  11  12
ENDBRANCH   1   2
BRANCH   1  18
ATOM     14  C   UNL     1       0.189   9.404  23.364  0.00  0.00    +0.000 C 
ATOM     15  C   UNL     1       0.574   9.066  21.982  0.00  0.00    +0.000 A 
ATOM     16  C   UNL     1       1.662   8.456  21.408  0.00  0.00    +0.000 A 
ATOM     17  C   UNL     1       1.347   8.361  20.026  0.00  0.00    +0.000 A 
ATOM     18  N   UNL     1       2.103   7.797  19.072  0.00  0.00    +0.000 N 
ATOM     19  N   UNL     1       0.173   8.974  19.783  0.00  0.00    +0.000 NA
ATOM     20  O   UNL     1      -0.313   9.391  21.008  0.00  0.00    +0.000 OA
ATOM     21  H   UNL     1       1.758   7.850  18.121  0.00  0.00    +0.000 HD
ENDBRANCH   1  18
BRANCH   1  22
ATOM     22  C   UNL     1       2.195   5.333  19.609  0.00  0.00    +0.000 A 
ATOM     23  C   UNL     1       1.996   4.831  20.884  0.00  0.00    +0.000 A 
ATOM     24  C   UNL     1       1.276   3.652  21.032  0.00  0.00    +0.000 A 
ATOM     25  C   UNL     1       0.808   2.979  19.911  0.00  0.00    +0.000 A 
ATOM     26  C   UNL     1       1.075   3.521  18.672  0.00  0.00    +0.000 A 
ATOM     27  N   UNL     1       1.740   4.680  18.502  0.00  0.00    +0.000 NA
ENDBRANCH   1  22
TORSDOF 4
ENDMDL
MODEL 8
REMARK VINA RESULT:      -7.4      3.376      5.409
REMARK  Name = 
REMARK  5 active torsions:
REMARK  status: ('A' for Active; 'I' for Inactive)
REMARK    1  A    between atoms: C_1  and  C_2
REMARK    2  A    between atoms: N_5  and  C_6
REMARK    3  A    between atoms: C_6  and  C_7
REMARK    4  A    between atoms: C_6  and  C_13
REMARK    5  A    between atoms: C_22  and  O_23
REMARK                            x       y       z     vdW  Elec       q    Type
REMARK                         _______ _______ _______ _____ _____    ______ ____
ROOT
ATOM      1  C   UNL     1       5.896   4.987  16.614  0.00  0.00    +0.000 C 
ENDROOT
BRANCH   1   2
ATOM      2  C   UNL     1       4.483   4.678  17.084  0.00  0.00    +0.000 A 
ATOM      3  C   UNL     1       3.710   5.800  17.418  0.00  0.00    +0.000 A 
ATOM      4  C   UNL     1       2.402   5.640  17.816  0.00  0.00    +0.000 A 
ATOM      5  C   UNL     1       2.216   4.544  18.631  0.00  0.00    +0.000 A 
ATOM      6  C   UNL     1       1.406   4.702  19.745  0.00  0.00    +0.000 A 
ATOM      7  C   UNL     1       1.251   3.639  20.611  0.00  0.00    +0.000 A 
ATOM      8  C   UNL     1       1.837   2.433  20.252  0.00  0.00    +0.000 A 
ATOM      9  N   UNL     1       2.626   2.263  19.155  0.00  0.00    +0.000 NA
ATOM     10  C   UNL     1       2.918   3.345  18.392  0.00  0.00    +0.000 A 
ATOM     11  C   UNL     1       3.961   3.427  17.431  0.00  0.00    +0.000 A 
BRANCH  11  12
ATOM     12  O   UNL     1       4.527   2.282  16.938  0.00  0.00    +0.000 OA
ATOM     13  H   UNL     1       5.397   2.218  17.364  0.00  0.00    +0.000 HD
ENDBRANCH  11  12
ENDBRANCH   1   2
BRANCH   1  18
ATOM     14  C   UNL     1       6.488   2.120  11.822  0.00  0.00    +0.000 C 
ATOM     15  C   UNL     1       6.362   3.320  12.670  0.00  0.00    +0.000 A 
ATOM     16  C   UNL     1       5.853   3.565  13.921  0.00  0.00    +0.000 A 
ATOM     17  C   UNL     1       6.139   4.933  14.175  0.00  0.00    +0.000 A 
ATOM     18  N   UNL     1       5.860   5.611  15.299  0.00  0.00    +0.000 N 
ATOM     19  N   UNL     1       6.702   5.492  13.087  0.00  0.00    +0.000 NA
ATOM     20  O   UNL     1       6.857   4.477  12.161  0.00  0.00    +0.000 OA
ATOM     21  H   UNL     1       6.088   6.599  15.309  0.00  0.00    +0.000 HD
ENDBRANCH   1  18
BRANCH   1  22
ATOM     22  C   UNL     1       6.831   5.643  17.628  0.00  0.00    +0.000 A 
ATOM     23  C   UNL     1       7.378   6.902  17.453  0.00  0.00    +0.000 A 
ATOM     24  C   UNL     1       8.194   7.421  18.451  0.00  0.00    +0.000 A 
ATOM     25  C   UNL     1       8.480   6.661  19.578  0.00  0.00    +0.000 A 
ATOM     26  C   UNL     1       7.927   5.400  19.666  0.00  0.00    +0.000 A 
ATOM     27  N   UNL     1       7.106   4.888  18.730  0.00  0.00    +0.000 NA
ENDBRANCH   1  22
TORSDOF 4
ENDMDL
MODEL 9
REMARK VINA RESULT:      -7.3      3.361      5.534
REMARK  Name = 
REMARK  5 active torsions:
REMARK  status: ('A' for Active; 'I' for Inactive)
REMARK    1  A    between atoms: C_1  and  C_2
REMARK    2  A    between atoms: N_5  and  C_6
REMARK    3  A    between atoms: C_6  and  C_7
REMARK    4  A    between atoms: C_6  and  C_13
REMARK    5  A    between atoms: C_22  and  O_23
REMARK                            x       y       z     vdW  Elec       q    Type
REMARK                         _______ _______ _______ _____ _____    ______ ____
ROOT
ATOM      1  C   UNL     1       5.927   5.170  16.505  0.00  0.00    +0.000 C 
ENDROOT
BRANCH   1   2
ATOM      2  C   UNL     1       4.544   4.818  17.027  0.00  0.00    +0.000 A 
ATOM      3  C   UNL     1       3.741   5.916  17.370  0.00  0.00    +0.000 A 
ATOM      4  C   UNL     1       2.454   5.715  17.815  0.00  0.00    +0.000 A 
ATOM      5  C   UNL     1       2.336   4.628  18.653  0.00  0.00    +0.000 A 
ATOM      6  C   UNL     1       1.558   4.775  19.791  0.00  0.00    +0.000 A 
ATOM      7  C   UNL     1       1.472   3.723  20.679  0.00  0.00    +0.000 A 
ATOM      8  C   UNL     1       2.090   2.532  20.319  0.00  0.00    +0.000 A 
ATOM      9  N   UNL     1       2.848   2.373  19.199  0.00  0.00    +0.000 NA
ATOM     10  C   UNL     1       3.074   3.451  18.409  0.00  0.00    +0.000 A 
ATOM     11  C   UNL     1       4.080   3.554  17.412  0.00  0.00    +0.000 A 
BRANCH  11  12
ATOM     12  O   UNL     1       4.671   2.423  16.918  0.00  0.00    +0.000 OA
ATOM     13  H   UNL     1       5.494   2.722  16.499  0.00  0.00    +0.000 HD
ENDBRANCH  11  12
ENDBRANCH   1   2
BRANCH   1  18
ATOM     14  C   UNL     1       6.535   2.058  11.870  0.00  0.00    +0.000 C 
ATOM     15  C   UNL     1       6.373   3.298  12.651  0.00  0.00    +0.000 A 
ATOM     16  C   UNL     1       5.884   3.593  13.899  0.00  0.00    +0.000 A 
ATOM     17  C   UNL     1       6.112   4.985  14.067  0.00  0.00    +0.000 A 
ATOM     18  N   UNL     1       5.830   5.714  15.158  0.00  0.00    +0.000 N 
ATOM     19  N   UNL     1       6.620   5.504  12.933  0.00  0.00    +0.000 NA
ATOM     20  O   UNL     1       6.801   4.445  12.064  0.00  0.00    +0.000 OA
ATOM     21  H   UNL     1       6.011   6.710  15.105  0.00  0.00    +0.000 HD
ENDBRANCH   1  18
BRANCH   1  22
ATOM     22  C   UNL     1       6.850   5.930  17.456  0.00  0.00    +0.000 A 
ATOM     23  C   UNL     1       7.339   5.387  18.632  0.00  0.00    +0.000 A 
ATOM     24  C   UNL     1       8.198   6.151  19.413  0.00  0.00    +0.000 A 
ATOM     25  C   UNL     1       8.516   7.449  19.029  0.00  0.00    +0.000 A 
ATOM     26  C   UNL     1       7.961   7.933  17.863  0.00  0.00    +0.000 A 
ATOM     27  N   UNL     1       7.156   7.201  17.071  0.00  0.00    +0.000 NA
ENDBRANCH   1  22
TORSDOF 4
ENDMDL
