MODEL 1
REMARK VINA RESULT:      -6.9      0.000      0.000
REMARK  Name = 
REMARK  8 active torsions:
REMARK  status: ('A' for Active; 'I' for Inactive)
REMARK    1  A    between atoms: C_1  and  C_2
REMARK    2  A    between atoms: N_6  and  C_7
REMARK    3  A    between atoms: C_7  and  C_8
REMARK    4  A    between atoms: C_8  and  N_9
REMARK    5  A    between atoms: N_9  and  C_10
REMARK    6  A    between atoms: N_9  and  C_11
REMARK    7  A    between atoms: C_11  and  C_12
REMARK    8  A    between atoms: C_12  and  C_13
REMARK                            x       y       z     vdW  Elec       q    Type
REMARK                         _______ _______ _______ _____ _____    ______ ____
ROOT
ATOM      1  C   UNL     1       8.386   8.785  17.946  0.00  0.00    +0.000 C 
ATOM      2  C   UNL     1       7.524   7.572  17.773  0.00  0.00    +0.000 A 
ATOM      3  C   UNL     1       7.592   6.503  18.575  0.00  0.00    +0.000 A 
ATOM      4  C   UNL     1       6.690   5.352  18.345  0.00  0.00    +0.000 A 
ATOM      5  O   UNL     1       6.840   4.338  19.035  0.00  0.00    +0.000 OA
ATOM      6  N   UNL     1       5.743   5.505  17.350  0.00  0.00    +0.000 N 
ATOM      7  C   UNL     1       5.742   6.567  16.459  0.00  0.00    +0.000 A 
ATOM      8  O   UNL     1       5.020   6.640  15.469  0.00  0.00    +0.000 OA
ATOM      9  N   UNL     1       6.640   7.570  16.730  0.00  0.00    +0.000 N 
ATOM     10  H   UNL     1       6.602   8.352  16.089  0.00  0.00    +0.000 HD
ENDROOT
BRANCH   6  11
ATOM     11  C   UNL     1       4.794   4.408  17.121  0.00  0.00    +0.000 C 
BRANCH  11  12
ATOM     12  C   UNL     1       3.374   4.808  17.553  0.00  0.00    +0.000 C 
BRANCH  12  13
ATOM     13  N   UNL     1       3.125   5.044  18.990  0.00  0.00    +0.000 NA
ATOM     14  C   UNL     1       3.147   6.480  19.301  0.00  0.00    +0.000 C 
BRANCH  13  15
ATOM     15  C   UNL     1       1.816   4.472  19.417  0.00  0.00    +0.000 C 
BRANCH  15  16
ATOM     16  C   UNL     1       1.883   3.018  19.929  0.00  0.00    +0.000 C 
ATOM     17  C   UNL     1       1.415   1.996  18.897  0.00  0.00    +0.000 C 
ATOM     18  C   UNL     1       1.423   2.788  21.392  0.00  0.00    +0.000 C 
ATOM     19  O   UNL     1       2.784   2.680  21.860  0.00  0.00    +0.000 OA
ATOM     20  C   UNL     1       3.271   2.639  20.501  0.00  0.00    +0.000 C 
ENDBRANCH  15  16
ENDBRANCH  13  15
ENDBRANCH  12  13
ENDBRANCH  11  12
ENDBRANCH   6  11
TORSDOF 5
ENDMDL
MODEL 2
REMARK VINA RESULT:      -6.7      0.806      1.253
REMARK  Name = 
REMARK  8 active torsions:
REMARK  status: ('A' for Active; 'I' for Inactive)
REMARK    1  A    between atoms: C_1  and  C_2
REMARK    2  A    between atoms: N_6  and  C_7
REMARK    3  A    between atoms: C_7  and  C_8
REMARK    4  A    between atoms: C_8  and  N_9
REMARK    5  A    between atoms: N_9  and  C_10
REMARK    6  A    between atoms: N_9  and  C_11
REMARK    7  A    between atoms: C_11  and  C_12
REMARK    8  A    between atoms: C_12  and  C_13
REMARK                            x       y       z     vdW  Elec       q    Type
REMARK                         _______ _______ _______ _____ _____    ______ ____
ROOT
ATOM      1  C   UNL     1       8.503   8.217  18.257  0.00  0.00    +0.000 C 
ATOM      2  C   UNL     1       7.479   7.162  17.966  0.00  0.00    +0.000 A 
ATOM      3  C   UNL     1       7.307   6.078  18.730  0.00  0.00    +0.000 A 
ATOM      4  C   UNL     1       6.259   5.091  18.382  0.00  0.00    +0.000 A 
ATOM      5  O   UNL     1       6.186   4.050  19.044  0.00  0.00    +0.000 OA
ATOM      6  N   UNL     1       5.441   5.417  17.318  0.00  0.00    +0.000 N 
ATOM      7  C   UNL     1       5.686   6.487  16.470  0.00  0.00    +0.000 A 
ATOM      8  O   UNL     1       5.076   6.698  15.426  0.00  0.00    +0.000 OA
ATOM      9  N   UNL     1       6.703   7.327  16.853  0.00  0.00    +0.000 N 
ATOM     10  H   UNL     1       6.845   8.119  16.242  0.00  0.00    +0.000 HD
ENDROOT
BRANCH   6  11
ATOM     11  C   UNL     1       4.356   4.491  16.969  0.00  0.00    +0.000 C 
BRANCH  11  12
ATOM     12  C   UNL     1       3.023   4.945  17.589  0.00  0.00    +0.000 C 
BRANCH  12  13
ATOM     13  N   UNL     1       2.955   5.089  19.057  0.00  0.00    +0.000 NA
ATOM     14  C   UNL     1       2.937   6.505  19.449  0.00  0.00    +0.000 C 
BRANCH  13  15
ATOM     15  C   UNL     1       1.748   4.413  19.615  0.00  0.00    +0.000 C 
BRANCH  15  16
ATOM     16  C   UNL     1       2.006   3.008  20.197  0.00  0.00    +0.000 C 
ATOM     17  C   UNL     1       1.262   2.754  21.505  0.00  0.00    +0.000 C 
ATOM     18  C   UNL     1       3.467   2.495  20.118  0.00  0.00    +0.000 C 
ATOM     19  O   UNL     1       3.160   1.629  19.004  0.00  0.00    +0.000 OA
ATOM     20  C   UNL     1       1.747   1.871  19.178  0.00  0.00    +0.000 C 
ENDBRANCH  15  16
ENDBRANCH  13  15
ENDBRANCH  12  13
ENDBRANCH  11  12
ENDBRANCH   6  11
TORSDOF 5
ENDMDL
MODEL 3
REMARK VINA RESULT:      -6.5      2.224      3.612
REMARK  Name = 
REMARK  8 active torsions:
REMARK  status: ('A' for Active; 'I' for Inactive)
REMARK    1  A    between atoms: C_1  and  C_2
REMARK    2  A    between atoms: N_6  and  C_7
REMARK    3  A    between atoms: C_7  and  C_8
REMARK    4  A    between atoms: C_8  and  N_9
REMARK    5  A    between atoms: N_9  and  C_10
REMARK    6  A    between atoms: N_9  and  C_11
REMARK    7  A    between atoms: C_11  and  C_12
REMARK    8  A    between atoms: C_12  and  C_13
REMARK                            x       y       z     vdW  Elec       q    Type
REMARK                         _______ _______ _______ _____ _____    ______ ____
ROOT
ATOM      1  C   UNL     1       6.549   4.168  13.342  0.00  0.00    +0.000 C 
ATOM      2  C   UNL     1       6.363   4.611  14.761  0.00  0.00    +0.000 A 
ATOM      3  C   UNL     1       5.316   5.335  15.173  0.00  0.00    +0.000 A 
ATOM      4  C   UNL     1       5.200   5.715  16.599  0.00  0.00    +0.000 A 
ATOM      5  O   UNL     1       4.278   6.467  16.936  0.00  0.00    +0.000 OA
ATOM      6  N   UNL     1       6.156   5.197  17.451  0.00  0.00    +0.000 N 
ATOM      7  C   UNL     1       7.291   4.535  17.008  0.00  0.00    +0.000 A 
ATOM      8  O   UNL     1       8.232   4.215  17.727  0.00  0.00    +0.000 OA
ATOM      9  N   UNL     1       7.329   4.260  15.662  0.00  0.00    +0.000 N 
ATOM     10  H   UNL     1       8.148   3.747  15.363  0.00  0.00    +0.000 HD
ENDROOT
BRANCH   6  11
ATOM     11  C   UNL     1       6.051   5.507  18.883  0.00  0.00    +0.000 C 
BRANCH  11  12
ATOM     12  C   UNL     1       5.744   4.241  19.700  0.00  0.00    +0.000 C 
BRANCH  12  13
ATOM     13  N   UNL     1       4.539   3.463  19.349  0.00  0.00    +0.000 NA
ATOM     14  C   UNL     1       4.482   2.206  20.106  0.00  0.00    +0.000 C 
BRANCH  13  15
ATOM     15  C   UNL     1       3.294   4.243  19.604  0.00  0.00    +0.000 C 
BRANCH  15  16
ATOM     16  C   UNL     1       2.022   3.661  18.954  0.00  0.00    +0.000 C 
ATOM     17  C   UNL     1       0.894   3.419  19.954  0.00  0.00    +0.000 C 
ATOM     18  C   UNL     1       2.245   2.564  17.881  0.00  0.00    +0.000 C 
ATOM     19  O   UNL     1       1.987   3.489  16.804  0.00  0.00    +0.000 OA
ATOM     20  C   UNL     1       1.526   4.486  17.742  0.00  0.00    +0.000 C 
ENDBRANCH  15  16
ENDBRANCH  13  15
ENDBRANCH  12  13
ENDBRANCH  11  12
ENDBRANCH   6  11
TORSDOF 5
ENDMDL
MODEL 4
REMARK VINA RESULT:      -6.4      1.457      1.895
REMARK  Name = 
REMARK  8 active torsions:
REMARK  status: ('A' for Active; 'I' for Inactive)
REMARK    1  A    between atoms: C_1  and  C_2
REMARK    2  A    between atoms: N_6  and  C_7
REMARK    3  A    between atoms: C_7  and  C_8
REMARK    4  A    between atoms: C_8  and  N_9
REMARK    5  A    between atoms: N_9  and  C_10
REMARK    6  A    between atoms: N_9  and  C_11
REMARK    7  A    between atoms: C_11  and  C_12
REMARK    8  A    between atoms: C_12  and  C_13
REMARK                            x       y       z     vdW  Elec       q    Type
REMARK                         _______ _______ _______ _____ _____    ______ ____
ROOT
ATOM      1  C   UNL     1       8.540   9.743  17.964  0.00  0.00    +0.000 C 
ATOM      2  C   UNL     1       8.001   8.345  17.984  0.00  0.00    +0.000 A 
ATOM      3  C   UNL     1       8.401   7.416  18.859  0.00  0.00    +0.000 A 
ATOM      4  C   UNL     1       7.803   6.062  18.821  0.00  0.00    +0.000 A 
ATOM      5  O   UNL     1       8.260   5.194  19.573  0.00  0.00    +0.000 OA
ATOM      6  N   UNL     1       6.772   5.874  17.921  0.00  0.00    +0.000 N 
ATOM      7  C   UNL     1       6.431   6.803  16.950  0.00  0.00    +0.000 A 
ATOM      8  O   UNL     1       5.637   6.592  16.038  0.00  0.00    +0.000 OA
ATOM      9  N   UNL     1       7.066   8.018  17.042  0.00  0.00    +0.000 N 
ATOM     10  H   UNL     1       6.780   8.694  16.346  0.00  0.00    +0.000 HD
ENDROOT
BRANCH   6  11
ATOM     11  C   UNL     1       6.115   4.561  17.884  0.00  0.00    +0.000 C 
BRANCH  11  12
ATOM     12  C   UNL     1       5.064   4.438  19.000  0.00  0.00    +0.000 C 
BRANCH  12  13
ATOM     13  N   UNL     1       3.704   3.997  18.627  0.00  0.00    +0.000 NA
ATOM     14  C   UNL     1       3.634   3.646  17.203  0.00  0.00    +0.000 C 
BRANCH  13  15
ATOM     15  C   UNL     1       3.271   2.825  19.441  0.00  0.00    +0.000 C 
BRANCH  15  16
ATOM     16  C   UNL     1       2.200   3.139  20.507  0.00  0.00    +0.000 C 
ATOM     17  C   UNL     1       2.424   2.394  21.820  0.00  0.00    +0.000 C 
ATOM     18  C   UNL     1       0.738   3.228  19.999  0.00  0.00    +0.000 C 
ATOM     19  O   UNL     1       0.753   4.671  20.047  0.00  0.00    +0.000 OA
ATOM     20  C   UNL     1       2.013   4.657  20.751  0.00  0.00    +0.000 C 
ENDBRANCH  15  16
ENDBRANCH  13  15
ENDBRANCH  12  13
ENDBRANCH  11  12
ENDBRANCH   6  11
TORSDOF 5
ENDMDL
MODEL 5
REMARK VINA RESULT:      -6.3      2.010      2.833
REMARK  Name = 
REMARK  8 active torsions:
REMARK  status: ('A' for Active; 'I' for Inactive)
REMARK    1  A    between atoms: C_1  and  C_2
REMARK    2  A    between atoms: N_6  and  C_7
REMARK    3  A    between atoms: C_7  and  C_8
REMARK    4  A    between atoms: C_8  and  N_9
REMARK    5  A    between atoms: N_9  and  C_10
REMARK    6  A    between atoms: N_9  and  C_11
REMARK    7  A    between atoms: C_11  and  C_12
REMARK    8  A    between atoms: C_12  and  C_13
REMARK                            x       y       z     vdW  Elec       q    Type
REMARK                         _______ _______ _______ _____ _____    ______ ____
ROOT
ATOM      1  C   UNL     1       7.622   5.050  13.546  0.00  0.00    +0.000 C 
ATOM      2  C   UNL     1       6.926   4.796  14.848  0.00  0.00    +0.000 A 
ATOM      3  C   UNL     1       5.619   4.531  14.942  0.00  0.00    +0.000 A 
ATOM      4  C   UNL     1       5.013   4.273  16.269  0.00  0.00    +0.000 A 
ATOM      5  O   UNL     1       3.788   4.131  16.340  0.00  0.00    +0.000 OA
ATOM      6  N   UNL     1       5.885   4.224  17.340  0.00  0.00    +0.000 N 
ATOM      7  C   UNL     1       7.217   4.598  17.254  0.00  0.00    +0.000 A 
ATOM      8  O   UNL     1       7.965   4.723  18.219  0.00  0.00    +0.000 OA
ATOM      9  N   UNL     1       7.681   4.856  15.987  0.00  0.00    +0.000 N 
ATOM     10  H   UNL     1       8.662   5.094  15.940  0.00  0.00    +0.000 HD
ENDROOT
BRANCH   6  11
ATOM     11  C   UNL     1       5.334   3.921  18.668  0.00  0.00    +0.000 C 
BRANCH  11  12
ATOM     12  C   UNL     1       4.858   5.202  19.373  0.00  0.00    +0.000 C 
BRANCH  12  13
ATOM     13  N   UNL     1       3.408   5.370  19.602  0.00  0.00    +0.000 NA
ATOM     14  C   UNL     1       2.889   6.535  18.873  0.00  0.00    +0.000 C 
BRANCH  13  15
ATOM     15  C   UNL     1       2.647   4.156  19.188  0.00  0.00    +0.000 C 
BRANCH  15  16
ATOM     16  C   UNL     1       1.812   3.504  20.309  0.00  0.00    +0.000 C 
ATOM     17  C   UNL     1       0.310   3.546  20.040  0.00  0.00    +0.000 C 
ATOM     18  C   UNL     1       2.265   3.805  21.761  0.00  0.00    +0.000 C 
ATOM     19  O   UNL     1       2.877   2.504  21.897  0.00  0.00    +0.000 OA
ATOM     20  C   UNL     1       2.277   2.069  20.658  0.00  0.00    +0.000 C 
ENDBRANCH  15  16
ENDBRANCH  13  15
ENDBRANCH  12  13
ENDBRANCH  11  12
ENDBRANCH   6  11
TORSDOF 5
ENDMDL
MODEL 6
REMARK VINA RESULT:      -6.3      1.787      2.838
REMARK  Name = 
REMARK  8 active torsions:
REMARK  status: ('A' for Active; 'I' for Inactive)
REMARK    1  A    between atoms: C_1  and  C_2
REMARK    2  A    between atoms: N_6  and  C_7
REMARK    3  A    between atoms: C_7  and  C_8
REMARK    4  A    between atoms: C_8  and  N_9
REMARK    5  A    between atoms: N_9  and  C_10
REMARK    6  A    between atoms: N_9  and  C_11
REMARK    7  A    between atoms: C_11  and  C_12
REMARK    8  A    between atoms: C_12  and  C_13
REMARK                            x       y       z     vdW  Elec       q    Type
REMARK                         _______ _______ _______ _____ _____    ______ ____
ROOT
ATOM      1  C   UNL     1       6.277   3.897  13.600  0.00  0.00    +0.000 C 
ATOM      2  C   UNL     1       6.047   4.321  15.019  0.00  0.00    +0.000 A 
ATOM      3  C   UNL     1       6.498   5.475  15.522  0.00  0.00    +0.000 A 
ATOM      4  C   UNL     1       6.210   5.826  16.932  0.00  0.00    +0.000 A 
ATOM      5  O   UNL     1       6.722   6.848  17.402  0.00  0.00    +0.000 OA
ATOM      6  N   UNL     1       5.386   4.957  17.623  0.00  0.00    +0.000 N 
ATOM      7  C   UNL     1       5.006   3.718  17.132  0.00  0.00    +0.000 A 
ATOM      8  O   UNL     1       4.418   2.863  17.788  0.00  0.00    +0.000 OA
ATOM      9  N   UNL     1       5.351   3.465  15.826  0.00  0.00    +0.000 N 
ATOM     10  H   UNL     1       5.036   2.570  15.475  0.00  0.00    +0.000 HD
ENDROOT
BRANCH   6  11
ATOM     11  C   UNL     1       5.033   5.292  19.008  0.00  0.00    +0.000 C 
BRANCH  11  12
ATOM     12  C   UNL     1       3.645   5.950  19.080  0.00  0.00    +0.000 C 
BRANCH  12  13
ATOM     13  N   UNL     1       2.668   5.407  20.045  0.00  0.00    +0.000 NA
ATOM     14  C   UNL     1       1.838   6.476  20.616  0.00  0.00    +0.000 C 
BRANCH  13  15
ATOM     15  C   UNL     1       1.783   4.389  19.409  0.00  0.00    +0.000 C 
BRANCH  15  16
ATOM     16  C   UNL     1       1.804   3.002  20.084  0.00  0.00    +0.000 C 
ATOM     17  C   UNL     1       1.465   1.863  19.126  0.00  0.00    +0.000 C 
ATOM     18  C   UNL     1       1.183   2.924  21.503  0.00  0.00    +0.000 C 
ATOM     19  O   UNL     1       2.484   2.897  22.129  0.00  0.00    +0.000 OA
ATOM     20  C   UNL     1       3.122   2.717  20.846  0.00  0.00    +0.000 C 
ENDBRANCH  15  16
ENDBRANCH  13  15
ENDBRANCH  12  13
ENDBRANCH  11  12
ENDBRANCH   6  11
TORSDOF 5
ENDMDL
MODEL 7
REMARK VINA RESULT:      -6.2      1.808      2.624
REMARK  Name = 
REMARK  8 active torsions:
REMARK  status: ('A' for Active; 'I' for Inactive)
REMARK    1  A    between atoms: C_1  and  C_2
REMARK    2  A    between atoms: N_6  and  C_7
REMARK    3  A    between atoms: C_7  and  C_8
REMARK    4  A    between atoms: C_8  and  N_9
REMARK    5  A    between atoms: N_9  and  C_10
REMARK    6  A    between atoms: N_9  and  C_11
REMARK    7  A    between atoms: C_11  and  C_12
REMARK    8  A    between atoms: C_12  and  C_13
REMARK                            x       y       z     vdW  Elec       q    Type
REMARK                         _______ _______ _______ _____ _____    ______ ____
ROOT
ATOM      1  C   UNL     1       6.464   3.878  13.285  0.00  0.00    +0.000 C 
ATOM      2  C   UNL     1       5.963   4.285  14.637  0.00  0.00    +0.000 A 
ATOM      3  C   UNL     1       5.533   3.411  15.553  0.00  0.00    +0.000 A 
ATOM      4  C   UNL     1       5.071   3.897  16.874  0.00  0.00    +0.000 A 
ATOM      5  O   UNL     1       4.585   3.081  17.665  0.00  0.00    +0.000 OA
ATOM      6  N   UNL     1       5.213   5.251  17.112  0.00  0.00    +0.000 N 
ATOM      7  C   UNL     1       5.562   6.163  16.128  0.00  0.00    +0.000 A 
ATOM      8  O   UNL     1       5.531   7.381  16.271  0.00  0.00    +0.000 OA
ATOM      9  N   UNL     1       5.939   5.622  14.923  0.00  0.00    +0.000 N 
ATOM     10  H   UNL     1       6.222   6.300  14.229  0.00  0.00    +0.000 HD
ENDROOT
BRANCH   6  11
ATOM     11  C   UNL     1       4.814   5.768  18.427  0.00  0.00    +0.000 C 
BRANCH  11  12
ATOM     12  C   UNL     1       3.285   5.893  18.530  0.00  0.00    +0.000 C 
BRANCH  12  13
ATOM     13  N   UNL     1       2.629   5.396  19.758  0.00  0.00    +0.000 NA
ATOM     14  C   UNL     1       2.000   6.495  20.502  0.00  0.00    +0.000 C 
BRANCH  13  15
ATOM     15  C   UNL     1       1.599   4.365  19.444  0.00  0.00    +0.000 C 
BRANCH  15  16
ATOM     16  C   UNL     1       1.859   2.980  20.073  0.00  0.00    +0.000 C 
ATOM     17  C   UNL     1       1.757   1.836  19.068  0.00  0.00    +0.000 C 
ATOM     18  C   UNL     1       1.231   2.736  21.470  0.00  0.00    +0.000 C 
ATOM     19  O   UNL     1       2.499   2.923  22.133  0.00  0.00    +0.000 OA
ATOM     20  C   UNL     1       3.189   2.912  20.864  0.00  0.00    +0.000 C 
ENDBRANCH  15  16
ENDBRANCH  13  15
ENDBRANCH  12  13
ENDBRANCH  11  12
ENDBRANCH   6  11
TORSDOF 5
ENDMDL
MODEL 8
REMARK VINA RESULT:      -6.2      2.272      3.347
REMARK  Name = 
REMARK  8 active torsions:
REMARK  status: ('A' for Active; 'I' for Inactive)
REMARK    1  A    between atoms: C_1  and  C_2
REMARK    2  A    between atoms: N_6  and  C_7
REMARK    3  A    between atoms: C_7  and  C_8
REMARK    4  A    between atoms: C_8  and  N_9
REMARK    5  A    between atoms: N_9  and  C_10
REMARK    6  A    between atoms: N_9  and  C_11
REMARK    7  A    between atoms: C_11  and  C_12
REMARK    8  A    between atoms: C_12  and  C_13
REMARK                            x       y       z     vdW  Elec       q    Type
REMARK                         _______ _______ _______ _____ _____    ______ ____
ROOT
ATOM      1  C   UNL     1       7.394   4.567  12.734  0.00  0.00    +0.000 C 
ATOM      2  C   UNL     1       6.793   4.756  14.094  0.00  0.00    +0.000 A 
ATOM      3  C   UNL     1       5.664   4.156  14.486  0.00  0.00    +0.000 A 
ATOM      4  C   UNL     1       5.148   4.384  15.856  0.00  0.00    +0.000 A 
ATOM      5  O   UNL     1       4.052   3.899  16.161  0.00  0.00    +0.000 OA
ATOM      6  N   UNL     1       5.943   5.145  16.691  0.00  0.00    +0.000 N 
ATOM      7  C   UNL     1       7.056   5.845  16.252  0.00  0.00    +0.000 A 
ATOM      8  O   UNL     1       7.678   6.656  16.932  0.00  0.00    +0.000 OA
ATOM      9  N   UNL     1       7.438   5.600  14.955  0.00  0.00    +0.000 N 
ATOM     10  H   UNL     1       8.270   6.093  14.663  0.00  0.00    +0.000 HD
ENDROOT
BRANCH   6  11
ATOM     11  C   UNL     1       5.495   5.354  18.074  0.00  0.00    +0.000 C 
BRANCH  11  12
ATOM     12  C   UNL     1       5.610   4.058  18.894  0.00  0.00    +0.000 C 
BRANCH  12  13
ATOM     13  N   UNL     1       4.363   3.368  19.281  0.00  0.00    +0.000 NA
ATOM     14  C   UNL     1       4.634   2.274  20.223  0.00  0.00    +0.000 C 
BRANCH  13  15
ATOM     15  C   UNL     1       3.386   4.312  19.896  0.00  0.00    +0.000 C 
BRANCH  15  16
ATOM     16  C   UNL     1       2.009   4.360  19.202  0.00  0.00    +0.000 C 
ATOM     17  C   UNL     1       1.859   5.540  18.246  0.00  0.00    +0.000 C 
ATOM     18  C   UNL     1       0.784   4.028  20.093  0.00  0.00    +0.000 C 
ATOM     19  O   UNL     1       0.667   2.703  19.532  0.00  0.00    +0.000 OA
ATOM     20  C   UNL     1       1.632   3.028  18.508  0.00  0.00    +0.000 C 
ENDBRANCH  15  16
ENDBRANCH  13  15
ENDBRANCH  12  13
ENDBRANCH  11  12
ENDBRANCH   6  11
TORSDOF 5
ENDMDL
MODEL 9
REMARK VINA RESULT:      -6.1      1.933      3.406
REMARK  Name = 
REMARK  8 active torsions:
REMARK  status: ('A' for Active; 'I' for Inactive)
REMARK    1  A    between atoms: C_1  and  C_2
REMARK    2  A    between atoms: N_6  and  C_7
REMARK    3  A    between atoms: C_7  and  C_8
REMARK    4  A    between atoms: C_8  and  N_9
REMARK    5  A    between atoms: N_9  and  C_10
REMARK    6  A    between atoms: N_9  and  C_11
REMARK    7  A    between atoms: C_11  and  C_12
REMARK    8  A    between atoms: C_12  and  C_13
REMARK                            x       y       z     vdW  Elec       q    Type
REMARK                         _______ _______ _______ _____ _____    ______ ____
ROOT
ATOM      1  C   UNL     1       6.145   3.756  13.175  0.00  0.00    +0.000 C 
ATOM      2  C   UNL     1       6.170   4.449  14.503  0.00  0.00    +0.000 A 
ATOM      3  C   UNL     1       5.293   5.397  14.852  0.00  0.00    +0.000 A 
ATOM      4  C   UNL     1       5.377   6.018  16.194  0.00  0.00    +0.000 A 
ATOM      5  O   UNL     1       4.621   6.960  16.456  0.00  0.00    +0.000 OA
ATOM      6  N   UNL     1       6.321   5.491  17.055  0.00  0.00    +0.000 N 
ATOM      7  C   UNL     1       7.290   4.582  16.657  0.00  0.00    +0.000 A 
ATOM      8  O   UNL     1       8.236   4.229  17.354  0.00  0.00    +0.000 OA
ATOM      9  N   UNL     1       7.153   4.089  15.382  0.00  0.00    +0.000 N 
ATOM     10  H   UNL     1       7.849   3.404  15.121  0.00  0.00    +0.000 HD
ENDROOT
BRANCH   6  11
ATOM     11  C   UNL     1       6.405   6.043  18.413  0.00  0.00    +0.000 C 
BRANCH  11  12
ATOM     12  C   UNL     1       5.743   5.101  19.433  0.00  0.00    +0.000 C 
BRANCH  12  13
ATOM     13  N   UNL     1       4.536   4.360  19.012  0.00  0.00    +0.000 NA
ATOM     14  C   UNL     1       4.745   2.910  19.112  0.00  0.00    +0.000 C 
BRANCH  13  15
ATOM     15  C   UNL     1       3.350   4.741  19.833  0.00  0.00    +0.000 C 
BRANCH  15  16
ATOM     16  C   UNL     1       2.002   4.213  19.302  0.00  0.00    +0.000 C 
ATOM     17  C   UNL     1       1.721   4.627  17.860  0.00  0.00    +0.000 C 
ATOM     18  C   UNL     1       0.807   4.280  20.288  0.00  0.00    +0.000 C 
ATOM     19  O   UNL     1       0.888   2.865  20.567  0.00  0.00    +0.000 OA
ATOM     20  C   UNL     1       1.831   2.685  19.488  0.00  0.00    +0.000 C 
ENDBRANCH  15  16
ENDBRANCH  13  15
ENDBRANCH  12  13
ENDBRANCH  11  12
ENDBRANCH   6  11
TORSDOF 5
ENDMDL
