MODEL 1
REMARK VINA RESULT:      -8.1      0.000      0.000
REMARK  Name = 
REMARK  6 active torsions:
REMARK  status: ('A' for Active; 'I' for Inactive)
REMARK    1  A    between atoms: C_1  and  C_2
REMARK    2  A    between atoms: C_4  and  C_5
REMARK    3  A    between atoms: C_5  and  S_6
REMARK    4  A    between atoms: S_6  and  C_9
REMARK    5  A    between atoms: C_9  and  C_10
REMARK    6  A    between atoms: C_9  and  C_11
REMARK                            x       y       z     vdW  Elec       q    Type
REMARK                         _______ _______ _______ _____ _____    ______ ____
ROOT
ATOM      1  C   UNL     1       2.874   5.502  18.201  0.00  0.00    +0.000 C 
ATOM      2  C   UNL     1       2.197   4.146  18.045  0.00  0.00    +0.000 C 
ENDROOT
BRANCH   1   3
ATOM      3  C   UNL     1       2.262   6.292  19.343  0.00  0.00    +0.000 C 
ATOM      4  O   UNL     1       1.947   5.689  20.369  0.00  0.00    +0.000 OA
ATOM      5  N   UNL     1       2.033   7.670  19.155  0.00  0.00    +0.000 N 
ATOM      6  C   UNL     1       2.344   8.380  17.902  0.00  0.00    +0.000 C 
ATOM      7  C   UNL     1       1.186   9.243  17.442  0.00  0.00    +0.000 C 
ATOM      8  C   UNL     1       0.908  10.313  18.477  0.00  0.00    +0.000 C 
ATOM      9  C   UNL     1       0.918   9.767  19.880  0.00  0.00    +0.000 A 
ATOM     10  C   UNL     1       0.356  10.577  20.886  0.00  0.00    +0.000 A 
ATOM     11  C   UNL     1       0.331  10.157  22.211  0.00  0.00    +0.000 A 
ATOM     12  C   UNL     1       0.889   8.934  22.545  0.00  0.00    +0.000 A 
ATOM     13  C   UNL     1       1.459   8.126  21.555  0.00  0.00    +0.000 A 
ATOM     14  C   UNL     1       1.474   8.508  20.202  0.00  0.00    +0.000 A 
ENDBRANCH   1   3
BRANCH   1  15
ATOM     15  S   UNL     1       4.635   5.285  18.457  0.00  0.00    +0.000 S 
ATOM     16  O   UNL     1       4.943   3.958  17.947  0.00  0.00    +0.000 OA
ATOM     17  O   UNL     1       4.980   5.610  19.830  0.00  0.00    +0.000 OA
BRANCH  15  18
ATOM     18  C   UNL     1       5.382   6.481  17.347  0.00  0.00    +0.000 C 
BRANCH  18  22
ATOM     19  C   UNL     1       6.522   3.909  13.104  0.00  0.00    +0.000 C 
ATOM     20  C   UNL     1       6.438   4.675  14.357  0.00  0.00    +0.000 A 
ATOM     21  C   UNL     1       5.407   5.034  15.185  0.00  0.00    +0.000 A 
ATOM     22  C   UNL     1       6.021   5.812  16.190  0.00  0.00    +0.000 A 
ATOM     23  N   UNL     1       7.349   5.874  16.016  0.00  0.00    +0.000 NA
ATOM     24  O   UNL     1       7.604   5.172  14.850  0.00  0.00    +0.000 OA
ENDBRANCH  18  22
ENDBRANCH  15  18
ENDBRANCH   1  15
TORSDOF 4
ENDMDL
MODEL 2
REMARK VINA RESULT:      -7.8      1.251      1.347
REMARK  Name = 
REMARK  6 active torsions:
REMARK  status: ('A' for Active; 'I' for Inactive)
REMARK    1  A    between atoms: C_1  and  C_2
REMARK    2  A    between atoms: C_4  and  C_5
REMARK    3  A    between atoms: C_5  and  S_6
REMARK    4  A    between atoms: S_6  and  C_9
REMARK    5  A    between atoms: C_9  and  C_10
REMARK    6  A    between atoms: C_9  and  C_11
REMARK                            x       y       z     vdW  Elec       q    Type
REMARK                         _______ _______ _______ _____ _____    ______ ____
ROOT
ATOM      1  C   UNL     1       2.716   5.097  18.501  0.00  0.00    +0.000 C 
ATOM      2  C   UNL     1       1.676   4.260  17.765  0.00  0.00    +0.000 C 
ENDROOT
BRANCH   1   3
ATOM      3  C   UNL     1       2.061   6.011  19.521  0.00  0.00    +0.000 C 
ATOM      4  O   UNL     1       1.508   5.501  20.495  0.00  0.00    +0.000 OA
ATOM      5  N   UNL     1       2.071   7.399  19.275  0.00  0.00    +0.000 N 
ATOM      6  C   UNL     1       2.671   8.007  18.074  0.00  0.00    +0.000 C 
ATOM      7  C   UNL     1       1.736   9.008  17.425  0.00  0.00    +0.000 C 
ATOM      8  C   UNL     1       1.467  10.148  18.386  0.00  0.00    +0.000 C 
ATOM      9  C   UNL     1       1.183   9.662  19.782  0.00  0.00    +0.000 A 
ATOM     10  C   UNL     1       0.601  10.584  20.674  0.00  0.00    +0.000 A 
ATOM     11  C   UNL     1       0.314  10.225  21.987  0.00  0.00    +0.000 A 
ATOM     12  C   UNL     1       0.626   8.949  22.424  0.00  0.00    +0.000 A 
ATOM     13  C   UNL     1       1.214   8.028  21.548  0.00  0.00    +0.000 A 
ATOM     14  C   UNL     1       1.490   8.350  20.209  0.00  0.00    +0.000 A 
ENDBRANCH   1   3
BRANCH   1  15
ATOM     15  S   UNL     1       3.917   4.027  19.293  0.00  0.00    +0.000 S 
ATOM     16  O   UNL     1       4.133   2.928  18.364  0.00  0.00    +0.000 OA
ATOM     17  O   UNL     1       3.497   3.731  20.652  0.00  0.00    +0.000 OA
BRANCH  15  18
ATOM     18  C   UNL     1       5.416   5.015  19.326  0.00  0.00    +0.000 C 
BRANCH  18  22
ATOM     19  C   UNL     1       7.127   4.817  14.534  0.00  0.00    +0.000 C 
ATOM     20  C   UNL     1       6.854   4.780  15.979  0.00  0.00    +0.000 A 
ATOM     21  C   UNL     1       5.746   5.032  16.744  0.00  0.00    +0.000 A 
ATOM     22  C   UNL     1       6.190   4.854  18.073  0.00  0.00    +0.000 A 
ATOM     23  N   UNL     1       7.471   4.462  18.110  0.00  0.00    +0.000 NA
ATOM     24  O   UNL     1       7.890   4.434  16.790  0.00  0.00    +0.000 OA
ENDBRANCH  18  22
ENDBRANCH  15  18
ENDBRANCH   1  15
TORSDOF 4
ENDMDL
MODEL 3
REMARK VINA RESULT:      -7.8      0.877      1.010
REMARK  Name = 
REMARK  6 active torsions:
REMARK  status: ('A' for Active; 'I' for Inactive)
REMARK    1  A    between atoms: C_1  and  C_2
REMARK    2  A    between atoms: C_4  and  C_5
REMARK    3  A    between atoms: C_5  and  S_6
REMARK    4  A    between atoms: S_6  and  C_9
REMARK    5  A    between atoms: C_9  and  C_10
REMARK    6  A    between atoms: C_9  and  C_11
REMARK                            x       y       z     vdW  Elec       q    Type
REMARK                         _______ _______ _______ _____ _____    ______ ____
ROOT
ATOM      1  C   UNL     1       2.913   5.656  18.162  0.00  0.00    +0.000 C 
ATOM      2  C   UNL     1       2.396   4.225  18.089  0.00  0.00    +0.000 C 
ENDROOT
BRANCH   1   3
ATOM      3  C   UNL     1       2.277   6.410  19.315  0.00  0.00    +0.000 C 
ATOM      4  O   UNL     1       1.984   5.784  20.334  0.00  0.00    +0.000 OA
ATOM      5  N   UNL     1       2.001   7.782  19.146  0.00  0.00    +0.000 N 
ATOM      6  C   UNL     1       2.286   8.519  17.901  0.00  0.00    +0.000 C 
ATOM      7  C   UNL     1       1.098   9.348  17.455  0.00  0.00    +0.000 C 
ATOM      8  C   UNL     1       0.786  10.395  18.504  0.00  0.00    +0.000 C 
ATOM      9  C   UNL     1       0.818   9.831  19.900  0.00  0.00    +0.000 A 
ATOM     10  C   UNL     1       0.231  10.609  20.918  0.00  0.00    +0.000 A 
ATOM     11  C   UNL     1       0.223  10.171  22.237  0.00  0.00    +0.000 A 
ATOM     12  C   UNL     1       0.822   8.963  22.554  0.00  0.00    +0.000 A 
ATOM     13  C   UNL     1       1.418   8.187  21.552  0.00  0.00    +0.000 A 
ATOM     14  C   UNL     1       1.417   8.587  20.205  0.00  0.00    +0.000 A 
ENDBRANCH   1   3
BRANCH   1  15
ATOM     15  S   UNL     1       4.699   5.659  18.315  0.00  0.00    +0.000 S 
ATOM     16  O   UNL     1       4.968   5.555  19.741  0.00  0.00    +0.000 OA
ATOM     17  O   UNL     1       5.258   6.774  17.571  0.00  0.00    +0.000 OA
BRANCH  15  18
ATOM     18  C   UNL     1       5.198   4.113  17.553  0.00  0.00    +0.000 C 
BRANCH  18  22
ATOM     19  C   UNL     1       7.116   4.769  12.882  0.00  0.00    +0.000 C 
ATOM     20  C   UNL     1       6.796   4.608  14.309  0.00  0.00    +0.000 A 
ATOM     21  C   UNL     1       5.658   4.278  14.997  0.00  0.00    +0.000 A 
ATOM     22  C   UNL     1       6.036   4.353  16.355  0.00  0.00    +0.000 A 
ATOM     23  N   UNL     1       7.337   4.652  16.483  0.00  0.00    +0.000 NA
ATOM     24  O   UNL     1       7.806   4.830  15.192  0.00  0.00    +0.000 OA
ENDBRANCH  18  22
ENDBRANCH  15  18
ENDBRANCH   1  15
TORSDOF 4
ENDMDL
MODEL 4
REMARK VINA RESULT:      -7.8      3.224      4.743
REMARK  Name = 
REMARK  6 active torsions:
REMARK  status: ('A' for Active; 'I' for Inactive)
REMARK    1  A    between atoms: C_1  and  C_2
REMARK    2  A    between atoms: C_4  and  C_5
REMARK    3  A    between atoms: C_5  and  S_6
REMARK    4  A    between atoms: S_6  and  C_9
REMARK    5  A    between atoms: C_9  and  C_10
REMARK    6  A    between atoms: C_9  and  C_11
REMARK                            x       y       z     vdW  Elec       q    Type
REMARK                         _______ _______ _______ _____ _____    ______ ____
ROOT
ATOM      1  C   UNL     1       6.555   4.640  17.485  0.00  0.00    +0.000 C 
ATOM      2  C   UNL     1       7.878   4.679  18.239  0.00  0.00    +0.000 C 
ENDROOT
BRANCH   1   3
ATOM      3  C   UNL     1       5.385   4.886  18.420  0.00  0.00    +0.000 C 
ATOM      4  O   UNL     1       5.513   5.725  19.311  0.00  0.00    +0.000 OA
ATOM      5  N   UNL     1       4.224   4.103  18.257  0.00  0.00    +0.000 N 
ATOM      6  C   UNL     1       4.093   3.049  17.235  0.00  0.00    +0.000 C 
ATOM      7  C   UNL     1       3.553   1.761  17.822  0.00  0.00    +0.000 C 
ATOM      8  C   UNL     1       2.159   1.997  18.368  0.00  0.00    +0.000 C 
ATOM      9  C   UNL     1       2.065   3.274  19.160  0.00  0.00    +0.000 A 
ATOM     10  C   UNL     1       0.931   3.434  19.981  0.00  0.00    +0.000 A 
ATOM     11  C   UNL     1       0.756   4.586  20.741  0.00  0.00    +0.000 A 
ATOM     12  C   UNL     1       1.702   5.595  20.668  0.00  0.00    +0.000 A 
ATOM     13  C   UNL     1       2.827   5.450  19.848  0.00  0.00    +0.000 A 
ATOM     14  C   UNL     1       3.048   4.287  19.090  0.00  0.00    +0.000 A 
ENDBRANCH   1   3
BRANCH   1  15
ATOM     15  S   UNL     1       6.566   5.847  16.159  0.00  0.00    +0.000 S 
ATOM     16  O   UNL     1       7.096   7.067  16.747  0.00  0.00    +0.000 OA
ATOM     17  O   UNL     1       5.267   5.882  15.510  0.00  0.00    +0.000 OA
BRANCH  15  18
ATOM     18  C   UNL     1       7.796   5.216  15.014  0.00  0.00    +0.000 C 
BRANCH  18  22
ATOM     19  C   UNL     1       4.890   2.775  11.619  0.00  0.00    +0.000 C 
ATOM     20  C   UNL     1       5.869   3.544  12.405  0.00  0.00    +0.000 A 
ATOM     21  C   UNL     1       6.063   3.746  13.745  0.00  0.00    +0.000 A 
ATOM     22  C   UNL     1       7.158   4.636  13.809  0.00  0.00    +0.000 A 
ATOM     23  N   UNL     1       7.635   4.910  12.587  0.00  0.00    +0.000 NA
ATOM     24  O   UNL     1       6.808   4.234  11.705  0.00  0.00    +0.000 OA
ENDBRANCH  18  22
ENDBRANCH  15  18
ENDBRANCH   1  15
TORSDOF 4
ENDMDL
MODEL 5
REMARK VINA RESULT:      -7.8      1.701      2.222
REMARK  Name = 
REMARK  6 active torsions:
REMARK  status: ('A' for Active; 'I' for Inactive)
REMARK    1  A    between atoms: C_1  and  C_2
REMARK    2  A    between atoms: C_4  and  C_5
REMARK    3  A    between atoms: C_5  and  S_6
REMARK    4  A    between atoms: S_6  and  C_9
REMARK    5  A    between atoms: C_9  and  C_10
REMARK    6  A    between atoms: C_9  and  C_11
REMARK                            x       y       z     vdW  Elec       q    Type
REMARK                         _______ _______ _______ _____ _____    ______ ____
ROOT
ATOM      1  C   UNL     1       2.863   5.322  18.253  0.00  0.00    +0.000 C 
ATOM      2  C   UNL     1       1.927   4.243  17.722  0.00  0.00    +0.000 C 
ENDROOT
BRANCH   1   3
ATOM      3  C   UNL     1       2.191   6.142  19.340  0.00  0.00    +0.000 C 
ATOM      4  O   UNL     1       1.705   5.551  20.303  0.00  0.00    +0.000 OA
ATOM      5  N   UNL     1       2.109   7.539  19.167  0.00  0.00    +0.000 N 
ATOM      6  C   UNL     1       2.628   8.241  17.980  0.00  0.00    +0.000 C 
ATOM      7  C   UNL     1       1.613   9.214  17.414  0.00  0.00    +0.000 C 
ATOM      8  C   UNL     1       1.310  10.286  18.442  0.00  0.00    +0.000 C 
ATOM      9  C   UNL     1       1.106   9.714  19.820  0.00  0.00    +0.000 A 
ATOM     10  C   UNL     1       0.502  10.553  20.777  0.00  0.00    +0.000 A 
ATOM     11  C   UNL     1       0.283  10.112  22.077  0.00  0.00    +0.000 A 
ATOM     12  C   UNL     1       0.687   8.837  22.437  0.00  0.00    +0.000 A 
ATOM     13  C   UNL     1       1.297   7.999  21.496  0.00  0.00    +0.000 A 
ATOM     14  C   UNL     1       1.506   8.404  20.167  0.00  0.00    +0.000 A 
ENDBRANCH   1   3
BRANCH   1  15
ATOM     15  S   UNL     1       4.373   4.578  18.868  0.00  0.00    +0.000 S 
ATOM     16  O   UNL     1       4.079   3.161  19.015  0.00  0.00    +0.000 OA
ATOM     17  O   UNL     1       4.860   5.321  20.017  0.00  0.00    +0.000 OA
BRANCH  15  18
ATOM     18  C   UNL     1       5.526   4.755  17.503  0.00  0.00    +0.000 C 
BRANCH  18  22
ATOM     19  C   UNL     1       8.190   9.082  17.823  0.00  0.00    +0.000 C 
ATOM     20  C   UNL     1       7.611   7.730  17.852  0.00  0.00    +0.000 A 
ATOM     21  C   UNL     1       6.494   7.162  17.299  0.00  0.00    +0.000 A 
ATOM     22  C   UNL     1       6.509   5.831  17.769  0.00  0.00    +0.000 A 
ATOM     23  N   UNL     1       7.597   5.589  18.514  0.00  0.00    +0.000 NA
ATOM     24  O   UNL     1       8.279   6.794  18.577  0.00  0.00    +0.000 OA
ENDBRANCH  18  22
ENDBRANCH  15  18
ENDBRANCH   1  15
TORSDOF 4
ENDMDL
MODEL 6
REMARK VINA RESULT:      -7.7      1.484      2.584
REMARK  Name = 
REMARK  6 active torsions:
REMARK  status: ('A' for Active; 'I' for Inactive)
REMARK    1  A    between atoms: C_1  and  C_2
REMARK    2  A    between atoms: C_4  and  C_5
REMARK    3  A    between atoms: C_5  and  S_6
REMARK    4  A    between atoms: S_6  and  C_9
REMARK    5  A    between atoms: C_9  and  C_10
REMARK    6  A    between atoms: C_9  and  C_11
REMARK                            x       y       z     vdW  Elec       q    Type
REMARK                         _______ _______ _______ _____ _____    ______ ____
ROOT
ATOM      1  C   UNL     1       4.431   4.952  17.355  0.00  0.00    +0.000 C 
ATOM      2  C   UNL     1       3.323   3.907  17.389  0.00  0.00    +0.000 C 
ENDROOT
BRANCH   1   3
ATOM      3  C   UNL     1       3.871   6.350  17.544  0.00  0.00    +0.000 C 
ATOM      4  O   UNL     1       4.367   7.272  16.898  0.00  0.00    +0.000 OA
ATOM      5  N   UNL     1       2.843   6.535  18.491  0.00  0.00    +0.000 N 
ATOM      6  C   UNL     1       2.295   5.444  19.317  0.00  0.00    +0.000 C 
ATOM      7  C   UNL     1       2.214   5.832  20.779  0.00  0.00    +0.000 C 
ATOM      8  C   UNL     1       1.267   7.003  20.942  0.00  0.00    +0.000 C 
ATOM      9  C   UNL     1       1.490   8.067  19.900  0.00  0.00    +0.000 A 
ATOM     10  C   UNL     1       0.910   9.329  20.140  0.00  0.00    +0.000 A 
ATOM     11  C   UNL     1       1.056  10.367  19.228  0.00  0.00    +0.000 A 
ATOM     12  C   UNL     1       1.764  10.147  18.057  0.00  0.00    +0.000 A 
ATOM     13  C   UNL     1       2.335   8.894  17.805  0.00  0.00    +0.000 A 
ATOM     14  C   UNL     1       2.231   7.833  18.719  0.00  0.00    +0.000 A 
ENDBRANCH   1   3
BRANCH   1  15
ATOM     15  S   UNL     1       5.658   4.590  18.610  0.00  0.00    +0.000 S 
ATOM     16  O   UNL     1       5.379   3.231  19.047  0.00  0.00    +0.000 OA
ATOM     17  O   UNL     1       5.688   5.656  19.596  0.00  0.00    +0.000 OA
BRANCH  15  18
ATOM     18  C   UNL     1       7.206   4.563  17.702  0.00  0.00    +0.000 C 
BRANCH  18  22
ATOM     19  C   UNL     1       5.903   3.674  12.861  0.00  0.00    +0.000 C 
ATOM     20  C   UNL     1       6.389   4.135  14.171  0.00  0.00    +0.000 A 
ATOM     21  C   UNL     1       6.385   3.596  15.430  0.00  0.00    +0.000 A 
ATOM     22  C   UNL     1       6.970   4.594  16.240  0.00  0.00    +0.000 A 
ATOM     23  N   UNL     1       7.357   5.649  15.510  0.00  0.00    +0.000 NA
ATOM     24  O   UNL     1       6.972   5.363  14.210  0.00  0.00    +0.000 OA
ENDBRANCH  18  22
ENDBRANCH  15  18
ENDBRANCH   1  15
TORSDOF 4
ENDMDL
MODEL 7
REMARK VINA RESULT:      -7.7      2.538      4.247
REMARK  Name = 
REMARK  6 active torsions:
REMARK  status: ('A' for Active; 'I' for Inactive)
REMARK    1  A    between atoms: C_1  and  C_2
REMARK    2  A    between atoms: C_4  and  C_5
REMARK    3  A    between atoms: C_5  and  S_6
REMARK    4  A    between atoms: S_6  and  C_9
REMARK    5  A    between atoms: C_9  and  C_10
REMARK    6  A    between atoms: C_9  and  C_11
REMARK                            x       y       z     vdW  Elec       q    Type
REMARK                         _______ _______ _______ _____ _____    ______ ____
ROOT
ATOM      1  C   UNL     1       5.108   6.543  16.983  0.00  0.00    +0.000 C 
ATOM      2  C   UNL     1       4.955   6.854  15.499  0.00  0.00    +0.000 C 
ENDROOT
BRANCH   1   3
ATOM      3  C   UNL     1       4.248   5.360  17.386  0.00  0.00    +0.000 C 
ATOM      4  O   UNL     1       4.170   4.402  16.617  0.00  0.00    +0.000 OA
ATOM      5  N   UNL     1       3.534   5.436  18.600  0.00  0.00    +0.000 N 
ATOM      6  C   UNL     1       3.569   6.611  19.489  0.00  0.00    +0.000 C 
ATOM      7  C   UNL     1       2.178   7.036  19.913  0.00  0.00    +0.000 C 
ATOM      8  C   UNL     1       1.527   5.923  20.708  0.00  0.00    +0.000 C 
ATOM      9  C   UNL     1       1.731   4.573  20.073  0.00  0.00    +0.000 A 
ATOM     10  C   UNL     1       0.910   3.522  20.527  0.00  0.00    +0.000 A 
ATOM     11  C   UNL     1       1.036   2.240  20.003  0.00  0.00    +0.000 A 
ATOM     12  C   UNL     1       1.999   1.993  19.039  0.00  0.00    +0.000 A 
ATOM     13  C   UNL     1       2.827   3.029  18.589  0.00  0.00    +0.000 A 
ATOM     14  C   UNL     1       2.706   4.341  19.076  0.00  0.00    +0.000 A 
ENDBRANCH   1   3
BRANCH   1  15
ATOM     15  S   UNL     1       6.831   6.231  17.371  0.00  0.00    +0.000 S 
ATOM     16  O   UNL     1       6.900   6.177  18.823  0.00  0.00    +0.000 OA
ATOM     17  O   UNL     1       7.677   7.173  16.659  0.00  0.00    +0.000 OA
BRANCH  15  18
ATOM     18  C   UNL     1       7.117   4.572  16.750  0.00  0.00    +0.000 C 
BRANCH  18  22
ATOM     19  C   UNL     1       6.179   3.656  11.830  0.00  0.00    +0.000 C 
ATOM     20  C   UNL     1       6.623   4.078  13.168  0.00  0.00    +0.000 A 
ATOM     21  C   UNL     1       6.321   3.673  14.441  0.00  0.00    +0.000 A 
ATOM     22  C   UNL     1       7.069   4.538  15.270  0.00  0.00    +0.000 A 
ATOM     23  N   UNL     1       7.821   5.378  14.545  0.00  0.00    +0.000 NA
ATOM     24  O   UNL     1       7.523   5.096  13.222  0.00  0.00    +0.000 OA
ENDBRANCH  18  22
ENDBRANCH  15  18
ENDBRANCH   1  15
TORSDOF 4
ENDMDL
MODEL 8
REMARK VINA RESULT:      -7.7      1.748      2.399
REMARK  Name = 
REMARK  6 active torsions:
REMARK  status: ('A' for Active; 'I' for Inactive)
REMARK    1  A    between atoms: C_1  and  C_2
REMARK    2  A    between atoms: C_4  and  C_5
REMARK    3  A    between atoms: C_5  and  S_6
REMARK    4  A    between atoms: S_6  and  C_9
REMARK    5  A    between atoms: C_9  and  C_10
REMARK    6  A    between atoms: C_9  and  C_11
REMARK                            x       y       z     vdW  Elec       q    Type
REMARK                         _______ _______ _______ _____ _____    ______ ____
ROOT
ATOM      1  C   UNL     1       3.553   4.941  18.121  0.00  0.00    +0.000 C 
ATOM      2  C   UNL     1       2.849   3.719  17.544  0.00  0.00    +0.000 C 
ENDROOT
BRANCH   1   3
ATOM      3  C   UNL     1       2.653   5.683  19.091  0.00  0.00    +0.000 C 
ATOM      4  O   UNL     1       2.030   5.031  19.929  0.00  0.00    +0.000 OA
ATOM      5  N   UNL     1       2.530   7.081  18.953  0.00  0.00    +0.000 N 
ATOM      6  C   UNL     1       3.220   7.856  17.906  0.00  0.00    +0.000 C 
ATOM      7  C   UNL     1       2.275   8.805  17.196  0.00  0.00    +0.000 C 
ATOM      8  C   UNL     1       1.734   9.817  18.185  0.00  0.00    +0.000 C 
ATOM      9  C   UNL     1       1.312   9.179  19.482  0.00  0.00    +0.000 A 
ATOM     10  C   UNL     1       0.501   9.949  20.339  0.00  0.00    +0.000 A 
ATOM     11  C   UNL     1       0.073   9.444  21.561  0.00  0.00    +0.000 A 
ATOM     12  C   UNL     1       0.470   8.174  21.947  0.00  0.00    +0.000 A 
ATOM     13  C   UNL     1       1.285   7.405  21.107  0.00  0.00    +0.000 A 
ATOM     14  C   UNL     1       1.711   7.875  19.853  0.00  0.00    +0.000 A 
ENDBRANCH   1   3
BRANCH   1  15
ATOM     15  S   UNL     1       5.078   4.450  18.924  0.00  0.00    +0.000 S 
ATOM     16  O   UNL     1       4.934   3.029  19.199  0.00  0.00    +0.000 OA
ATOM     17  O   UNL     1       5.373   5.355  20.022  0.00  0.00    +0.000 OA
BRANCH  15  18
ATOM     18  C   UNL     1       6.319   4.634  17.640  0.00  0.00    +0.000 C 
BRANCH  18  22
ATOM     19  C   UNL     1       8.599   9.155  18.178  0.00  0.00    +0.000 C 
ATOM     20  C   UNL     1       7.804   7.961  17.848  0.00  0.00    +0.000 A 
ATOM     21  C   UNL     1       7.713   6.702  18.381  0.00  0.00    +0.000 A 
ATOM     22  C   UNL     1       6.789   6.035  17.547  0.00  0.00    +0.000 A 
ATOM     23  N   UNL     1       6.306   6.855  16.602  0.00  0.00    +0.000 NA
ATOM     24  O   UNL     1       6.962   8.061  16.785  0.00  0.00    +0.000 OA
ENDBRANCH  18  22
ENDBRANCH  15  18
ENDBRANCH   1  15
TORSDOF 4
ENDMDL
MODEL 9
REMARK VINA RESULT:      -7.6      2.769      4.851
REMARK  Name = 
REMARK  6 active torsions:
REMARK  status: ('A' for Active; 'I' for Inactive)
REMARK    1  A    between atoms: C_1  and  C_2
REMARK    2  A    between atoms: C_4  and  C_5
REMARK    3  A    between atoms: C_5  and  S_6
REMARK    4  A    between atoms: S_6  and  C_9
REMARK    5  A    between atoms: C_9  and  C_10
REMARK    6  A    between atoms: C_9  and  C_11
REMARK                            x       y       z     vdW  Elec       q    Type
REMARK                         _______ _______ _______ _____ _____    ______ ____
ROOT
ATOM      1  C   UNL     1       5.483   5.209  16.035  0.00  0.00    +0.000 C 
ATOM      2  C   UNL     1       5.292   4.544  14.677  0.00  0.00    +0.000 C 
ENDROOT
BRANCH   1   3
ATOM      3  C   UNL     1       4.708   4.478  17.116  0.00  0.00    +0.000 C 
ATOM      4  O   UNL     1       4.706   3.248  17.104  0.00  0.00    +0.000 OA
ATOM      5  N   UNL     1       3.983   5.244  18.052  0.00  0.00    +0.000 N 
ATOM      6  C   UNL     1       3.928   6.716  18.026  0.00  0.00    +0.000 C 
ATOM      7  C   UNL     1       2.506   7.227  18.153  0.00  0.00    +0.000 C 
ATOM      8  C   UNL     1       1.933   6.805  19.491  0.00  0.00    +0.000 C 
ATOM      9  C   UNL     1       2.240   5.367  19.815  0.00  0.00    +0.000 A 
ATOM     10  C   UNL     1       1.494   4.773  20.853  0.00  0.00    +0.000 A 
ATOM     11  C   UNL     1       1.717   3.452  21.227  0.00  0.00    +0.000 A 
ATOM     12  C   UNL     1       2.701   2.722  20.581  0.00  0.00    +0.000 A 
ATOM     13  C   UNL     1       3.454   3.306  19.556  0.00  0.00    +0.000 A 
ATOM     14  C   UNL     1       3.235   4.629  19.135  0.00  0.00    +0.000 A 
ENDBRANCH   1   3
BRANCH   1  15
ATOM     15  S   UNL     1       7.226   5.279  16.446  0.00  0.00    +0.000 S 
ATOM     16  O   UNL     1       7.804   6.250  15.529  0.00  0.00    +0.000 OA
ATOM     17  O   UNL     1       7.778   3.936  16.493  0.00  0.00    +0.000 OA
BRANCH  15  18
ATOM     18  C   UNL     1       7.251   6.001  18.089  0.00  0.00    +0.000 C 
BRANCH  18  22
ATOM     19  C   UNL     1       9.361  10.601  18.647  0.00  0.00    +0.000 C 
ATOM     20  C   UNL     1       8.586   9.388  18.342  0.00  0.00    +0.000 A 
ATOM     21  C   UNL     1       8.637   8.092  18.782  0.00  0.00    +0.000 A 
ATOM     22  C   UNL     1       7.633   7.431  18.040  0.00  0.00    +0.000 A 
ATOM     23  N   UNL     1       6.976   8.285  17.242  0.00  0.00    +0.000 NA
ATOM     24  O   UNL     1       7.592   9.512  17.423  0.00  0.00    +0.000 OA
ENDBRANCH  18  22
ENDBRANCH  15  18
ENDBRANCH   1  15
TORSDOF 4
ENDMDL
