MODEL 1
REMARK VINA RESULT:      -6.2      0.000      0.000
REMARK  Name = 
REMARK  8 active torsions:
REMARK  status: ('A' for Active; 'I' for Inactive)
REMARK    1  A    between atoms: C_1  and  O_2
REMARK    2  A    between atoms: O_2  and  C_3
REMARK    3  A    between atoms: C_6  and  C_7
REMARK    4  A    between atoms: C_10  and  C_11
REMARK    5  A    between atoms: C_14  and  C_15
REMARK    6  A    between atoms: C_18  and  S_19
REMARK    7  A    between atoms: S_19  and  C_22
REMARK    8  A    between atoms: C_22  and  C_23
REMARK                            x       y       z     vdW  Elec       q    Type
REMARK                         _______ _______ _______ _____ _____    ______ ____
ROOT
ATOM      1  C   UNL     1       0.052  10.850  22.161  0.00  0.00    +0.000 C 
ATOM      2  N   UNL     1       0.422  10.041  23.098  0.00  0.00    +0.000 NA
ATOM      3  O   UNL     1       1.431   9.216  22.584  0.00  0.00    +0.000 OA
ATOM      4  C   UNL     1       1.651   9.515  21.187  0.00  0.00    +0.000 C 
ATOM      5  C   UNL     1       0.722  10.675  20.839  0.00  0.00    +0.000 C 
ENDROOT
BRANCH   4   6
ATOM      6  C   UNL     1       1.672   8.192  20.450  0.00  0.00    +0.000 A 
ATOM      7  C   UNL     1       1.214   7.005  21.046  0.00  0.00    +0.000 A 
ATOM      8  C   UNL     1       1.418   5.766  20.429  0.00  0.00    +0.000 A 
ATOM      9  C   UNL     1       2.070   5.688  19.196  0.00  0.00    +0.000 A 
ATOM     10  C   UNL     1       2.393   4.362  18.575  0.00  0.00    +0.000 C 
ATOM     11  C   UNL     1       2.465   6.871  18.565  0.00  0.00    +0.000 A 
ATOM     12  C   UNL     1       2.265   8.108  19.182  0.00  0.00    +0.000 A 
ENDBRANCH   4   6
BRANCH   1  16
ATOM     13  C   UNL     1      -2.859  13.901  22.887  0.00  0.00    +0.000 A 
ATOM     14  C   UNL     1      -1.598  14.242  22.393  0.00  0.00    +0.000 A 
ATOM     15  C   UNL     1      -0.608  13.270  22.232  0.00  0.00    +0.000 A 
ATOM     16  C   UNL     1      -0.912  11.930  22.477  0.00  0.00    +0.000 A 
ATOM     17  C   UNL     1      -2.143  11.596  23.052  0.00  0.00    +0.000 A 
ATOM     18  C   UNL     1      -3.113  12.583  23.265  0.00  0.00    +0.000 A 
BRANCH  13  20
ATOM     19  C   UNL     1      -5.028  14.637  23.499  0.00  0.00    +0.000 C 
ATOM     20  O   UNL     1      -3.734  14.945  22.988  0.00  0.00    +0.000 OA
ENDBRANCH  13  20
ENDBRANCH   1  16
BRANCH   5  21
ATOM     21  S   UNL     1      -0.331  10.390  19.436  0.00  0.00    +0.000 S 
ATOM     22  O   UNL     1       0.549  10.141  18.310  0.00  0.00    +0.000 OA
ATOM     23  O   UNL     1      -1.359   9.439  19.809  0.00  0.00    +0.000 OA
BRANCH  21  24
ATOM     24  C   UNL     1      -1.127  11.931  19.119  0.00  0.00    +0.000 C 
BRANCH  24  25
ATOM     25  C   UNL     1      -2.505  11.792  18.582  0.00  0.00    +0.000 C 
ATOM     26  N   UNL     1      -3.569  12.049  19.271  0.00  0.00    +0.000 NA
ATOM     27  C   UNL     1      -4.761  11.615  18.510  0.00  0.00    +0.000 C 
ATOM     28  C   UNL     1      -4.447  11.558  17.023  0.00  0.00    +0.000 C 
ATOM     29  S   UNL     1      -2.717  11.074  17.004  0.00  0.00    +0.000 S 
ENDBRANCH  24  25
ENDBRANCH  21  24
ENDBRANCH   5  21
TORSDOF 6
ENDMDL
MODEL 2
REMARK VINA RESULT:      -6.2      0.543      1.042
REMARK  Name = 
REMARK  8 active torsions:
REMARK  status: ('A' for Active; 'I' for Inactive)
REMARK    1  A    between atoms: C_1  and  O_2
REMARK    2  A    between atoms: O_2  and  C_3
REMARK    3  A    between atoms: C_6  and  C_7
REMARK    4  A    between atoms: C_10  and  C_11
REMARK    5  A    between atoms: C_14  and  C_15
REMARK    6  A    between atoms: C_18  and  S_19
REMARK    7  A    between atoms: S_19  and  C_22
REMARK    8  A    between atoms: C_22  and  C_23
REMARK                            x       y       z     vdW  Elec       q    Type
REMARK                         _______ _______ _______ _____ _____    ______ ____
ROOT
ATOM      1  C   UNL     1      -0.035  10.875  22.281  0.00  0.00    +0.000 C 
ATOM      2  N   UNL     1       0.370  10.045  23.183  0.00  0.00    +0.000 NA
ATOM      3  O   UNL     1       1.399   9.271  22.628  0.00  0.00    +0.000 OA
ATOM      4  C   UNL     1       1.592   9.628  21.241  0.00  0.00    +0.000 C 
ATOM      5  C   UNL     1       0.624  10.770  20.946  0.00  0.00    +0.000 C 
ENDROOT
BRANCH   4   6
ATOM      6  C   UNL     1       1.647   8.335  20.455  0.00  0.00    +0.000 A 
ATOM      7  C   UNL     1       1.265   7.108  21.023  0.00  0.00    +0.000 A 
ATOM      8  C   UNL     1       1.503   5.902  20.354  0.00  0.00    +0.000 A 
ATOM      9  C   UNL     1       2.112   5.898  19.096  0.00  0.00    +0.000 A 
ATOM     10  C   UNL     1       2.472   4.612  18.415  0.00  0.00    +0.000 C 
ATOM     11  C   UNL     1       2.429   7.121  18.496  0.00  0.00    +0.000 A 
ATOM     12  C   UNL     1       2.196   8.324  19.165  0.00  0.00    +0.000 A 
ENDBRANCH   4   6
BRANCH   1  16
ATOM     13  C   UNL     1      -2.790  13.900  23.538  0.00  0.00    +0.000 A 
ATOM     14  C   UNL     1      -3.182  12.560  23.525  0.00  0.00    +0.000 A 
ATOM     15  C   UNL     1      -2.325  11.570  23.037  0.00  0.00    +0.000 A 
ATOM     16  C   UNL     1      -1.030  11.912  22.647  0.00  0.00    +0.000 A 
ATOM     17  C   UNL     1      -0.663  13.260  22.578  0.00  0.00    +0.000 A 
ATOM     18  C   UNL     1      -1.546  14.254  23.015  0.00  0.00    +0.000 A 
BRANCH  13  20
ATOM     19  C   UNL     1      -3.332  16.131  24.127  0.00  0.00    +0.000 C 
ATOM     20  O   UNL     1      -3.718  14.762  24.048  0.00  0.00    +0.000 OA
ENDBRANCH  13  20
ENDBRANCH   1  16
BRANCH   5  21
ATOM     21  S   UNL     1      -0.436  10.504  19.545  0.00  0.00    +0.000 S 
ATOM     22  O   UNL     1       0.435  10.394  18.390  0.00  0.00    +0.000 OA
ATOM     23  O   UNL     1      -1.386   9.459  19.870  0.00  0.00    +0.000 OA
BRANCH  21  24
ATOM     24  C   UNL     1      -1.345  12.001  19.346  0.00  0.00    +0.000 C 
BRANCH  24  25
ATOM     25  C   UNL     1      -2.658  11.818  18.676  0.00  0.00    +0.000 C 
ATOM     26  N   UNL     1      -3.794  12.004  19.267  0.00  0.00    +0.000 NA
ATOM     27  C   UNL     1      -4.887  11.542  18.383  0.00  0.00    +0.000 C 
ATOM     28  C   UNL     1      -4.432  11.549  16.933  0.00  0.00    +0.000 C 
ATOM     29  S   UNL     1      -2.686  11.144  17.064  0.00  0.00    +0.000 S 
ENDBRANCH  24  25
ENDBRANCH  21  24
ENDBRANCH   5  21
TORSDOF 6
ENDMDL
MODEL 3
REMARK VINA RESULT:      -6.2      2.539      7.125
REMARK  Name = 
REMARK  8 active torsions:
REMARK  status: ('A' for Active; 'I' for Inactive)
REMARK    1  A    between atoms: C_1  and  O_2
REMARK    2  A    between atoms: O_2  and  C_3
REMARK    3  A    between atoms: C_6  and  C_7
REMARK    4  A    between atoms: C_10  and  C_11
REMARK    5  A    between atoms: C_14  and  C_15
REMARK    6  A    between atoms: C_18  and  S_19
REMARK    7  A    between atoms: S_19  and  C_22
REMARK    8  A    between atoms: C_22  and  C_23
REMARK                            x       y       z     vdW  Elec       q    Type
REMARK                         _______ _______ _______ _____ _____    ______ ____
ROOT
ATOM      1  C   UNL     1       0.584  11.446  20.578  0.00  0.00    +0.000 C 
ATOM      2  N   UNL     1       1.453  12.234  21.118  0.00  0.00    +0.000 NA
ATOM      3  O   UNL     1       0.759  13.240  21.804  0.00  0.00    +0.000 OA
ATOM      4  C   UNL     1      -0.664  13.079  21.611  0.00  0.00    +0.000 C 
ATOM      5  C   UNL     1      -0.849  11.816  20.773  0.00  0.00    +0.000 C 
ENDROOT
BRANCH   4   6
ATOM      6  C   UNL     1      -1.216  14.438  21.234  0.00  0.00    +0.000 A 
ATOM      7  C   UNL     1      -2.456  14.891  21.713  0.00  0.00    +0.000 A 
ATOM      8  C   UNL     1      -3.039  16.058  21.206  0.00  0.00    +0.000 A 
ATOM      9  C   UNL     1      -2.388  16.804  20.221  0.00  0.00    +0.000 A 
ATOM     10  C   UNL     1      -3.047  17.994  19.590  0.00  0.00    +0.000 C 
ATOM     11  C   UNL     1      -1.122  16.396  19.791  0.00  0.00    +0.000 A 
ATOM     12  C   UNL     1      -0.541  15.229  20.294  0.00  0.00    +0.000 A 
ENDBRANCH   4   6
BRANCH   1  16
ATOM     13  C   UNL     1       2.128   7.904  18.741  0.00  0.00    +0.000 A 
ATOM     14  C   UNL     1       1.941   9.060  17.981  0.00  0.00    +0.000 A 
ATOM     15  C   UNL     1       1.358  10.197  18.544  0.00  0.00    +0.000 A 
ATOM     16  C   UNL     1       1.047  10.210  19.904  0.00  0.00    +0.000 A 
ATOM     17  C   UNL     1       1.154   9.030  20.648  0.00  0.00    +0.000 A 
ATOM     18  C   UNL     1       1.686   7.875  20.063  0.00  0.00    +0.000 A 
BRANCH  13  20
ATOM     19  C   UNL     1       3.479   5.960  18.857  0.00  0.00    +0.000 C 
ATOM     20  O   UNL     1       2.714   6.868  18.070  0.00  0.00    +0.000 OA
ENDBRANCH  13  20
ENDBRANCH   1  16
BRANCH   5  21
ATOM     21  S   UNL     1      -1.830  12.034  19.307  0.00  0.00    +0.000 S 
ATOM     22  O   UNL     1      -3.103  12.572  19.745  0.00  0.00    +0.000 OA
ATOM     23  O   UNL     1      -1.031  12.715  18.307  0.00  0.00    +0.000 OA
BRANCH  21  24
ATOM     24  C   UNL     1      -2.153  10.408  18.707  0.00  0.00    +0.000 C 
BRANCH  24  25
ATOM     25  C   UNL     1      -2.640  10.374  17.305  0.00  0.00    +0.000 C 
ATOM     26  N   UNL     1      -1.989   9.820  16.334  0.00  0.00    +0.000 NA
ATOM     27  C   UNL     1      -2.652  10.143  15.051  0.00  0.00    +0.000 C 
ATOM     28  C   UNL     1      -4.113  10.493  15.285  0.00  0.00    +0.000 C 
ATOM     29  S   UNL     1      -4.076  11.283  16.898  0.00  0.00    +0.000 S 
ENDBRANCH  24  25
ENDBRANCH  21  24
ENDBRANCH   5  21
TORSDOF 6
ENDMDL
MODEL 4
REMARK VINA RESULT:      -6.1      0.987      1.375
REMARK  Name = 
REMARK  8 active torsions:
REMARK  status: ('A' for Active; 'I' for Inactive)
REMARK    1  A    between atoms: C_1  and  O_2
REMARK    2  A    between atoms: O_2  and  C_3
REMARK    3  A    between atoms: C_6  and  C_7
REMARK    4  A    between atoms: C_10  and  C_11
REMARK    5  A    between atoms: C_14  and  C_15
REMARK    6  A    between atoms: C_18  and  S_19
REMARK    7  A    between atoms: S_19  and  C_22
REMARK    8  A    between atoms: C_22  and  C_23
REMARK                            x       y       z     vdW  Elec       q    Type
REMARK                         _______ _______ _______ _____ _____    ______ ____
ROOT
ATOM      1  C   UNL     1      -0.317  11.172  22.398  0.00  0.00    +0.000 C 
ATOM      2  N   UNL     1       0.080  10.316  23.280  0.00  0.00    +0.000 NA
ATOM      3  O   UNL     1       1.153   9.598  22.735  0.00  0.00    +0.000 OA
ATOM      4  C   UNL     1       1.389  10.020  21.373  0.00  0.00    +0.000 C 
ATOM      5  C   UNL     1       0.397  11.145  21.087  0.00  0.00    +0.000 C 
ENDROOT
BRANCH   4   6
ATOM      6  C   UNL     1       1.515   8.764  20.537  0.00  0.00    +0.000 A 
ATOM      7  C   UNL     1       1.223   7.494  21.061  0.00  0.00    +0.000 A 
ATOM      8  C   UNL     1       1.527   6.333  20.342  0.00  0.00    +0.000 A 
ATOM      9  C   UNL     1       2.116   6.417  19.078  0.00  0.00    +0.000 A 
ATOM     10  C   UNL     1       2.549   5.183  18.343  0.00  0.00    +0.000 C 
ATOM     11  C   UNL     1       2.345   7.679  18.522  0.00  0.00    +0.000 A 
ATOM     12  C   UNL     1       2.045   8.839  19.240  0.00  0.00    +0.000 A 
ENDBRANCH   4   6
BRANCH   1  16
ATOM     13  C   UNL     1      -3.220  14.046  23.672  0.00  0.00    +0.000 A 
ATOM     14  C   UNL     1      -3.583  12.707  23.521  0.00  0.00    +0.000 A 
ATOM     15  C   UNL     1      -2.671  11.772  23.024  0.00  0.00    +0.000 A 
ATOM     16  C   UNL     1      -1.357  12.162  22.766  0.00  0.00    +0.000 A 
ATOM     17  C   UNL     1      -1.013  13.516  22.834  0.00  0.00    +0.000 A 
ATOM     18  C   UNL     1      -1.947  14.459  23.279  0.00  0.00    +0.000 A 
BRANCH  13  20
ATOM     19  C   UNL     1      -5.540  14.512  23.820  0.00  0.00    +0.000 C 
ATOM     20  O   UNL     1      -4.203  14.851  24.174  0.00  0.00    +0.000 OA
ENDBRANCH  13  20
ENDBRANCH   1  16
BRANCH   5  21
ATOM     21  S   UNL     1      -0.598  10.907  19.634  0.00  0.00    +0.000 S 
ATOM     22  O   UNL     1       0.285  11.101  18.500  0.00  0.00    +0.000 OA
ATOM     23  O   UNL     1      -1.365   9.686  19.788  0.00  0.00    +0.000 OA
BRANCH  21  24
ATOM     24  C   UNL     1      -1.740  12.250  19.616  0.00  0.00    +0.000 C 
BRANCH  24  25
ATOM     25  C   UNL     1      -2.998  11.954  18.885  0.00  0.00    +0.000 C 
ATOM     26  N   UNL     1      -3.036  11.611  17.638  0.00  0.00    +0.000 NA
ATOM     27  C   UNL     1      -4.442  11.592  17.178  0.00  0.00    +0.000 C 
ATOM     28  C   UNL     1      -5.382  11.407  18.359  0.00  0.00    +0.000 C 
ATOM     29  S   UNL     1      -4.521  12.258  19.686  0.00  0.00    +0.000 S 
ENDBRANCH  24  25
ENDBRANCH  21  24
ENDBRANCH   5  21
TORSDOF 6
ENDMDL
MODEL 5
REMARK VINA RESULT:      -6.0      1.665      6.876
REMARK  Name = 
REMARK  8 active torsions:
REMARK  status: ('A' for Active; 'I' for Inactive)
REMARK    1  A    between atoms: C_1  and  O_2
REMARK    2  A    between atoms: O_2  and  C_3
REMARK    3  A    between atoms: C_6  and  C_7
REMARK    4  A    between atoms: C_10  and  C_11
REMARK    5  A    between atoms: C_14  and  C_15
REMARK    6  A    between atoms: C_18  and  S_19
REMARK    7  A    between atoms: S_19  and  C_22
REMARK    8  A    between atoms: C_22  and  C_23
REMARK                            x       y       z     vdW  Elec       q    Type
REMARK                         _______ _______ _______ _____ _____    ______ ____
ROOT
ATOM      1  C   UNL     1       0.676   9.449  21.237  0.00  0.00    +0.000 C 
ATOM      2  N   UNL     1       1.274   9.706  22.353  0.00  0.00    +0.000 NA
ATOM      3  O   UNL     1       0.391  10.441  23.157  0.00  0.00    +0.000 OA
ATOM      4  C   UNL     1      -0.833  10.702  22.435  0.00  0.00    +0.000 C 
ATOM      5  C   UNL     1      -0.699  10.008  21.083  0.00  0.00    +0.000 C 
ENDROOT
BRANCH   4   6
ATOM      6  C   UNL     1      -1.142  12.175  22.608  0.00  0.00    +0.000 A 
ATOM      7  C   UNL     1      -0.199  13.169  22.298  0.00  0.00    +0.000 A 
ATOM      8  C   UNL     1      -0.426  14.507  22.643  0.00  0.00    +0.000 A 
ATOM      9  C   UNL     1      -1.606  14.880  23.292  0.00  0.00    +0.000 A 
ATOM     10  C   UNL     1      -1.815  16.288  23.766  0.00  0.00    +0.000 C 
ATOM     11  C   UNL     1      -2.577  13.906  23.540  0.00  0.00    +0.000 A 
ATOM     12  C   UNL     1      -2.350  12.571  23.199  0.00  0.00    +0.000 A 
ENDBRANCH   4   6
BRANCH   1  16
ATOM     13  C   UNL     1       2.777   6.900  18.516  0.00  0.00    +0.000 A 
ATOM     14  C   UNL     1       2.453   8.205  18.141  0.00  0.00    +0.000 A 
ATOM     15  C   UNL     1       1.693   9.021  18.983  0.00  0.00    +0.000 A 
ATOM     16  C   UNL     1       1.336   8.560  20.250  0.00  0.00    +0.000 A 
ATOM     17  C   UNL     1       1.585   7.228  20.596  0.00  0.00    +0.000 A 
ATOM     18  C   UNL     1       2.298   6.396  19.725  0.00  0.00    +0.000 A 
BRANCH  13  20
ATOM     19  C   UNL     1       4.743   6.836  17.192  0.00  0.00    +0.000 C 
ATOM     20  O   UNL     1       3.530   6.214  17.606  0.00  0.00    +0.000 OA
ENDBRANCH  13  20
ENDBRANCH   1  16
BRANCH   5  21
ATOM     21  S   UNL     1      -0.989  11.055  19.677  0.00  0.00    +0.000 S 
ATOM     22  O   UNL     1      -2.178  11.828  19.983  0.00  0.00    +0.000 OA
ATOM     23  O   UNL     1       0.255  11.705  19.314  0.00  0.00    +0.000 OA
BRANCH  21  24
ATOM     24  C   UNL     1      -1.423   9.969  18.358  0.00  0.00    +0.000 C 
BRANCH  24  25
ATOM     25  C   UNL     1      -2.571  10.445  17.545  0.00  0.00    +0.000 C 
ATOM     26  N   UNL     1      -3.600  11.046  18.046  0.00  0.00    +0.000 NA
ATOM     27  C   UNL     1      -4.636  11.198  17.000  0.00  0.00    +0.000 C 
ATOM     28  C   UNL     1      -4.002  11.152  15.618  0.00  0.00    +0.000 C 
ATOM     29  S   UNL     1      -2.630  10.016  15.852  0.00  0.00    +0.000 S 
ENDBRANCH  24  25
ENDBRANCH  21  24
ENDBRANCH   5  21
TORSDOF 6
ENDMDL
MODEL 6
REMARK VINA RESULT:      -5.9      3.700      5.286
REMARK  Name = 
REMARK  8 active torsions:
REMARK  status: ('A' for Active; 'I' for Inactive)
REMARK    1  A    between atoms: C_1  and  O_2
REMARK    2  A    between atoms: O_2  and  C_3
REMARK    3  A    between atoms: C_6  and  C_7
REMARK    4  A    between atoms: C_10  and  C_11
REMARK    5  A    between atoms: C_14  and  C_15
REMARK    6  A    between atoms: C_18  and  S_19
REMARK    7  A    between atoms: S_19  and  C_22
REMARK    8  A    between atoms: C_22  and  C_23
REMARK                            x       y       z     vdW  Elec       q    Type
REMARK                         _______ _______ _______ _____ _____    ______ ____
ROOT
ATOM      1  C   UNL     1      -0.701  14.692  22.102  0.00  0.00    +0.000 C 
ATOM      2  N   UNL     1       0.200  15.295  22.803  0.00  0.00    +0.000 NA
ATOM      3  O   UNL     1       1.050  15.978  21.922  0.00  0.00    +0.000 OA
ATOM      4  C   UNL     1       0.659  15.713  20.555  0.00  0.00    +0.000 C 
ATOM      5  C   UNL     1      -0.584  14.830  20.620  0.00  0.00    +0.000 C 
ENDROOT
BRANCH   4   6
ATOM      6  C   UNL     1       1.920  15.352  19.797  0.00  0.00    +0.000 A 
ATOM      7  C   UNL     1       2.951  14.605  20.391  0.00  0.00    +0.000 A 
ATOM      8  C   UNL     1       4.184  14.446  19.748  0.00  0.00    +0.000 A 
ATOM      9  C   UNL     1       4.407  15.016  18.492  0.00  0.00    +0.000 A 
ATOM     10  C   UNL     1       5.755  14.948  17.840  0.00  0.00    +0.000 C 
ATOM     11  C   UNL     1       3.361  15.701  17.867  0.00  0.00    +0.000 A 
ATOM     12  C   UNL     1       2.131  15.864  18.509  0.00  0.00    +0.000 A 
ENDBRANCH   4   6
BRANCH   1  16
ATOM     13  C   UNL     1      -3.975  12.603  23.899  0.00  0.00    +0.000 A 
ATOM     14  C   UNL     1      -4.064  13.977  23.672  0.00  0.00    +0.000 A 
ATOM     15  C   UNL     1      -2.974  14.689  23.166  0.00  0.00    +0.000 A 
ATOM     16  C   UNL     1      -1.817  14.004  22.795  0.00  0.00    +0.000 A 
ATOM     17  C   UNL     1      -1.692  12.644  23.098  0.00  0.00    +0.000 A 
ATOM     18  C   UNL     1      -2.768  11.946  23.658  0.00  0.00    +0.000 A 
BRANCH  13  20
ATOM     19  C   UNL     1      -6.338  12.687  24.074  0.00  0.00    +0.000 C 
ATOM     20  O   UNL     1      -5.114  12.029  24.388  0.00  0.00    +0.000 OA
ENDBRANCH  13  20
ENDBRANCH   1  16
BRANCH   5  21
ATOM     21  S   UNL     1      -0.479  13.327  19.678  0.00  0.00    +0.000 S 
ATOM     22  O   UNL     1      -0.233  13.723  18.305  0.00  0.00    +0.000 OA
ATOM     23  O   UNL     1       0.406  12.407  20.364  0.00  0.00    +0.000 OA
BRANCH  21  24
ATOM     24  C   UNL     1      -2.098  12.629  19.717  0.00  0.00    +0.000 C 
BRANCH  24  25
ATOM     25  C   UNL     1      -2.302  11.538  18.731  0.00  0.00    +0.000 C 
ATOM     26  N   UNL     1      -1.361  10.737  18.348  0.00  0.00    +0.000 NA
ATOM     27  C   UNL     1      -1.849   9.911  17.221  0.00  0.00    +0.000 C 
ATOM     28  C   UNL     1      -3.368   9.831  17.244  0.00  0.00    +0.000 C 
ATOM     29  S   UNL     1      -3.837  11.435  17.904  0.00  0.00    +0.000 S 
ENDBRANCH  24  25
ENDBRANCH  21  24
ENDBRANCH   5  21
TORSDOF 6
ENDMDL
MODEL 7
REMARK VINA RESULT:      -5.8      4.061      6.132
REMARK  Name = 
REMARK  8 active torsions:
REMARK  status: ('A' for Active; 'I' for Inactive)
REMARK    1  A    between atoms: C_1  and  O_2
REMARK    2  A    between atoms: O_2  and  C_3
REMARK    3  A    between atoms: C_6  and  C_7
REMARK    4  A    between atoms: C_10  and  C_11
REMARK    5  A    between atoms: C_14  and  C_15
REMARK    6  A    between atoms: C_18  and  S_19
REMARK    7  A    between atoms: S_19  and  C_22
REMARK    8  A    between atoms: C_22  and  C_23
REMARK                            x       y       z     vdW  Elec       q    Type
REMARK                         _______ _______ _______ _____ _____    ______ ____
ROOT
ATOM      1  C   UNL     1       0.022  15.119  20.656  0.00  0.00    +0.000 C 
ATOM      2  N   UNL     1       0.386  16.313  20.989  0.00  0.00    +0.000 NA
ATOM      3  O   UNL     1       1.357  16.740  20.073  0.00  0.00    +0.000 OA
ATOM      4  C   UNL     1       1.650  15.682  19.133  0.00  0.00    +0.000 C 
ATOM      5  C   UNL     1       0.721  14.521  19.481  0.00  0.00    +0.000 C 
ENDROOT
BRANCH   4   6
ATOM      6  C   UNL     1       3.158  15.569  19.050  0.00  0.00    +0.000 A 
ATOM      7  C   UNL     1       3.810  15.250  17.847  0.00  0.00    +0.000 A 
ATOM      8  C   UNL     1       5.179  14.960  17.828  0.00  0.00    +0.000 A 
ATOM      9  C   UNL     1       5.927  14.997  19.008  0.00  0.00    +0.000 A 
ATOM     10  C   UNL     1       7.369  14.582  19.022  0.00  0.00    +0.000 C 
ATOM     11  C   UNL     1       5.298  15.382  20.195  0.00  0.00    +0.000 A 
ATOM     12  C   UNL     1       3.931  15.668  20.216  0.00  0.00    +0.000 A 
ENDBRANCH   4   6
BRANCH   1  16
ATOM     13  C   UNL     1      -3.116  13.061  22.713  0.00  0.00    +0.000 A 
ATOM     14  C   UNL     1      -3.339  13.573  21.434  0.00  0.00    +0.000 A 
ATOM     15  C   UNL     1      -2.354  14.322  20.784  0.00  0.00    +0.000 A 
ATOM     16  C   UNL     1      -1.102  14.478  21.379  0.00  0.00    +0.000 A 
ATOM     17  C   UNL     1      -0.903  14.040  22.693  0.00  0.00    +0.000 A 
ATOM     18  C   UNL     1      -1.913  13.339  23.362  0.00  0.00    +0.000 A 
BRANCH  13  20
ATOM     19  C   UNL     1      -4.330  12.410  24.642  0.00  0.00    +0.000 C 
ATOM     20  O   UNL     1      -4.156  12.342  23.230  0.00  0.00    +0.000 OA
ENDBRANCH  13  20
ENDBRANCH   1  16
BRANCH   5  21
ATOM     21  S   UNL     1       1.540  12.965  19.739  0.00  0.00    +0.000 S 
ATOM     22  O   UNL     1       2.232  12.659  18.502  0.00  0.00    +0.000 OA
ATOM     23  O   UNL     1       2.248  13.014  21.003  0.00  0.00    +0.000 OA
BRANCH  21  24
ATOM     24  C   UNL     1       0.252  11.773  19.901  0.00  0.00    +0.000 C 
BRANCH  24  25
ATOM     25  C   UNL     1       0.670  10.533  20.603  0.00  0.00    +0.000 C 
ATOM     26  N   UNL     1       0.737  10.429  21.891  0.00  0.00    +0.000 NA
ATOM     27  C   UNL     1       1.378   9.143  22.246  0.00  0.00    +0.000 C 
ATOM     28  C   UNL     1       1.229   8.147  21.107  0.00  0.00    +0.000 C 
ATOM     29  S   UNL     1       1.279   9.200  19.652  0.00  0.00    +0.000 S 
ENDBRANCH  24  25
ENDBRANCH  21  24
ENDBRANCH   5  21
TORSDOF 6
ENDMDL
MODEL 8
REMARK VINA RESULT:      -5.8      4.022      6.220
REMARK  Name = 
REMARK  8 active torsions:
REMARK  status: ('A' for Active; 'I' for Inactive)
REMARK    1  A    between atoms: C_1  and  O_2
REMARK    2  A    between atoms: O_2  and  C_3
REMARK    3  A    between atoms: C_6  and  C_7
REMARK    4  A    between atoms: C_10  and  C_11
REMARK    5  A    between atoms: C_14  and  C_15
REMARK    6  A    between atoms: C_18  and  S_19
REMARK    7  A    between atoms: S_19  and  C_22
REMARK    8  A    between atoms: C_22  and  C_23
REMARK                            x       y       z     vdW  Elec       q    Type
REMARK                         _______ _______ _______ _____ _____    ______ ____
ROOT
ATOM      1  C   UNL     1      -0.544  15.057  20.559  0.00  0.00    +0.000 C 
ATOM      2  N   UNL     1      -0.235  16.292  20.775  0.00  0.00    +0.000 NA
ATOM      3  O   UNL     1       0.745  16.663  19.844  0.00  0.00    +0.000 OA
ATOM      4  C   UNL     1       1.104  15.527  19.025  0.00  0.00    +0.000 C 
ATOM      5  C   UNL     1       0.211  14.371  19.469  0.00  0.00    +0.000 C 
ENDROOT
BRANCH   4   6
ATOM      6  C   UNL     1       2.617  15.468  18.991  0.00  0.00    +0.000 A 
ATOM      7  C   UNL     1       3.394  15.758  20.124  0.00  0.00    +0.000 A 
ATOM      8  C   UNL     1       4.784  15.889  20.027  0.00  0.00    +0.000 A 
ATOM      9  C   UNL     1       5.428  15.716  18.799  0.00  0.00    +0.000 A 
ATOM     10  C   UNL     1       6.900  15.959  18.656  0.00  0.00    +0.000 C 
ATOM     11  C   UNL     1       4.666  15.357  17.682  0.00  0.00    +0.000 A 
ATOM     12  C   UNL     1       3.278  15.231  17.777  0.00  0.00    +0.000 A 
ENDBRANCH   4   6
BRANCH   1  16
ATOM     13  C   UNL     1      -3.632  13.117  22.797  0.00  0.00    +0.000 A 
ATOM     14  C   UNL     1      -3.710  13.174  21.405  0.00  0.00    +0.000 A 
ATOM     15  C   UNL     1      -2.756  13.877  20.665  0.00  0.00    +0.000 A 
ATOM     16  C   UNL     1      -1.663  14.447  21.317  0.00  0.00    +0.000 A 
ATOM     17  C   UNL     1      -1.625  14.465  22.715  0.00  0.00    +0.000 A 
ATOM     18  C   UNL     1      -2.614  13.807  23.455  0.00  0.00    +0.000 A 
BRANCH  13  20
ATOM     19  C   UNL     1      -4.596  12.340  24.819  0.00  0.00    +0.000 C 
ATOM     20  O   UNL     1      -4.622  12.391  23.396  0.00  0.00    +0.000 OA
ENDBRANCH  13  20
ENDBRANCH   1  16
BRANCH   5  21
ATOM     21  S   UNL     1       1.081  12.884  19.906  0.00  0.00    +0.000 S 
ATOM     22  O   UNL     1       1.924  12.557  18.772  0.00  0.00    +0.000 OA
ATOM     23  O   UNL     1       1.639  13.043  21.235  0.00  0.00    +0.000 OA
BRANCH  21  24
ATOM     24  C   UNL     1      -0.149  11.624  19.997  0.00  0.00    +0.000 C 
BRANCH  24  25
ATOM     25  C   UNL     1       0.128  10.592  21.028  0.00  0.00    +0.000 C 
ATOM     26  N   UNL     1       0.885   9.564  20.824  0.00  0.00    +0.000 NA
ATOM     27  C   UNL     1       0.783   8.643  21.977  0.00  0.00    +0.000 C 
ATOM     28  C   UNL     1       0.330   9.398  23.217  0.00  0.00    +0.000 C 
ATOM     29  S   UNL     1      -0.751  10.662  22.537  0.00  0.00    +0.000 S 
ENDBRANCH  24  25
ENDBRANCH  21  24
ENDBRANCH   5  21
TORSDOF 6
ENDMDL
MODEL 9
REMARK VINA RESULT:      -5.7      1.646      2.347
REMARK  Name = 
REMARK  8 active torsions:
REMARK  status: ('A' for Active; 'I' for Inactive)
REMARK    1  A    between atoms: C_1  and  O_2
REMARK    2  A    between atoms: O_2  and  C_3
REMARK    3  A    between atoms: C_6  and  C_7
REMARK    4  A    between atoms: C_10  and  C_11
REMARK    5  A    between atoms: C_14  and  C_15
REMARK    6  A    between atoms: C_18  and  S_19
REMARK    7  A    between atoms: S_19  and  C_22
REMARK    8  A    between atoms: C_22  and  C_23
REMARK                            x       y       z     vdW  Elec       q    Type
REMARK                         _______ _______ _______ _____ _____    ______ ____
ROOT
ATOM      1  C   UNL     1      -1.064  12.226  21.996  0.00  0.00    +0.000 C 
ATOM      2  N   UNL     1      -0.383  11.506  22.825  0.00  0.00    +0.000 NA
ATOM      3  O   UNL     1       0.769  11.058  22.165  0.00  0.00    +0.000 OA
ATOM      4  C   UNL     1       0.753  11.501  20.789  0.00  0.00    +0.000 C 
ATOM      5  C   UNL     1      -0.505  12.348  20.618  0.00  0.00    +0.000 C 
ENDROOT
BRANCH   4   6
ATOM      6  C   UNL     1       1.091  10.296  19.934  0.00  0.00    +0.000 A 
ATOM      7  C   UNL     1       1.093   8.994  20.459  0.00  0.00    +0.000 A 
ATOM      8  C   UNL     1       1.592   7.920  19.714  0.00  0.00    +0.000 A 
ATOM      9  C   UNL     1       2.084   8.123  18.422  0.00  0.00    +0.000 A 
ATOM     10  C   UNL     1       2.722   7.004  17.653  0.00  0.00    +0.000 C 
ATOM     11  C   UNL     1       2.019   9.405  17.868  0.00  0.00    +0.000 A 
ATOM     12  C   UNL     1       1.525  10.478  18.613  0.00  0.00    +0.000 A 
ENDBRANCH   4   6
BRANCH   1  16
ATOM     13  C   UNL     1      -4.410  14.383  23.565  0.00  0.00    +0.000 A 
ATOM     14  C   UNL     1      -4.347  12.995  23.704  0.00  0.00    +0.000 A 
ATOM     15  C   UNL     1      -3.306  12.267  23.123  0.00  0.00    +0.000 A 
ATOM     16  C   UNL     1      -2.268  12.943  22.480  0.00  0.00    +0.000 A 
ATOM     17  C   UNL     1      -2.370  14.321  22.266  0.00  0.00    +0.000 A 
ATOM     18  C   UNL     1      -3.445  15.040  22.802  0.00  0.00    +0.000 A 
BRANCH  13  20
ATOM     19  C   UNL     1      -6.745  14.794  23.570  0.00  0.00    +0.000 C 
ATOM     20  O   UNL     1      -5.474  14.972  24.188  0.00  0.00    +0.000 OA
ENDBRANCH  13  20
ENDBRANCH   1  16
BRANCH   5  21
ATOM     21  S   UNL     1      -1.559  11.852  19.276  0.00  0.00    +0.000 S 
ATOM     22  O   UNL     1      -0.970  12.403  18.070  0.00  0.00    +0.000 OA
ATOM     23  O   UNL     1      -1.832  10.433  19.396  0.00  0.00    +0.000 OA
BRANCH  21  24
ATOM     24  C   UNL     1      -3.080  12.706  19.527  0.00  0.00    +0.000 C 
BRANCH  24  25
ATOM     25  C   UNL     1      -4.246  12.054  18.877  0.00  0.00    +0.000 C 
ATOM     26  N   UNL     1      -4.264  11.698  17.634  0.00  0.00    +0.000 NA
ATOM     27  C   UNL     1      -5.632  11.272  17.266  0.00  0.00    +0.000 C 
ATOM     28  C   UNL     1      -6.402  10.842  18.505  0.00  0.00    +0.000 C 
ATOM     29  S   UNL     1      -5.737  11.922  19.778  0.00  0.00    +0.000 S 
ENDBRANCH  24  25
ENDBRANCH  21  24
ENDBRANCH   5  21
TORSDOF 6
ENDMDL
