MODEL 1
REMARK VINA RESULT:      -7.5      0.000      0.000
REMARK  Name = 
REMARK  7 active torsions:
REMARK  status: ('A' for Active; 'I' for Inactive)
REMARK    1  A    between atoms: C_1  and  C_2
REMARK    2  A    between atoms: C_2  and  C_3
REMARK    3  A    between atoms: C_7  and  N_8
REMARK    4  A    between atoms: N_8  and  C_9
REMARK    5  A    between atoms: C_10  and  C_11
REMARK    6  A    between atoms: C_13  and  C_14
REMARK    7  A    between atoms: C_16  and  C_17
REMARK                            x       y       z     vdW  Elec       q    Type
REMARK                         _______ _______ _______ _____ _____    ______ ____
ROOT
ATOM      1  N   UNL     1       3.263   4.981  17.396  0.00  0.00    +0.000 N 
ATOM      2  H   UNL     1       2.577   5.132  16.668  0.00  0.00    +0.000 HD
ENDROOT
BRANCH   1   3
ATOM      3  C   UNL     1       2.708   4.413  18.566  0.00  0.00    +0.000 A 
ATOM      4  C   UNL     1       2.640   3.000  18.669  0.00  0.00    +0.000 A 
ATOM      5  C   UNL     1       3.081   2.068  17.570  0.00  0.00    +0.000 C 
ATOM      6  C   UNL     1       2.131   2.402  19.837  0.00  0.00    +0.000 A 
ATOM      7  C   UNL     1       1.692   3.173  20.913  0.00  0.00    +0.000 A 
ATOM      8  C   UNL     1       1.201   2.539  22.180  0.00  0.00    +0.000 C 
ATOM      9  C   UNL     1       1.769   4.564  20.815  0.00  0.00    +0.000 A 
ATOM     10  C   UNL     1       2.275   5.196  19.664  0.00  0.00    +0.000 A 
ATOM     11  C   UNL     1       2.422   6.696  19.719  0.00  0.00    +0.000 C 
ENDBRANCH   1   3
BRANCH   1  16
ATOM     12  C   UNL     1       6.849   6.048  17.373  0.00  0.00    +0.000 A 
ATOM     13  C   UNL     1       7.297   5.384  16.225  0.00  0.00    +0.000 A 
ATOM     14  C   UNL     1       6.411   4.625  15.464  0.00  0.00    +0.000 A 
ATOM     15  C   UNL     1       5.073   4.518  15.850  0.00  0.00    +0.000 A 
ATOM     16  C   UNL     1       4.595   5.168  16.996  0.00  0.00    +0.000 A 
ATOM     17  C   UNL     1       5.497   5.941  17.739  0.00  0.00    +0.000 A 
BRANCH  12  19
ATOM     18  C   UNL     1       7.861   8.311  17.677  0.00  0.00    +0.000 C 
ATOM     19  C   UNL     1       7.792   6.885  18.196  0.00  0.00    +0.000 C 
ENDBRANCH  12  19
ENDBRANCH   1  16
TORSDOF 3
ENDMDL
MODEL 2
REMARK VINA RESULT:      -7.5      0.133      2.064
REMARK  Name = 
REMARK  7 active torsions:
REMARK  status: ('A' for Active; 'I' for Inactive)
REMARK    1  A    between atoms: C_1  and  C_2
REMARK    2  A    between atoms: C_2  and  C_3
REMARK    3  A    between atoms: C_7  and  N_8
REMARK    4  A    between atoms: N_8  and  C_9
REMARK    5  A    between atoms: C_10  and  C_11
REMARK    6  A    between atoms: C_13  and  C_14
REMARK    7  A    between atoms: C_16  and  C_17
REMARK                            x       y       z     vdW  Elec       q    Type
REMARK                         _______ _______ _______ _____ _____    ______ ____
ROOT
ATOM      1  N   UNL     1       3.324   5.056  17.500  0.00  0.00    +0.000 N 
ATOM      2  H   UNL     1       2.597   5.260  16.826  0.00  0.00    +0.000 HD
ENDROOT
BRANCH   1   3
ATOM      3  C   UNL     1       2.837   4.397  18.652  0.00  0.00    +0.000 A 
ATOM      4  C   UNL     1       2.363   5.182  19.734  0.00  0.00    +0.000 A 
ATOM      5  C   UNL     1       2.402   6.688  19.743  0.00  0.00    +0.000 C 
ATOM      6  C   UNL     1       1.832   4.558  20.879  0.00  0.00    +0.000 A 
ATOM      7  C   UNL     1       1.754   3.169  20.975  0.00  0.00    +0.000 A 
ATOM      8  C   UNL     1       1.139   2.502  22.168  0.00  0.00    +0.000 C 
ATOM      9  C   UNL     1       2.210   2.397  19.904  0.00  0.00    +0.000 A 
ATOM     10  C   UNL     1       2.744   2.986  18.743  0.00  0.00    +0.000 A 
ATOM     11  C   UNL     1       3.093   2.059  17.606  0.00  0.00    +0.000 C 
ENDBRANCH   1   3
BRANCH   1  16
ATOM     12  C   UNL     1       6.884   6.193  17.326  0.00  0.00    +0.000 A 
ATOM     13  C   UNL     1       7.287   5.565  16.142  0.00  0.00    +0.000 A 
ATOM     14  C   UNL     1       6.378   4.807  15.407  0.00  0.00    +0.000 A 
ATOM     15  C   UNL     1       5.063   4.665  15.856  0.00  0.00    +0.000 A 
ATOM     16  C   UNL     1       4.630   5.278  17.040  0.00  0.00    +0.000 A 
ATOM     17  C   UNL     1       5.554   6.051  17.755  0.00  0.00    +0.000 A 
BRANCH  12  19
ATOM     18  C   UNL     1       7.848   8.474  17.654  0.00  0.00    +0.000 C 
ATOM     19  C   UNL     1       7.852   7.028  18.123  0.00  0.00    +0.000 C 
ENDBRANCH  12  19
ENDBRANCH   1  16
TORSDOF 3
ENDMDL
MODEL 3
REMARK VINA RESULT:      -7.2      1.117      2.322
REMARK  Name = 
REMARK  7 active torsions:
REMARK  status: ('A' for Active; 'I' for Inactive)
REMARK    1  A    between atoms: C_1  and  C_2
REMARK    2  A    between atoms: C_2  and  C_3
REMARK    3  A    between atoms: C_7  and  N_8
REMARK    4  A    between atoms: N_8  and  C_9
REMARK    5  A    between atoms: C_10  and  C_11
REMARK    6  A    between atoms: C_13  and  C_14
REMARK    7  A    between atoms: C_16  and  C_17
REMARK                            x       y       z     vdW  Elec       q    Type
REMARK                         _______ _______ _______ _____ _____    ______ ____
ROOT
ATOM      1  N   UNL     1       3.493   4.712  17.413  0.00  0.00    +0.000 N 
ATOM      2  H   UNL     1       2.830   4.992  16.700  0.00  0.00    +0.000 HD
ENDROOT
BRANCH   1   3
ATOM      3  C   UNL     1       2.869   4.223  18.583  0.00  0.00    +0.000 A 
ATOM      4  C   UNL     1       2.794   2.820  18.778  0.00  0.00    +0.000 A 
ATOM      5  C   UNL     1       3.298   1.817  17.772  0.00  0.00    +0.000 C 
ATOM      6  C   UNL     1       2.215   2.301  19.951  0.00  0.00    +0.000 A 
ATOM      7  C   UNL     1       1.714   3.142  20.945  0.00  0.00    +0.000 A 
ATOM      8  C   UNL     1       1.148   2.594  22.220  0.00  0.00    +0.000 C 
ATOM      9  C   UNL     1       1.799   4.523  20.757  0.00  0.00    +0.000 A 
ATOM     10  C   UNL     1       2.372   5.078  19.598  0.00  0.00    +0.000 A 
ATOM     11  C   UNL     1       2.518   6.578  19.560  0.00  0.00    +0.000 C 
ENDBRANCH   1   3
BRANCH   1  16
ATOM     12  C   UNL     1       6.526   4.675  15.223  0.00  0.00    +0.000 A 
ATOM     13  C   UNL     1       7.532   4.766  16.191  0.00  0.00    +0.000 A 
ATOM     14  C   UNL     1       7.200   4.808  17.543  0.00  0.00    +0.000 A 
ATOM     15  C   UNL     1       5.860   4.766  17.936  0.00  0.00    +0.000 A 
ATOM     16  C   UNL     1       4.830   4.678  16.989  0.00  0.00    +0.000 A 
ATOM     17  C   UNL     1       5.184   4.619  15.635  0.00  0.00    +0.000 A 
BRANCH  12  19
ATOM     18  C   UNL     1       5.981   3.625  13.022  0.00  0.00    +0.000 C 
ATOM     19  C   UNL     1       6.870   4.614  13.758  0.00  0.00    +0.000 C 
ENDBRANCH  12  19
ENDBRANCH   1  16
TORSDOF 3
ENDMDL
MODEL 4
REMARK VINA RESULT:      -7.1      1.687      2.654
REMARK  Name = 
REMARK  7 active torsions:
REMARK  status: ('A' for Active; 'I' for Inactive)
REMARK    1  A    between atoms: C_1  and  C_2
REMARK    2  A    between atoms: C_2  and  C_3
REMARK    3  A    between atoms: C_7  and  N_8
REMARK    4  A    between atoms: N_8  and  C_9
REMARK    5  A    between atoms: C_10  and  C_11
REMARK    6  A    between atoms: C_13  and  C_14
REMARK    7  A    between atoms: C_16  and  C_17
REMARK                            x       y       z     vdW  Elec       q    Type
REMARK                         _______ _______ _______ _____ _____    ______ ____
ROOT
ATOM      1  N   UNL     1       4.888   6.166  16.829  0.00  0.00    +0.000 N 
ATOM      2  H   UNL     1       4.807   6.431  15.855  0.00  0.00    +0.000 HD
ENDROOT
BRANCH   1   3
ATOM      3  C   UNL     1       3.850   5.305  17.252  0.00  0.00    +0.000 A 
ATOM      4  C   UNL     1       3.923   3.931  16.907  0.00  0.00    +0.000 A 
ATOM      5  C   UNL     1       5.026   3.348  16.062  0.00  0.00    +0.000 C 
ATOM      6  C   UNL     1       2.927   3.039  17.348  0.00  0.00    +0.000 A 
ATOM      7  C   UNL     1       1.860   3.476  18.132  0.00  0.00    +0.000 A 
ATOM      8  C   UNL     1       0.828   2.520  18.650  0.00  0.00    +0.000 C 
ATOM      9  C   UNL     1       1.795   4.827  18.481  0.00  0.00    +0.000 A 
ATOM     10  C   UNL     1       2.773   5.747  18.060  0.00  0.00    +0.000 A 
ATOM     11  C   UNL     1       2.665   7.151  18.598  0.00  0.00    +0.000 C 
ENDBRANCH   1   3
BRANCH   1  16
ATOM     12  C   UNL     1       7.816   8.196  17.971  0.00  0.00    +0.000 A 
ATOM     13  C   UNL     1       8.445   7.272  18.811  0.00  0.00    +0.000 A 
ATOM     14  C   UNL     1       7.917   5.992  18.965  0.00  0.00    +0.000 A 
ATOM     15  C   UNL     1       6.751   5.630  18.285  0.00  0.00    +0.000 A 
ATOM     16  C   UNL     1       6.096   6.535  17.439  0.00  0.00    +0.000 A 
ATOM     17  C   UNL     1       6.652   7.812  17.283  0.00  0.00    +0.000 A 
BRANCH  12  19
ATOM     18  C   UNL     1       9.112  10.049  19.031  0.00  0.00    +0.000 C 
ATOM     19  C   UNL     1       8.384   9.578  17.783  0.00  0.00    +0.000 C 
ENDBRANCH  12  19
ENDBRANCH   1  16
TORSDOF 3
ENDMDL
MODEL 5
REMARK VINA RESULT:      -7.1      0.694      3.045
REMARK  Name = 
REMARK  7 active torsions:
REMARK  status: ('A' for Active; 'I' for Inactive)
REMARK    1  A    between atoms: C_1  and  C_2
REMARK    2  A    between atoms: C_2  and  C_3
REMARK    3  A    between atoms: C_7  and  N_8
REMARK    4  A    between atoms: N_8  and  C_9
REMARK    5  A    between atoms: C_10  and  C_11
REMARK    6  A    between atoms: C_13  and  C_14
REMARK    7  A    between atoms: C_16  and  C_17
REMARK                            x       y       z     vdW  Elec       q    Type
REMARK                         _______ _______ _______ _____ _____    ______ ____
ROOT
ATOM      1  N   UNL     1       3.311   5.086  17.534  0.00  0.00    +0.000 N 
ATOM      2  H   UNL     1       2.585   5.275  16.853  0.00  0.00    +0.000 HD
ENDROOT
BRANCH   1   3
ATOM      3  C   UNL     1       2.828   4.416  18.680  0.00  0.00    +0.000 A 
ATOM      4  C   UNL     1       2.340   5.189  19.765  0.00  0.00    +0.000 A 
ATOM      5  C   UNL     1       2.360   6.695  19.782  0.00  0.00    +0.000 C 
ATOM      6  C   UNL     1       1.814   4.552  20.905  0.00  0.00    +0.000 A 
ATOM      7  C   UNL     1       1.753   3.162  20.994  0.00  0.00    +0.000 A 
ATOM      8  C   UNL     1       1.143   2.481  22.182  0.00  0.00    +0.000 C 
ATOM      9  C   UNL     1       2.223   2.401  19.921  0.00  0.00    +0.000 A 
ATOM     10  C   UNL     1       2.753   3.003  18.765  0.00  0.00    +0.000 A 
ATOM     11  C   UNL     1       3.117   2.087  17.624  0.00  0.00    +0.000 C 
ENDBRANCH   1   3
BRANCH   1  16
ATOM     12  C   UNL     1       6.393   5.123  15.414  0.00  0.00    +0.000 A 
ATOM     13  C   UNL     1       7.192   6.001  16.155  0.00  0.00    +0.000 A 
ATOM     14  C   UNL     1       6.719   6.541  17.349  0.00  0.00    +0.000 A 
ATOM     15  C   UNL     1       5.441   6.212  17.806  0.00  0.00    +0.000 A 
ATOM     16  C   UNL     1       4.616   5.338  17.085  0.00  0.00    +0.000 A 
ATOM     17  C   UNL     1       5.116   4.792  15.896  0.00  0.00    +0.000 A 
BRANCH  12  19
ATOM     18  C   UNL     1       5.788   3.792  13.389  0.00  0.00    +0.000 C 
ATOM     19  C   UNL     1       6.898   4.520  14.130  0.00  0.00    +0.000 C 
ENDBRANCH  12  19
ENDBRANCH   1  16
TORSDOF 3
ENDMDL
MODEL 6
REMARK VINA RESULT:      -7.0      0.855      1.028
REMARK  Name = 
REMARK  7 active torsions:
REMARK  status: ('A' for Active; 'I' for Inactive)
REMARK    1  A    between atoms: C_1  and  C_2
REMARK    2  A    between atoms: C_2  and  C_3
REMARK    3  A    between atoms: C_7  and  N_8
REMARK    4  A    between atoms: N_8  and  C_9
REMARK    5  A    between atoms: C_10  and  C_11
REMARK    6  A    between atoms: C_13  and  C_14
REMARK    7  A    between atoms: C_16  and  C_17
REMARK                            x       y       z     vdW  Elec       q    Type
REMARK                         _______ _______ _______ _____ _____    ______ ____
ROOT
ATOM      1  N   UNL     1       3.499   4.106  16.787  0.00  0.00    +0.000 N 
ATOM      2  H   UNL     1       2.945   3.789  16.002  0.00  0.00    +0.000 HD
ENDROOT
BRANCH   1   3
ATOM      3  C   UNL     1       2.900   3.819  18.035  0.00  0.00    +0.000 A 
ATOM      4  C   UNL     1       3.047   2.517  18.576  0.00  0.00    +0.000 A 
ATOM      5  C   UNL     1       3.765   1.400  17.863  0.00  0.00    +0.000 C 
ATOM      6  C   UNL     1       2.497   2.210  19.836  0.00  0.00    +0.000 A 
ATOM      7  C   UNL     1       1.810   3.170  20.578  0.00  0.00    +0.000 A 
ATOM      8  C   UNL     1       1.271   2.863  21.943  0.00  0.00    +0.000 C 
ATOM      9  C   UNL     1       1.675   4.455  20.049  0.00  0.00    +0.000 A 
ATOM     10  C   UNL     1       2.213   4.798  18.795  0.00  0.00    +0.000 A 
ATOM     11  C   UNL     1       2.111   6.245  18.382  0.00  0.00    +0.000 C 
ENDBRANCH   1   3
BRANCH   1  16
ATOM     12  C   UNL     1       6.881   5.690  17.014  0.00  0.00    +0.000 A 
ATOM     13  C   UNL     1       7.433   5.270  15.799  0.00  0.00    +0.000 A 
ATOM     14  C   UNL     1       6.679   4.502  14.916  0.00  0.00    +0.000 A 
ATOM     15  C   UNL     1       5.369   4.142  15.244  0.00  0.00    +0.000 A 
ATOM     16  C   UNL     1       4.790   4.545  16.455  0.00  0.00    +0.000 A 
ATOM     17  C   UNL     1       5.558   5.332  17.323  0.00  0.00    +0.000 A 
BRANCH  12  19
ATOM     18  C   UNL     1       7.839   5.842  19.316  0.00  0.00    +0.000 C 
ATOM     19  C   UNL     1       7.680   6.534  17.973  0.00  0.00    +0.000 C 
ENDBRANCH  12  19
ENDBRANCH   1  16
TORSDOF 3
ENDMDL
MODEL 7
REMARK VINA RESULT:      -7.0      1.656      3.189
REMARK  Name = 
REMARK  7 active torsions:
REMARK  status: ('A' for Active; 'I' for Inactive)
REMARK    1  A    between atoms: C_1  and  C_2
REMARK    2  A    between atoms: C_2  and  C_3
REMARK    3  A    between atoms: C_7  and  N_8
REMARK    4  A    between atoms: N_8  and  C_9
REMARK    5  A    between atoms: C_10  and  C_11
REMARK    6  A    between atoms: C_13  and  C_14
REMARK    7  A    between atoms: C_16  and  C_17
REMARK                            x       y       z     vdW  Elec       q    Type
REMARK                         _______ _______ _______ _____ _____    ______ ____
ROOT
ATOM      1  N   UNL     1       4.646   6.140  17.130  0.00  0.00    +0.000 N 
ATOM      2  H   UNL     1       4.410   6.554  16.237  0.00  0.00    +0.000 HD
ENDROOT
BRANCH   1   3
ATOM      3  C   UNL     1       3.720   5.155  17.542  0.00  0.00    +0.000 A 
ATOM      4  C   UNL     1       2.646   5.540  18.384  0.00  0.00    +0.000 A 
ATOM      5  C   UNL     1       2.470   6.941  18.911  0.00  0.00    +0.000 C 
ATOM      6  C   UNL     1       1.683   4.593  18.779  0.00  0.00    +0.000 A 
ATOM      7  C   UNL     1       1.755   3.267  18.350  0.00  0.00    +0.000 A 
ATOM      8  C   UNL     1       0.701   2.268  18.723  0.00  0.00    +0.000 C 
ATOM      9  C   UNL     1       2.806   2.891  17.512  0.00  0.00    +0.000 A 
ATOM     10  C   UNL     1       3.785   3.811  17.096  0.00  0.00    +0.000 A 
ATOM     11  C   UNL     1       4.801   3.321  16.095  0.00  0.00    +0.000 C 
ENDBRANCH   1   3
BRANCH   1  16
ATOM     12  C   UNL     1       7.734   8.096  17.927  0.00  0.00    +0.000 A 
ATOM     13  C   UNL     1       8.396   7.186  18.758  0.00  0.00    +0.000 A 
ATOM     14  C   UNL     1       7.834   5.938  19.018  0.00  0.00    +0.000 A 
ATOM     15  C   UNL     1       6.603   5.595  18.454  0.00  0.00    +0.000 A 
ATOM     16  C   UNL     1       5.914   6.487  17.621  0.00  0.00    +0.000 A 
ATOM     17  C   UNL     1       6.503   7.730  17.357  0.00  0.00    +0.000 A 
BRANCH  12  19
ATOM     18  C   UNL     1       8.984  10.047  18.860  0.00  0.00    +0.000 C 
ATOM     19  C   UNL     1       8.337   9.443  17.624  0.00  0.00    +0.000 C 
ENDBRANCH  12  19
ENDBRANCH   1  16
TORSDOF 3
ENDMDL
MODEL 8
REMARK VINA RESULT:      -7.0      1.695      3.343
REMARK  Name = 
REMARK  7 active torsions:
REMARK  status: ('A' for Active; 'I' for Inactive)
REMARK    1  A    between atoms: C_1  and  C_2
REMARK    2  A    between atoms: C_2  and  C_3
REMARK    3  A    between atoms: C_7  and  N_8
REMARK    4  A    between atoms: N_8  and  C_9
REMARK    5  A    between atoms: C_10  and  C_11
REMARK    6  A    between atoms: C_13  and  C_14
REMARK    7  A    between atoms: C_16  and  C_17
REMARK                            x       y       z     vdW  Elec       q    Type
REMARK                         _______ _______ _______ _____ _____    ______ ____
ROOT
ATOM      1  N   UNL     1       3.440   4.723  17.941  0.00  0.00    +0.000 N 
ATOM      2  H   UNL     1       2.891   3.893  17.750  0.00  0.00    +0.000 HD
ENDROOT
BRANCH   1   3
ATOM      3  C   UNL     1       2.777   5.637  18.790  0.00  0.00    +0.000 A 
ATOM      4  C   UNL     1       2.187   5.151  19.985  0.00  0.00    +0.000 A 
ATOM      5  C   UNL     1       2.181   3.695  20.371  0.00  0.00    +0.000 C 
ATOM      6  C   UNL     1       1.556   6.042  20.873  0.00  0.00    +0.000 A 
ATOM      7  C   UNL     1       1.501   7.410  20.609  0.00  0.00    +0.000 A 
ATOM      8  C   UNL     1       0.878   8.369  21.579  0.00  0.00    +0.000 C 
ATOM      9  C   UNL     1       2.092   7.890  19.438  0.00  0.00    +0.000 A 
ATOM     10  C   UNL     1       2.734   7.029  18.529  0.00  0.00    +0.000 A 
ATOM     11  C   UNL     1       3.440   7.674  17.362  0.00  0.00    +0.000 C 
ENDBRANCH   1   3
BRANCH   1  16
ATOM     12  C   UNL     1       6.448   4.688  15.717  0.00  0.00    +0.000 A 
ATOM     13  C   UNL     1       7.466   4.685  16.677  0.00  0.00    +0.000 A 
ATOM     14  C   UNL     1       7.149   4.662  18.033  0.00  0.00    +0.000 A 
ATOM     15  C   UNL     1       5.812   4.652  18.438  0.00  0.00    +0.000 A 
ATOM     16  C   UNL     1       4.771   4.659  17.501  0.00  0.00    +0.000 A 
ATOM     17  C   UNL     1       5.109   4.664  16.141  0.00  0.00    +0.000 A 
BRANCH  12  19
ATOM     18  C   UNL     1       5.884   3.736  13.477  0.00  0.00    +0.000 C 
ATOM     19  C   UNL     1       6.776   4.697  14.246  0.00  0.00    +0.000 C 
ENDBRANCH  12  19
ENDBRANCH   1  16
TORSDOF 3
ENDMDL
MODEL 9
REMARK VINA RESULT:      -7.0      1.360      3.312
REMARK  Name = 
REMARK  7 active torsions:
REMARK  status: ('A' for Active; 'I' for Inactive)
REMARK    1  A    between atoms: C_1  and  C_2
REMARK    2  A    between atoms: C_2  and  C_3
REMARK    3  A    between atoms: C_7  and  N_8
REMARK    4  A    between atoms: N_8  and  C_9
REMARK    5  A    between atoms: C_10  and  C_11
REMARK    6  A    between atoms: C_13  and  C_14
REMARK    7  A    between atoms: C_16  and  C_17
REMARK                            x       y       z     vdW  Elec       q    Type
REMARK                         _______ _______ _______ _____ _____    ______ ____
ROOT
ATOM      1  N   UNL     1       3.571   3.921  16.815  0.00  0.00    +0.000 N 
ATOM      2  H   UNL     1       2.900   3.720  16.084  0.00  0.00    +0.000 HD
ENDROOT
BRANCH   1   3
ATOM      3  C   UNL     1       3.069   3.659  18.110  0.00  0.00    +0.000 A 
ATOM      4  C   UNL     1       2.355   4.683  18.782  0.00  0.00    +0.000 A 
ATOM      5  C   UNL     1       2.149   6.062  18.209  0.00  0.00    +0.000 C 
ATOM      6  C   UNL     1       1.806   4.441  20.055  0.00  0.00    +0.000 A 
ATOM      7  C   UNL     1       1.942   3.201  20.678  0.00  0.00    +0.000 A 
ATOM      8  C   UNL     1       1.312   2.922  22.010  0.00  0.00    +0.000 C 
ATOM      9  C   UNL     1       2.636   2.190  20.011  0.00  0.00    +0.000 A 
ATOM     10  C   UNL     1       3.196   2.395  18.737  0.00  0.00    +0.000 A 
ATOM     11  C   UNL     1       3.816   1.196  18.063  0.00  0.00    +0.000 C 
ENDBRANCH   1   3
BRANCH   1  16
ATOM     12  C   UNL     1       6.510   4.436  14.557  0.00  0.00    +0.000 A 
ATOM     13  C   UNL     1       7.448   4.915  15.478  0.00  0.00    +0.000 A 
ATOM     14  C   UNL     1       7.112   5.031  16.825  0.00  0.00    +0.000 A 
ATOM     15  C   UNL     1       5.832   4.677  17.258  0.00  0.00    +0.000 A 
ATOM     16  C   UNL     1       4.869   4.198  16.360  0.00  0.00    +0.000 A 
ATOM     17  C   UNL     1       5.232   4.071  15.012  0.00  0.00    +0.000 A 
BRANCH  12  19
ATOM     18  C   UNL     1       5.866   3.404  12.375  0.00  0.00    +0.000 C 
ATOM     19  C   UNL     1       6.865   4.290  13.101  0.00  0.00    +0.000 C 
ENDBRANCH  12  19
ENDBRANCH   1  16
TORSDOF 3
ENDMDL
