MODEL 1
REMARK VINA RESULT:      -7.1      0.000      0.000
REMARK  Name = 
REMARK  7 active torsions:
REMARK  status: ('A' for Active; 'I' for Inactive)
REMARK    1  A    between atoms: C_1  and  C_2
REMARK    2  A    between atoms: C_2  and  O_3
REMARK    3  A    between atoms: O_3  and  C_4
REMARK    4  A    between atoms: C_4  and  C_6
REMARK    5  A    between atoms: N_9  and  C_10
REMARK    6  A    between atoms: C_11  and  N_12
REMARK    7  A    between atoms: C_13  and  C_15
REMARK                            x       y       z     vdW  Elec       q    Type
REMARK                         _______ _______ _______ _____ _____    ______ ____
ROOT
ATOM      1  N   UNL     1       3.635   4.542  17.949  0.00  0.00    +0.000 N 
ATOM      2  C   UNL     1       4.980   4.247  18.019  0.00  0.00    +0.000 C 
ATOM      3  O   UNL     1       5.582   3.885  19.023  0.00  0.00    +0.000 OA
ATOM      4  H   UNL     1       3.295   5.034  17.123  0.00  0.00    +0.000 HD
ENDROOT
BRANCH   2   5
ATOM      5  C   UNL     1       5.801   4.465  16.792  0.00  0.00    +0.000 A 
ATOM      6  C   UNL     1       5.361   3.796  15.630  0.00  0.00    +0.000 A 
ATOM      7  C   UNL     1       5.983   4.002  14.397  0.00  0.00    +0.000 A 
ATOM      8  C   UNL     1       7.053   4.884  14.310  0.00  0.00    +0.000 A 
ATOM      9 CL   UNL     1       7.793   5.180  12.786  0.00  0.00    +0.000 Cl
ATOM     10  C   UNL     1       7.514   5.546  15.447  0.00  0.00    +0.000 A 
ATOM     11  C   UNL     1       6.891   5.341  16.688  0.00  0.00    +0.000 A 
ATOM     12 CL   UNL     1       7.506   6.261  18.015  0.00  0.00    +0.000 Cl
ENDBRANCH   2   5
BRANCH   1  18
ATOM     13  C   UNL     1       2.035   5.374  19.648  0.00  0.00    +0.000 A 
ATOM     14  C   UNL     1       1.186   4.715  20.558  0.00  0.00    +0.000 A 
ATOM     15  N   UNL     1       1.274   3.394  20.475  0.00  0.00    +0.000 NA
ATOM     16  N   UNL     1       2.189   3.183  19.497  0.00  0.00    +0.000 N 
ATOM     17  C   UNL     1       2.396   1.806  19.116  0.00  0.00    +0.000 C 
ATOM     18  C   UNL     1       2.692   4.356  18.960  0.00  0.00    +0.000 A 
BRANCH  13  19
ATOM     19  C   UNL     1       2.249   6.800  19.534  0.00  0.00    +0.000 C 
ATOM     20  O   UNL     1       2.163   7.573  20.481  0.00  0.00    +0.000 OA
BRANCH  19  21
ATOM     21  O   UNL     1       2.436   7.168  18.235  0.00  0.00    +0.000 OA
BRANCH  21  23
ATOM     22  C   UNL     1       1.272   9.203  17.777  0.00  0.00    +0.000 C 
ATOM     23  C   UNL     1       2.634   8.567  17.999  0.00  0.00    +0.000 C 
ENDBRANCH  21  23
ENDBRANCH  19  21
ENDBRANCH  13  19
ENDBRANCH   1  18
TORSDOF 5
ENDMDL
MODEL 2
REMARK VINA RESULT:      -7.1      0.953      1.285
REMARK  Name = 
REMARK  7 active torsions:
REMARK  status: ('A' for Active; 'I' for Inactive)
REMARK    1  A    between atoms: C_1  and  C_2
REMARK    2  A    between atoms: C_2  and  O_3
REMARK    3  A    between atoms: O_3  and  C_4
REMARK    4  A    between atoms: C_4  and  C_6
REMARK    5  A    between atoms: N_9  and  C_10
REMARK    6  A    between atoms: C_11  and  N_12
REMARK    7  A    between atoms: C_13  and  C_15
REMARK                            x       y       z     vdW  Elec       q    Type
REMARK                         _______ _______ _______ _____ _____    ______ ____
ROOT
ATOM      1  N   UNL     1       3.613   4.581  17.968  0.00  0.00    +0.000 N 
ATOM      2  C   UNL     1       4.948   4.243  18.027  0.00  0.00    +0.000 C 
ATOM      3  O   UNL     1       5.541   3.843  19.023  0.00  0.00    +0.000 OA
ATOM      4  H   UNL     1       3.286   5.099  17.152  0.00  0.00    +0.000 HD
ENDROOT
BRANCH   2   5
ATOM      5  C   UNL     1       5.772   4.458  16.803  0.00  0.00    +0.000 A 
ATOM      6  C   UNL     1       5.314   3.817  15.632  0.00  0.00    +0.000 A 
ATOM      7  C   UNL     1       5.938   4.026  14.401  0.00  0.00    +0.000 A 
ATOM      8  C   UNL     1       7.029   4.882  14.324  0.00  0.00    +0.000 A 
ATOM      9 CL   UNL     1       7.774   5.181  12.803  0.00  0.00    +0.000 Cl
ATOM     10  C   UNL     1       7.509   5.516  15.470  0.00  0.00    +0.000 A 
ATOM     11  C   UNL     1       6.883   5.309  16.708  0.00  0.00    +0.000 A 
ATOM     12 CL   UNL     1       7.523   6.194  18.048  0.00  0.00    +0.000 Cl
ENDBRANCH   2   5
BRANCH   1  18
ATOM     13  C   UNL     1       2.047   5.430  19.691  0.00  0.00    +0.000 A 
ATOM     14  C   UNL     1       1.180   4.781  20.590  0.00  0.00    +0.000 A 
ATOM     15  N   UNL     1       1.222   3.460  20.478  0.00  0.00    +0.000 NA
ATOM     16  N   UNL     1       2.126   3.239  19.492  0.00  0.00    +0.000 N 
ATOM     17  C   UNL     1       2.284   1.864  19.081  0.00  0.00    +0.000 C 
ATOM     18  C   UNL     1       2.667   4.406  18.979  0.00  0.00    +0.000 A 
BRANCH  13  19
ATOM     19  C   UNL     1       2.310   6.850  19.608  0.00  0.00    +0.000 C 
ATOM     20  O   UNL     1       2.920   7.370  18.680  0.00  0.00    +0.000 OA
BRANCH  19  21
ATOM     21  O   UNL     1       1.901   7.495  20.737  0.00  0.00    +0.000 OA
BRANCH  21  23
ATOM     22  C   UNL     1       0.355   8.973  21.802  0.00  0.00    +0.000 C 
ATOM     23  C   UNL     1       1.155   8.701  20.538  0.00  0.00    +0.000 C 
ENDBRANCH  21  23
ENDBRANCH  19  21
ENDBRANCH  13  19
ENDBRANCH   1  18
TORSDOF 5
ENDMDL
MODEL 3
REMARK VINA RESULT:      -6.9      1.288      1.421
REMARK  Name = 
REMARK  7 active torsions:
REMARK  status: ('A' for Active; 'I' for Inactive)
REMARK    1  A    between atoms: C_1  and  C_2
REMARK    2  A    between atoms: C_2  and  O_3
REMARK    3  A    between atoms: O_3  and  C_4
REMARK    4  A    between atoms: C_4  and  C_6
REMARK    5  A    between atoms: N_9  and  C_10
REMARK    6  A    between atoms: C_11  and  N_12
REMARK    7  A    between atoms: C_13  and  C_15
REMARK                            x       y       z     vdW  Elec       q    Type
REMARK                         _______ _______ _______ _____ _____    ______ ____
ROOT
ATOM      1  N   UNL     1       4.283   3.935  18.672  0.00  0.00    +0.000 N 
ATOM      2  C   UNL     1       5.590   4.361  18.573  0.00  0.00    +0.000 C 
ATOM      3  O   UNL     1       6.318   4.663  19.512  0.00  0.00    +0.000 OA
ATOM      4  H   UNL     1       3.718   3.921  17.822  0.00  0.00    +0.000 HD
ENDROOT
BRANCH   2   5
ATOM      5  C   UNL     1       6.153   4.557  17.205  0.00  0.00    +0.000 A 
ATOM      6  C   UNL     1       5.691   3.663  16.216  0.00  0.00    +0.000 A 
ATOM      7  C   UNL     1       6.062   3.809  14.878  0.00  0.00    +0.000 A 
ATOM      8  C   UNL     1       6.900   4.855  14.511  0.00  0.00    +0.000 A 
ATOM      9 CL   UNL     1       7.324   5.071  12.858  0.00  0.00    +0.000 Cl
ATOM     10  C   UNL     1       7.380   5.743  15.473  0.00  0.00    +0.000 A 
ATOM     11  C   UNL     1       7.009   5.599  16.818  0.00  0.00    +0.000 A 
ATOM     12 CL   UNL     1       7.613   6.793  17.912  0.00  0.00    +0.000 Cl
ENDBRANCH   2   5
BRANCH   1  18
ATOM     13  C   UNL     1       2.589   4.424  20.414  0.00  0.00    +0.000 A 
ATOM     14  C   UNL     1       2.193   3.733  21.575  0.00  0.00    +0.000 A 
ATOM     15  N   UNL     1       2.868   2.605  21.754  0.00  0.00    +0.000 NA
ATOM     16  N   UNL     1       3.715   2.554  20.698  0.00  0.00    +0.000 N 
ATOM     17  C   UNL     1       4.502   1.349  20.581  0.00  0.00    +0.000 C 
ATOM     18  C   UNL     1       3.593   3.641  19.849  0.00  0.00    +0.000 A 
BRANCH  13  19
ATOM     19  C   UNL     1       2.123   5.719  19.970  0.00  0.00    +0.000 C 
ATOM     20  O   UNL     1       1.592   6.537  20.713  0.00  0.00    +0.000 OA
BRANCH  19  21
ATOM     21  O   UNL     1       2.244   5.851  18.618  0.00  0.00    +0.000 OA
BRANCH  21  23
ATOM     22  C   UNL     1       3.773   7.330  17.532  0.00  0.00    +0.000 C 
ATOM     23  C   UNL     1       2.381   7.188  18.125  0.00  0.00    +0.000 C 
ENDBRANCH  21  23
ENDBRANCH  19  21
ENDBRANCH  13  19
ENDBRANCH   1  18
TORSDOF 5
ENDMDL
MODEL 4
REMARK VINA RESULT:      -6.9      3.512      6.673
REMARK  Name = 
REMARK  7 active torsions:
REMARK  status: ('A' for Active; 'I' for Inactive)
REMARK    1  A    between atoms: C_1  and  C_2
REMARK    2  A    between atoms: C_2  and  O_3
REMARK    3  A    between atoms: O_3  and  C_4
REMARK    4  A    between atoms: C_4  and  C_6
REMARK    5  A    between atoms: N_9  and  C_10
REMARK    6  A    between atoms: C_11  and  N_12
REMARK    7  A    between atoms: C_13  and  C_15
REMARK                            x       y       z     vdW  Elec       q    Type
REMARK                         _______ _______ _______ _____ _____    ______ ____
ROOT
ATOM      1  N   UNL     1       3.128   6.185  20.171  0.00  0.00    +0.000 N 
ATOM      2  C   UNL     1       2.353   6.943  19.321  0.00  0.00    +0.000 C 
ATOM      3  O   UNL     1       2.280   6.805  18.104  0.00  0.00    +0.000 OA
ATOM      4  H   UNL     1       3.271   6.527  21.122  0.00  0.00    +0.000 HD
ENDROOT
BRANCH   2   5
ATOM      5  C   UNL     1       1.597   8.087  19.907  0.00  0.00    +0.000 A 
ATOM      6  C   UNL     1       1.148   7.913  21.234  0.00  0.00    +0.000 A 
ATOM      7  C   UNL     1       0.521   8.949  21.928  0.00  0.00    +0.000 A 
ATOM      8  C   UNL     1       0.338  10.177  21.305  0.00  0.00    +0.000 A 
ATOM      9 CL   UNL     1      -0.390  11.474  22.169  0.00  0.00    +0.000 Cl
ATOM     10  C   UNL     1       0.761  10.369  19.990  0.00  0.00    +0.000 A 
ATOM     11  C   UNL     1       1.391   9.330  19.289  0.00  0.00    +0.000 A 
ATOM     12 CL   UNL     1       1.929   9.699  17.690  0.00  0.00    +0.000 Cl
ENDBRANCH   2   5
BRANCH   1  18
ATOM     13  C   UNL     1       3.530   3.740  20.179  0.00  0.00    +0.000 A 
ATOM     14  C   UNL     1       4.547   2.941  19.622  0.00  0.00    +0.000 A 
ATOM     15  N   UNL     1       5.457   3.654  18.971  0.00  0.00    +0.000 NA
ATOM     16  N   UNL     1       5.031   4.934  19.100  0.00  0.00    +0.000 N 
ATOM     17  C   UNL     1       5.791   5.925  18.375  0.00  0.00    +0.000 C 
ATOM     18  C   UNL     1       3.862   5.047  19.833  0.00  0.00    +0.000 A 
BRANCH  13  19
ATOM     19  C   UNL     1       2.437   3.297  21.018  0.00  0.00    +0.000 C 
ATOM     20  O   UNL     1       2.593   2.624  22.030  0.00  0.00    +0.000 OA
BRANCH  19  21
ATOM     21  O   UNL     1       1.232   3.624  20.471  0.00  0.00    +0.000 OA
BRANCH  21  23
ATOM     22  C   UNL     1       1.108   3.471  18.091  0.00  0.00    +0.000 C 
ATOM     23  C   UNL     1       0.776   2.784  19.404  0.00  0.00    +0.000 C 
ENDBRANCH  21  23
ENDBRANCH  19  21
ENDBRANCH  13  19
ENDBRANCH   1  18
TORSDOF 5
ENDMDL
MODEL 5
REMARK VINA RESULT:      -6.9      3.419      5.978
REMARK  Name = 
REMARK  7 active torsions:
REMARK  status: ('A' for Active; 'I' for Inactive)
REMARK    1  A    between atoms: C_1  and  C_2
REMARK    2  A    between atoms: C_2  and  O_3
REMARK    3  A    between atoms: O_3  and  C_4
REMARK    4  A    between atoms: C_4  and  C_6
REMARK    5  A    between atoms: N_9  and  C_10
REMARK    6  A    between atoms: C_11  and  N_12
REMARK    7  A    between atoms: C_13  and  C_15
REMARK                            x       y       z     vdW  Elec       q    Type
REMARK                         _______ _______ _______ _____ _____    ______ ____
ROOT
ATOM      1  N   UNL     1       2.407   5.372  18.115  0.00  0.00    +0.000 N 
ATOM      2  C   UNL     1       2.978   6.326  18.929  0.00  0.00    +0.000 C 
ATOM      3  O   UNL     1       3.943   6.153  19.666  0.00  0.00    +0.000 OA
ATOM      4  H   UNL     1       1.488   5.571  17.715  0.00  0.00    +0.000 HD
ENDROOT
BRANCH   2   5
ATOM      5  C   UNL     1       2.325   7.666  18.991  0.00  0.00    +0.000 A 
ATOM      6  C   UNL     1       2.493   8.486  17.855  0.00  0.00    +0.000 A 
ATOM      7  C   UNL     1       1.845   9.718  17.749  0.00  0.00    +0.000 A 
ATOM      8  C   UNL     1       1.016  10.145  18.778  0.00  0.00    +0.000 A 
ATOM      9 CL   UNL     1       0.176  11.639  18.635  0.00  0.00    +0.000 Cl
ATOM     10  C   UNL     1       0.845   9.358  19.917  0.00  0.00    +0.000 A 
ATOM     11  C   UNL     1       1.495   8.120  20.027  0.00  0.00    +0.000 A 
ATOM     12 CL   UNL     1       1.162   7.202  21.452  0.00  0.00    +0.000 Cl
ENDBRANCH   2   5
BRANCH   1  18
ATOM     13  C   UNL     1       2.215   2.902  18.159  0.00  0.00    +0.000 A 
ATOM     14  C   UNL     1       3.083   1.874  17.748  0.00  0.00    +0.000 A 
ATOM     15  N   UNL     1       4.219   2.335  17.240  0.00  0.00    +0.000 NA
ATOM     16  N   UNL     1       4.093   3.683  17.317  0.00  0.00    +0.000 N 
ATOM     17  C   UNL     1       5.160   4.449  16.717  0.00  0.00    +0.000 C 
ATOM     18  C   UNL     1       2.892   4.086  17.876  0.00  0.00    +0.000 A 
BRANCH  13  19
ATOM     19  C   UNL     1       0.942   2.750  18.829  0.00  0.00    +0.000 C 
ATOM     20  O   UNL     1       0.022   2.072  18.386  0.00  0.00    +0.000 OA
BRANCH  19  21
ATOM     21  O   UNL     1       0.868   3.545  19.934  0.00  0.00    +0.000 OA
BRANCH  21  23
ATOM     22  C   UNL     1       2.379   3.759  21.772  0.00  0.00    +0.000 C 
ATOM     23  C   UNL     1       1.249   2.938  21.174  0.00  0.00    +0.000 C 
ENDBRANCH  21  23
ENDBRANCH  19  21
ENDBRANCH  13  19
ENDBRANCH   1  18
TORSDOF 5
ENDMDL
MODEL 6
REMARK VINA RESULT:      -6.8      4.095      6.301
REMARK  Name = 
REMARK  7 active torsions:
REMARK  status: ('A' for Active; 'I' for Inactive)
REMARK    1  A    between atoms: C_1  and  C_2
REMARK    2  A    between atoms: C_2  and  O_3
REMARK    3  A    between atoms: O_3  and  C_4
REMARK    4  A    between atoms: C_4  and  C_6
REMARK    5  A    between atoms: N_9  and  C_10
REMARK    6  A    between atoms: C_11  and  N_12
REMARK    7  A    between atoms: C_13  and  C_15
REMARK                            x       y       z     vdW  Elec       q    Type
REMARK                         _______ _______ _______ _____ _____    ______ ____
ROOT
ATOM      1  N   UNL     1       3.118   6.332  18.709  0.00  0.00    +0.000 N 
ATOM      2  C   UNL     1       2.317   6.875  19.691  0.00  0.00    +0.000 C 
ATOM      3  O   UNL     1       1.913   6.289  20.689  0.00  0.00    +0.000 OA
ATOM      4  H   UNL     1       3.210   6.842  17.830  0.00  0.00    +0.000 HD
ENDROOT
BRANCH   2   5
ATOM      5  C   UNL     1       1.822   8.267  19.490  0.00  0.00    +0.000 A 
ATOM      6  C   UNL     1       1.832   8.738  18.160  0.00  0.00    +0.000 A 
ATOM      7  C   UNL     1       1.297   9.985  17.829  0.00  0.00    +0.000 A 
ATOM      8  C   UNL     1       0.741  10.776  18.826  0.00  0.00    +0.000 A 
ATOM      9 CL   UNL     1       0.036  12.292  18.420  0.00  0.00    +0.000 Cl
ATOM     10  C   UNL     1       0.731  10.338  20.150  0.00  0.00    +0.000 A 
ATOM     11  C   UNL     1       1.268   9.086  20.485  0.00  0.00    +0.000 A 
ATOM     12 CL   UNL     1       1.145   8.619  22.144  0.00  0.00    +0.000 Cl
ENDBRANCH   2   5
BRANCH   1  18
ATOM     13  C   UNL     1       3.097   3.870  18.427  0.00  0.00    +0.000 A 
ATOM     14  C   UNL     1       4.093   2.887  18.582  0.00  0.00    +0.000 A 
ATOM     15  N   UNL     1       5.261   3.396  18.951  0.00  0.00    +0.000 NA
ATOM     16  N   UNL     1       5.031   4.729  19.036  0.00  0.00    +0.000 N 
ATOM     17  C   UNL     1       6.185   5.550  19.313  0.00  0.00    +0.000 C 
ATOM     18  C   UNL     1       3.725   5.076  18.733  0.00  0.00    +0.000 A 
BRANCH  13  19
ATOM     19  C   UNL     1       1.700   3.653  18.120  0.00  0.00    +0.000 C 
ATOM     20  O   UNL     1       1.093   4.277  17.258  0.00  0.00    +0.000 OA
BRANCH  19  21
ATOM     21  O   UNL     1       1.137   2.765  18.988  0.00  0.00    +0.000 OA
BRANCH  21  23
ATOM     22  C   UNL     1       1.533   2.598  21.338  0.00  0.00    +0.000 C 
ATOM     23  C   UNL     1       0.726   3.294  20.254  0.00  0.00    +0.000 C 
ENDBRANCH  21  23
ENDBRANCH  19  21
ENDBRANCH  13  19
ENDBRANCH   1  18
TORSDOF 5
ENDMDL
MODEL 7
REMARK VINA RESULT:      -6.8      3.515      6.001
REMARK  Name = 
REMARK  7 active torsions:
REMARK  status: ('A' for Active; 'I' for Inactive)
REMARK    1  A    between atoms: C_1  and  C_2
REMARK    2  A    between atoms: C_2  and  O_3
REMARK    3  A    between atoms: O_3  and  C_4
REMARK    4  A    between atoms: C_4  and  C_6
REMARK    5  A    between atoms: N_9  and  C_10
REMARK    6  A    between atoms: C_11  and  N_12
REMARK    7  A    between atoms: C_13  and  C_15
REMARK                            x       y       z     vdW  Elec       q    Type
REMARK                         _______ _______ _______ _____ _____    ______ ____
ROOT
ATOM      1  N   UNL     1       3.115   6.254  19.702  0.00  0.00    +0.000 N 
ATOM      2  C   UNL     1       2.350   6.870  18.734  0.00  0.00    +0.000 C 
ATOM      3  O   UNL     1       1.998   6.366  17.673  0.00  0.00    +0.000 OA
ATOM      4  H   UNL     1       3.521   6.837  20.434  0.00  0.00    +0.000 HD
ENDROOT
BRANCH   2   5
ATOM      5  C   UNL     1       1.985   8.300  18.946  0.00  0.00    +0.000 A 
ATOM      6  C   UNL     1       2.290   9.177  17.884  0.00  0.00    +0.000 A 
ATOM      7  C   UNL     1       1.904  10.519  17.918  0.00  0.00    +0.000 A 
ATOM      8  C   UNL     1       1.203  11.000  19.017  0.00  0.00    +0.000 A 
ATOM      9 CL   UNL     1       0.682  12.639  19.047  0.00  0.00    +0.000 Cl
ATOM     10  C   UNL     1       0.902  10.156  20.085  0.00  0.00    +0.000 A 
ATOM     11  C   UNL     1       1.289   8.807  20.053  0.00  0.00    +0.000 A 
ATOM     12 CL   UNL     1       0.809   7.840  21.402  0.00  0.00    +0.000 Cl
ENDBRANCH   2   5
BRANCH   1  18
ATOM     13  C   UNL     1       4.815   4.459  19.537  0.00  0.00    +0.000 A 
ATOM     14  C   UNL     1       4.731   3.057  19.640  0.00  0.00    +0.000 A 
ATOM     15  N   UNL     1       3.495   2.635  19.871  0.00  0.00    +0.000 NA
ATOM     16  N   UNL     1       2.759   3.772  19.922  0.00  0.00    +0.000 N 
ATOM     17  C   UNL     1       1.370   3.607  20.281  0.00  0.00    +0.000 C 
ATOM     18  C   UNL     1       3.512   4.917  19.719  0.00  0.00    +0.000 A 
BRANCH  13  19
ATOM     19  C   UNL     1       5.988   5.238  19.206  0.00  0.00    +0.000 C 
ATOM     20  O   UNL     1       6.992   5.279  19.908  0.00  0.00    +0.000 OA
BRANCH  19  21
ATOM     21  O   UNL     1       5.778   5.997  18.093  0.00  0.00    +0.000 OA
BRANCH  21  23
ATOM     22  C   UNL     1       7.497   7.540  17.484  0.00  0.00    +0.000 C 
ATOM     23  C   UNL     1       6.905   6.166  17.224  0.00  0.00    +0.000 C 
ENDBRANCH  21  23
ENDBRANCH  19  21
ENDBRANCH  13  19
ENDBRANCH   1  18
TORSDOF 5
ENDMDL
MODEL 8
REMARK VINA RESULT:      -6.7      3.332      6.044
REMARK  Name = 
REMARK  7 active torsions:
REMARK  status: ('A' for Active; 'I' for Inactive)
REMARK    1  A    between atoms: C_1  and  C_2
REMARK    2  A    between atoms: C_2  and  O_3
REMARK    3  A    between atoms: O_3  and  C_4
REMARK    4  A    between atoms: C_4  and  C_6
REMARK    5  A    between atoms: N_9  and  C_10
REMARK    6  A    between atoms: C_11  and  N_12
REMARK    7  A    between atoms: C_13  and  C_15
REMARK                            x       y       z     vdW  Elec       q    Type
REMARK                         _______ _______ _______ _____ _____    ______ ____
ROOT
ATOM      1  N   UNL     1       2.317   5.691  18.034  0.00  0.00    +0.000 N 
ATOM      2  C   UNL     1       2.530   6.446  19.166  0.00  0.00    +0.000 C 
ATOM      3  O   UNL     1       2.991   6.034  20.225  0.00  0.00    +0.000 OA
ATOM      4  H   UNL     1       1.736   6.088  17.295  0.00  0.00    +0.000 HD
ENDROOT
BRANCH   2   5
ATOM      5  C   UNL     1       2.088   7.871  19.142  0.00  0.00    +0.000 A 
ATOM      6  C   UNL     1       2.360   8.580  17.953  0.00  0.00    +0.000 A 
ATOM      7  C   UNL     1       1.903   9.886  17.768  0.00  0.00    +0.000 A 
ATOM      8  C   UNL     1       1.164  10.500  18.771  0.00  0.00    +0.000 A 
ATOM      9 CL   UNL     1       0.557  12.092  18.533  0.00  0.00    +0.000 Cl
ATOM     10  C   UNL     1       0.894   9.824  19.961  0.00  0.00    +0.000 A 
ATOM     11  C   UNL     1       1.352   8.512  20.150  0.00  0.00    +0.000 A 
ATOM     12 CL   UNL     1       0.905   7.750  21.635  0.00  0.00    +0.000 Cl
ENDBRANCH   2   5
BRANCH   1  18
ATOM     13  C   UNL     1       3.895   3.953  17.239  0.00  0.00    +0.000 A 
ATOM     14  C   UNL     1       3.850   2.546  17.261  0.00  0.00    +0.000 A 
ATOM     15  N   UNL     1       2.741   2.079  17.820  0.00  0.00    +0.000 NA
ATOM     16  N   UNL     1       2.052   3.191  18.171  0.00  0.00    +0.000 N 
ATOM     17  C   UNL     1       0.835   2.969  18.916  0.00  0.00    +0.000 C 
ATOM     18  C   UNL     1       2.705   4.365  17.835  0.00  0.00    +0.000 A 
BRANCH  13  19
ATOM     19  C   UNL     1       4.912   4.781  16.629  0.00  0.00    +0.000 C 
ATOM     20  O   UNL     1       4.784   5.986  16.451  0.00  0.00    +0.000 OA
BRANCH  19  21
ATOM     21  O   UNL     1       5.958   4.029  16.182  0.00  0.00    +0.000 OA
BRANCH  21  23
ATOM     22  C   UNL     1       6.058   3.912  13.799  0.00  0.00    +0.000 C 
ATOM     23  C   UNL     1       6.661   4.540  15.044  0.00  0.00    +0.000 C 
ENDBRANCH  21  23
ENDBRANCH  19  21
ENDBRANCH  13  19
ENDBRANCH   1  18
TORSDOF 5
ENDMDL
MODEL 9
REMARK VINA RESULT:      -6.7      3.293      6.714
REMARK  Name = 
REMARK  7 active torsions:
REMARK  status: ('A' for Active; 'I' for Inactive)
REMARK    1  A    between atoms: C_1  and  C_2
REMARK    2  A    between atoms: C_2  and  O_3
REMARK    3  A    between atoms: O_3  and  C_4
REMARK    4  A    between atoms: C_4  and  C_6
REMARK    5  A    between atoms: N_9  and  C_10
REMARK    6  A    between atoms: C_11  and  N_12
REMARK    7  A    between atoms: C_13  and  C_15
REMARK                            x       y       z     vdW  Elec       q    Type
REMARK                         _______ _______ _______ _____ _____    ______ ____
ROOT
ATOM      1  N   UNL     1       2.955   6.527  18.217  0.00  0.00    +0.000 N 
ATOM      2  C   UNL     1       2.590   6.648  19.541  0.00  0.00    +0.000 C 
ATOM      3  O   UNL     1       2.849   5.844  20.430  0.00  0.00    +0.000 OA
ATOM      4  H   UNL     1       2.504   7.141  17.538  0.00  0.00    +0.000 HD
ENDROOT
BRANCH   2   5
ATOM      5  C   UNL     1       1.735   7.809  19.920  0.00  0.00    +0.000 A 
ATOM      6  C   UNL     1       1.195   7.776  21.223  0.00  0.00    +0.000 A 
ATOM      7  C   UNL     1       0.465   8.852  21.732  0.00  0.00    +0.000 A 
ATOM      8  C   UNL     1       0.269   9.979  20.944  0.00  0.00    +0.000 A 
ATOM      9 CL   UNL     1      -0.588  11.328  21.580  0.00  0.00    +0.000 Cl
ATOM     10  C   UNL     1       0.782  10.029  19.648  0.00  0.00    +0.000 A 
ATOM     11  C   UNL     1       1.515   8.950  19.134  0.00  0.00    +0.000 A 
ATOM     12 CL   UNL     1       2.155   9.147  17.541  0.00  0.00    +0.000 Cl
ENDBRANCH   2   5
BRANCH   1  18
ATOM     13  C   UNL     1       3.412   4.249  17.354  0.00  0.00    +0.000 A 
ATOM     14  C   UNL     1       4.572   3.644  16.835  0.00  0.00    +0.000 A 
ATOM     15  N   UNL     1       5.612   4.468  16.811  0.00  0.00    +0.000 NA
ATOM     16  N   UNL     1       5.127   5.628  17.318  0.00  0.00    +0.000 N 
ATOM     17  C   UNL     1       6.036   6.750  17.298  0.00  0.00    +0.000 C 
ATOM     18  C   UNL     1       3.791   5.551  17.672  0.00  0.00    +0.000 A 
BRANCH  13  19
ATOM     19  C   UNL     1       2.135   3.615  17.600  0.00  0.00    +0.000 C 
ATOM     20  O   UNL     1       1.060   4.136  17.330  0.00  0.00    +0.000 OA
BRANCH  19  21
ATOM     21  O   UNL     1       2.290   2.436  18.267  0.00  0.00    +0.000 OA
BRANCH  21  23
ATOM     22  C   UNL     1       1.350   2.693  20.448  0.00  0.00    +0.000 C 
ATOM     23  C   UNL     1       2.636   2.538  19.653  0.00  0.00    +0.000 C 
ENDBRANCH  21  23
ENDBRANCH  19  21
ENDBRANCH  13  19
ENDBRANCH   1  18
TORSDOF 5
ENDMDL
