MODEL 1
REMARK VINA RESULT:      -6.5      0.000      0.000
REMARK  Name = 
REMARK  5 active torsions:
REMARK  status: ('A' for Active; 'I' for Inactive)
REMARK    1  A    between atoms: C_1  and  O_2
REMARK    2  A    between atoms: O_2  and  C_3
REMARK    3  A    between atoms: C_6  and  C_7
REMARK    4  A    between atoms: C_14  and  O_15
REMARK    5  A    between atoms: O_15  and  C_16
REMARK                            x       y       z     vdW  Elec       q    Type
REMARK                         _______ _______ _______ _____ _____    ______ ____
ROOT
ATOM      1  C   UNL     1       6.465   4.542  16.383  0.00  0.00    +0.000 A 
ATOM      2  C   UNL     1       5.196   4.154  15.943  0.00  0.00    +0.000 A 
ATOM      3  C   UNL     1       4.169   3.882  16.855  0.00  0.00    +0.000 A 
ATOM      4  C   UNL     1       4.389   3.939  18.236  0.00  0.00    +0.000 A 
ATOM      5  C   UNL     1       5.700   4.226  18.657  0.00  0.00    +0.000 A 
ATOM      6  C   UNL     1       6.739   4.528  17.758  0.00  0.00    +0.000 A 
ENDROOT
BRANCH   4   7
ATOM      7  C   UNL     1       3.297   3.742  19.205  0.00  0.00    +0.000 A 
ATOM      8  C   UNL     1       2.576   2.564  19.332  0.00  0.00    +0.000 A 
ATOM      9  N   UNL     1       1.545   2.372  20.186  0.00  0.00    +0.000 NA
ATOM     10  C   UNL     1       1.232   3.420  20.960  0.00  0.00    +0.000 A 
ATOM     11  N   UNL     1       1.843   4.610  20.952  0.00  0.00    +0.000 NA
ATOM     12  C   UNL     1       2.858   4.738  20.067  0.00  0.00    +0.000 A 
ENDBRANCH   4   7
BRANCH   1  14
ATOM     13  C   UNL     1       7.066   4.843  14.115  0.00  0.00    +0.000 C 
ATOM     14  O   UNL     1       7.440   4.895  15.493  0.00  0.00    +0.000 OA
ENDBRANCH   1  14
BRANCH   6  15
ATOM     15  O   UNL     1       7.912   4.804  18.408  0.00  0.00    +0.000 OA
ATOM     16  C   UNL     1       7.924   5.801  19.417  0.00  0.00    +0.000 C 
ENDBRANCH   6  15
TORSDOF 3
ENDMDL
MODEL 2
REMARK VINA RESULT:      -6.5      0.731      1.002
REMARK  Name = 
REMARK  5 active torsions:
REMARK  status: ('A' for Active; 'I' for Inactive)
REMARK    1  A    between atoms: C_1  and  O_2
REMARK    2  A    between atoms: O_2  and  C_3
REMARK    3  A    between atoms: C_6  and  C_7
REMARK    4  A    between atoms: C_14  and  O_15
REMARK    5  A    between atoms: O_15  and  C_16
REMARK                            x       y       z     vdW  Elec       q    Type
REMARK                         _______ _______ _______ _____ _____    ______ ____
ROOT
ATOM      1  C   UNL     1       6.271   4.901  16.466  0.00  0.00    +0.000 A 
ATOM      2  C   UNL     1       4.977   4.597  16.035  0.00  0.00    +0.000 A 
ATOM      3  C   UNL     1       3.986   4.209  16.945  0.00  0.00    +0.000 A 
ATOM      4  C   UNL     1       4.269   4.062  18.309  0.00  0.00    +0.000 A 
ATOM      5  C   UNL     1       5.602   4.268  18.704  0.00  0.00    +0.000 A 
ATOM      6  C   UNL     1       6.606   4.684  17.811  0.00  0.00    +0.000 A 
ENDROOT
BRANCH   4   7
ATOM      7  C   UNL     1       3.217   3.741  19.288  0.00  0.00    +0.000 A 
ATOM      8  C   UNL     1       1.940   4.283  19.263  0.00  0.00    +0.000 A 
ATOM      9  N   UNL     1       0.971   4.033  20.172  0.00  0.00    +0.000 NA
ATOM     10  C   UNL     1       1.303   3.182  21.152  0.00  0.00    +0.000 A 
ATOM     11  N   UNL     1       2.488   2.579  21.297  0.00  0.00    +0.000 NA
ATOM     12  C   UNL     1       3.415   2.881  20.361  0.00  0.00    +0.000 A 
ENDBRANCH   4   7
BRANCH   1  14
ATOM     13  C   UNL     1       7.063   4.938  14.238  0.00  0.00    +0.000 C 
ATOM     14  O   UNL     1       7.212   5.366  15.592  0.00  0.00    +0.000 OA
ENDBRANCH   1  14
BRANCH   6  15
ATOM     15  O   UNL     1       7.811   4.847  18.438  0.00  0.00    +0.000 OA
ATOM     16  C   UNL     1       7.905   5.748  19.530  0.00  0.00    +0.000 C 
ENDBRANCH   6  15
TORSDOF 3
ENDMDL
MODEL 3
REMARK VINA RESULT:      -6.4      1.504      1.896
REMARK  Name = 
REMARK  5 active torsions:
REMARK  status: ('A' for Active; 'I' for Inactive)
REMARK    1  A    between atoms: C_1  and  O_2
REMARK    2  A    between atoms: O_2  and  C_3
REMARK    3  A    between atoms: C_6  and  C_7
REMARK    4  A    between atoms: C_14  and  O_15
REMARK    5  A    between atoms: O_15  and  C_16
REMARK                            x       y       z     vdW  Elec       q    Type
REMARK                         _______ _______ _______ _____ _____    ______ ____
ROOT
ATOM      1  C   UNL     1       6.345   5.271  15.789  0.00  0.00    +0.000 A 
ATOM      2  C   UNL     1       5.677   4.045  15.860  0.00  0.00    +0.000 A 
ATOM      3  C   UNL     1       4.651   3.836  16.789  0.00  0.00    +0.000 A 
ATOM      4  C   UNL     1       4.292   4.827  17.711  0.00  0.00    +0.000 A 
ATOM      5  C   UNL     1       5.049   6.012  17.693  0.00  0.00    +0.000 A 
ATOM      6  C   UNL     1       6.065   6.252  16.751  0.00  0.00    +0.000 A 
ENDROOT
BRANCH   4   7
ATOM      7  C   UNL     1       3.157   4.653  18.634  0.00  0.00    +0.000 A 
ATOM      8  C   UNL     1       2.991   5.377  19.806  0.00  0.00    +0.000 A 
ATOM      9  N   UNL     1       1.979   5.209  20.687  0.00  0.00    +0.000 NA
ATOM     10  C   UNL     1       1.082   4.268  20.364  0.00  0.00    +0.000 A 
ATOM     11  N   UNL     1       1.110   3.502  19.267  0.00  0.00    +0.000 NA
ATOM     12  C   UNL     1       2.154   3.714  18.435  0.00  0.00    +0.000 A 
ENDBRANCH   4   7
BRANCH   1  14
ATOM     13  C   UNL     1       7.149   4.732  13.631  0.00  0.00    +0.000 C 
ATOM     14  O   UNL     1       7.283   5.506  14.823  0.00  0.00    +0.000 OA
ENDBRANCH   1  14
BRANCH   6  15
ATOM     15  O   UNL     1       6.632   7.487  16.917  0.00  0.00    +0.000 OA
ATOM     16  C   UNL     1       7.756   7.621  17.772  0.00  0.00    +0.000 C 
ENDBRANCH   6  15
TORSDOF 3
ENDMDL
MODEL 4
REMARK VINA RESULT:      -6.3      1.464      1.489
REMARK  Name = 
REMARK  5 active torsions:
REMARK  status: ('A' for Active; 'I' for Inactive)
REMARK    1  A    between atoms: C_1  and  O_2
REMARK    2  A    between atoms: O_2  and  C_3
REMARK    3  A    between atoms: C_6  and  C_7
REMARK    4  A    between atoms: C_14  and  O_15
REMARK    5  A    between atoms: O_15  and  C_16
REMARK                            x       y       z     vdW  Elec       q    Type
REMARK                         _______ _______ _______ _____ _____    ______ ____
ROOT
ATOM      1  C   UNL     1       6.401   5.173  15.739  0.00  0.00    +0.000 A 
ATOM      2  C   UNL     1       5.714   3.958  15.818  0.00  0.00    +0.000 A 
ATOM      3  C   UNL     1       4.698   3.765  16.762  0.00  0.00    +0.000 A 
ATOM      4  C   UNL     1       4.370   4.759  17.692  0.00  0.00    +0.000 A 
ATOM      5  C   UNL     1       5.146   5.931  17.665  0.00  0.00    +0.000 A 
ATOM      6  C   UNL     1       6.153   6.156  16.708  0.00  0.00    +0.000 A 
ENDROOT
BRANCH   4   7
ATOM      7  C   UNL     1       3.246   4.602  18.631  0.00  0.00    +0.000 A 
ATOM      8  C   UNL     1       2.262   3.632  18.509  0.00  0.00    +0.000 A 
ATOM      9  N   UNL     1       1.201   3.493  19.336  0.00  0.00    +0.000 NA
ATOM     10  C   UNL     1       1.136   4.371  20.346  0.00  0.00    +0.000 A 
ATOM     11  N   UNL     1       2.014   5.350  20.591  0.00  0.00    +0.000 NA
ATOM     12  C   UNL     1       3.044   5.440  19.720  0.00  0.00    +0.000 A 
ENDBRANCH   4   7
BRANCH   1  14
ATOM     13  C   UNL     1       7.110   4.697  13.533  0.00  0.00    +0.000 C 
ATOM     14  O   UNL     1       7.329   5.394  14.761  0.00  0.00    +0.000 OA
ENDBRANCH   1  14
BRANCH   6  15
ATOM     15  O   UNL     1       6.743   7.381  16.868  0.00  0.00    +0.000 OA
ATOM     16  C   UNL     1       7.765   7.533  17.840  0.00  0.00    +0.000 C 
ENDBRANCH   6  15
TORSDOF 3
ENDMDL
MODEL 5
REMARK VINA RESULT:      -6.3      1.794      2.913
REMARK  Name = 
REMARK  5 active torsions:
REMARK  status: ('A' for Active; 'I' for Inactive)
REMARK    1  A    between atoms: C_1  and  O_2
REMARK    2  A    between atoms: O_2  and  C_3
REMARK    3  A    between atoms: C_6  and  C_7
REMARK    4  A    between atoms: C_14  and  O_15
REMARK    5  A    between atoms: O_15  and  C_16
REMARK                            x       y       z     vdW  Elec       q    Type
REMARK                         _______ _______ _______ _____ _____    ______ ____
ROOT
ATOM      1  C   UNL     1       6.337   6.299  16.880  0.00  0.00    +0.000 A 
ATOM      2  C   UNL     1       5.364   6.907  17.678  0.00  0.00    +0.000 A 
ATOM      3  C   UNL     1       4.219   6.205  18.078  0.00  0.00    +0.000 A 
ATOM      4  C   UNL     1       3.985   4.892  17.652  0.00  0.00    +0.000 A 
ATOM      5  C   UNL     1       4.924   4.338  16.763  0.00  0.00    +0.000 A 
ATOM      6  C   UNL     1       6.092   5.015  16.370  0.00  0.00    +0.000 A 
ENDROOT
BRANCH   4   7
ATOM      7  C   UNL     1       2.832   4.114  18.136  0.00  0.00    +0.000 A 
ATOM      8  C   UNL     1       2.020   4.504  19.191  0.00  0.00    +0.000 A 
ATOM      9  N   UNL     1       0.979   3.790  19.677  0.00  0.00    +0.000 NA
ATOM     10  C   UNL     1       0.739   2.625  19.059  0.00  0.00    +0.000 A 
ATOM     11  N   UNL     1       1.431   2.128  18.028  0.00  0.00    +0.000 NA
ATOM     12  C   UNL     1       2.464   2.887  17.599  0.00  0.00    +0.000 A 
ENDBRANCH   4   7
BRANCH   1  14
ATOM     13  C   UNL     1       7.881   7.994  17.462  0.00  0.00    +0.000 C 
ATOM     14  O   UNL     1       7.495   6.952  16.564  0.00  0.00    +0.000 OA
ENDBRANCH   1  14
BRANCH   6  15
ATOM     15  O   UNL     1       6.861   4.258  15.529  0.00  0.00    +0.000 OA
ATOM     16  C   UNL     1       6.389   3.988  14.218  0.00  0.00    +0.000 C 
ENDBRANCH   6  15
TORSDOF 3
ENDMDL
MODEL 6
REMARK VINA RESULT:      -6.2      1.640      1.989
REMARK  Name = 
REMARK  5 active torsions:
REMARK  status: ('A' for Active; 'I' for Inactive)
REMARK    1  A    between atoms: C_1  and  O_2
REMARK    2  A    between atoms: O_2  and  C_3
REMARK    3  A    between atoms: C_6  and  C_7
REMARK    4  A    between atoms: C_14  and  O_15
REMARK    5  A    between atoms: O_15  and  C_16
REMARK                            x       y       z     vdW  Elec       q    Type
REMARK                         _______ _______ _______ _____ _____    ______ ____
ROOT
ATOM      1  C   UNL     1       6.939   5.008  15.202  0.00  0.00    +0.000 A 
ATOM      2  C   UNL     1       5.922   4.320  14.534  0.00  0.00    +0.000 A 
ATOM      3  C   UNL     1       4.836   3.781  15.235  0.00  0.00    +0.000 A 
ATOM      4  C   UNL     1       4.756   3.867  16.630  0.00  0.00    +0.000 A 
ATOM      5  C   UNL     1       5.842   4.469  17.290  0.00  0.00    +0.000 A 
ATOM      6  C   UNL     1       6.929   5.039  16.604  0.00  0.00    +0.000 A 
ENDROOT
BRANCH   4   7
ATOM      7  C   UNL     1       3.578   3.383  17.370  0.00  0.00    +0.000 A 
ATOM      8  C   UNL     1       2.326   3.976  17.311  0.00  0.00    +0.000 A 
ATOM      9  N   UNL     1       1.240   3.573  18.010  0.00  0.00    +0.000 NA
ATOM     10  C   UNL     1       1.425   2.509  18.803  0.00  0.00    +0.000 A 
ATOM     11  N   UNL     1       2.570   1.834  18.953  0.00  0.00    +0.000 NA
ATOM     12  C   UNL     1       3.618   2.296  18.234  0.00  0.00    +0.000 A 
ENDBRANCH   4   7
BRANCH   1  14
ATOM     13  C   UNL     1       7.989   5.338  13.108  0.00  0.00    +0.000 C 
ATOM     14  O   UNL     1       7.951   5.611  14.509  0.00  0.00    +0.000 OA
ENDBRANCH   1  14
BRANCH   6  15
ATOM     15  O   UNL     1       7.841   5.591  17.462  0.00  0.00    +0.000 OA
ATOM     16  C   UNL     1       7.486   5.773  18.823  0.00  0.00    +0.000 C 
ENDBRANCH   6  15
TORSDOF 3
ENDMDL
MODEL 7
REMARK VINA RESULT:      -6.2      1.800      2.636
REMARK  Name = 
REMARK  5 active torsions:
REMARK  status: ('A' for Active; 'I' for Inactive)
REMARK    1  A    between atoms: C_1  and  O_2
REMARK    2  A    between atoms: O_2  and  C_3
REMARK    3  A    between atoms: C_6  and  C_7
REMARK    4  A    between atoms: C_14  and  O_15
REMARK    5  A    between atoms: O_15  and  C_16
REMARK                            x       y       z     vdW  Elec       q    Type
REMARK                         _______ _______ _______ _____ _____    ______ ____
ROOT
ATOM      1  C   UNL     1       6.121   6.353  16.915  0.00  0.00    +0.000 A 
ATOM      2  C   UNL     1       5.111   6.982  17.649  0.00  0.00    +0.000 A 
ATOM      3  C   UNL     1       3.996   6.266  18.100  0.00  0.00    +0.000 A 
ATOM      4  C   UNL     1       3.827   4.911  17.789  0.00  0.00    +0.000 A 
ATOM      5  C   UNL     1       4.800   4.326  16.960  0.00  0.00    +0.000 A 
ATOM      6  C   UNL     1       5.941   5.020  16.518  0.00  0.00    +0.000 A 
ENDROOT
BRANCH   4   7
ATOM      7  C   UNL     1       2.704   4.126  18.330  0.00  0.00    +0.000 A 
ATOM      8  C   UNL     1       2.252   2.936  17.779  0.00  0.00    +0.000 A 
ATOM      9  N   UNL     1       1.201   2.217  18.235  0.00  0.00    +0.000 NA
ATOM     10  C   UNL     1       0.580   2.720  19.310  0.00  0.00    +0.000 A 
ATOM     11  N   UNL     1       0.909   3.848  19.948  0.00  0.00    +0.000 NA
ATOM     12  C   UNL     1       1.962   4.523  19.434  0.00  0.00    +0.000 A 
ENDBRANCH   4   7
BRANCH   1  14
ATOM     13  C   UNL     1       7.722   7.996  17.493  0.00  0.00    +0.000 C 
ATOM     14  O   UNL     1       7.252   7.029  16.553  0.00  0.00    +0.000 OA
ENDBRANCH   1  14
BRANCH   6  15
ATOM     15  O   UNL     1       6.753   4.230  15.752  0.00  0.00    +0.000 OA
ATOM     16  C   UNL     1       6.523   4.154  14.354  0.00  0.00    +0.000 C 
ENDBRANCH   6  15
TORSDOF 3
ENDMDL
MODEL 8
REMARK VINA RESULT:      -6.2      3.725      5.926
REMARK  Name = 
REMARK  5 active torsions:
REMARK  status: ('A' for Active; 'I' for Inactive)
REMARK    1  A    between atoms: C_1  and  O_2
REMARK    2  A    between atoms: O_2  and  C_3
REMARK    3  A    between atoms: C_6  and  C_7
REMARK    4  A    between atoms: C_14  and  O_15
REMARK    5  A    between atoms: O_15  and  C_16
REMARK                            x       y       z     vdW  Elec       q    Type
REMARK                         _______ _______ _______ _____ _____    ______ ____
ROOT
ATOM      1  C   UNL     1       1.925   3.271  19.329  0.00  0.00    +0.000 A 
ATOM      2  C   UNL     1       2.446   2.297  18.473  0.00  0.00    +0.000 A 
ATOM      3  C   UNL     1       3.483   2.601  17.582  0.00  0.00    +0.000 A 
ATOM      4  C   UNL     1       3.997   3.899  17.480  0.00  0.00    +0.000 A 
ATOM      5  C   UNL     1       3.385   4.886  18.272  0.00  0.00    +0.000 A 
ATOM      6  C   UNL     1       2.361   4.597  19.193  0.00  0.00    +0.000 A 
ENDROOT
BRANCH   4   7
ATOM      7  C   UNL     1       5.145   4.213  16.612  0.00  0.00    +0.000 A 
ATOM      8  C   UNL     1       6.408   4.538  17.082  0.00  0.00    +0.000 A 
ATOM      9  N   UNL     1       7.467   4.866  16.306  0.00  0.00    +0.000 NA
ATOM     10  C   UNL     1       7.241   4.855  14.986  0.00  0.00    +0.000 A 
ATOM     11  N   UNL     1       6.081   4.554  14.392  0.00  0.00    +0.000 NA
ATOM     12  C   UNL     1       5.062   4.246  15.226  0.00  0.00    +0.000 A 
ENDBRANCH   4   7
BRANCH   1  14
ATOM     13  C   UNL     1       1.463   2.723  21.583  0.00  0.00    +0.000 C 
ATOM     14  O   UNL     1       0.977   2.954  20.260  0.00  0.00    +0.000 OA
ENDBRANCH   1  14
BRANCH   6  15
ATOM     15  O   UNL     1       1.951   5.715  19.867  0.00  0.00    +0.000 OA
ATOM     16  C   UNL     1       2.489   6.977  19.503  0.00  0.00    +0.000 C 
ENDBRANCH   6  15
TORSDOF 3
ENDMDL
MODEL 9
REMARK VINA RESULT:      -6.2      1.462      1.832
REMARK  Name = 
REMARK  5 active torsions:
REMARK  status: ('A' for Active; 'I' for Inactive)
REMARK    1  A    between atoms: C_1  and  O_2
REMARK    2  A    between atoms: O_2  and  C_3
REMARK    3  A    between atoms: C_6  and  C_7
REMARK    4  A    between atoms: C_14  and  O_15
REMARK    5  A    between atoms: O_15  and  C_16
REMARK                            x       y       z     vdW  Elec       q    Type
REMARK                         _______ _______ _______ _____ _____    ______ ____
ROOT
ATOM      1  C   UNL     1       5.802   5.305  15.740  0.00  0.00    +0.000 A 
ATOM      2  C   UNL     1       5.186   4.056  15.859  0.00  0.00    +0.000 A 
ATOM      3  C   UNL     1       4.478   3.709  17.016  0.00  0.00    +0.000 A 
ATOM      4  C   UNL     1       4.405   4.578  18.112  0.00  0.00    +0.000 A 
ATOM      5  C   UNL     1       5.122   5.784  18.012  0.00  0.00    +0.000 A 
ATOM      6  C   UNL     1       5.817   6.162  16.850  0.00  0.00    +0.000 A 
ENDROOT
BRANCH   4   7
ATOM      7  C   UNL     1       3.591   4.263  19.298  0.00  0.00    +0.000 A 
ATOM      8  C   UNL     1       2.761   5.174  19.935  0.00  0.00    +0.000 A 
ATOM      9  N   UNL     1       2.034   4.919  21.047  0.00  0.00    +0.000 NA
ATOM     10  C   UNL     1       2.142   3.676  21.536  0.00  0.00    +0.000 A 
ATOM     11  N   UNL     1       2.894   2.696  21.023  0.00  0.00    +0.000 NA
ATOM     12  C   UNL     1       3.603   3.021  19.919  0.00  0.00    +0.000 A 
ENDBRANCH   4   7
BRANCH   1  14
ATOM     13  C   UNL     1       6.969   4.614  13.802  0.00  0.00    +0.000 C 
ATOM     14  O   UNL     1       6.416   5.678  14.578  0.00  0.00    +0.000 OA
ENDBRANCH   1  14
BRANCH   6  15
ATOM     15  O   UNL     1       6.407   7.390  16.986  0.00  0.00    +0.000 OA
ATOM     16  C   UNL     1       7.648   7.488  17.667  0.00  0.00    +0.000 C 
ENDBRANCH   6  15
TORSDOF 3
ENDMDL
