MODEL 1
REMARK VINA RESULT:      -6.6      0.000      0.000
REMARK  Name = 
REMARK  3 active torsions:
REMARK  status: ('A' for Active; 'I' for Inactive)
REMARK    1  A    between atoms: C_1  and  C_2
REMARK    2  A    between atoms: C_6  and  C_7
REMARK    3  A    between atoms: C_12  and  C_13
REMARK                            x       y       z     vdW  Elec       q    Type
REMARK                         _______ _______ _______ _____ _____    ______ ____
ROOT
ATOM      1  C   UNL     1       4.987   4.471  17.983  0.00  0.00    +0.000 C 
ATOM      2  N   UNL     1       5.279   3.581  18.889  0.00  0.00    +0.000 NA
ATOM      3  N   UNL     1       4.172   3.448  19.707  0.00  0.00    +0.000 N 
ATOM      4  C   UNL     1       3.043   4.226  19.223  0.00  0.00    +0.000 C 
ATOM      5  S   UNL     1       2.376   5.454  20.329  0.00  0.00    +0.000 S 
ATOM      6  C   UNL     1       2.582   6.678  19.073  0.00  0.00    +0.000 C 
ATOM      7  N   UNL     1       3.291   6.374  18.023  0.00  0.00    +0.000 NA
ATOM      8  N   UNL     1       3.681   5.025  18.183  0.00  0.00    +0.000 N 
ATOM      9  H   UNL     1       4.383   3.695  20.676  0.00  0.00    +0.000 HD
ENDROOT
BRANCH   1  15
ATOM     10  C   UNL     1       7.379   6.597  18.190  0.00  0.00    +0.000 C 
ATOM     11  C   UNL     1       6.925   5.810  17.012  0.00  0.00    +0.000 A 
ATOM     12  N   UNL     1       7.611   5.979  15.815  0.00  0.00    +0.000 NA
ATOM     13  N   UNL     1       7.132   5.205  14.859  0.00  0.00    +0.000 NA
ATOM     14  S   UNL     1       5.864   4.255  15.372  0.00  0.00    +0.000 S 
ATOM     15  C   UNL     1       5.881   4.893  16.957  0.00  0.00    +0.000 A 
ENDBRANCH   1  15
BRANCH   6  16
ATOM     16  C   UNL     1       1.961   8.024  19.283  0.00  0.00    +0.000 C 
ATOM     17 CL   UNL     1       1.951   8.877  17.731  0.00  0.00    +0.000 Cl
ENDBRANCH   6  16
TORSDOF 2
ENDMDL
MODEL 2
REMARK VINA RESULT:      -6.5      2.891      5.318
REMARK  Name = 
REMARK  3 active torsions:
REMARK  status: ('A' for Active; 'I' for Inactive)
REMARK    1  A    between atoms: C_1  and  C_2
REMARK    2  A    between atoms: C_6  and  C_7
REMARK    3  A    between atoms: C_12  and  C_13
REMARK                            x       y       z     vdW  Elec       q    Type
REMARK                         _______ _______ _______ _____ _____    ______ ____
ROOT
ATOM      1  C   UNL     1       4.373   4.044  18.787  0.00  0.00    +0.000 C 
ATOM      2  N   UNL     1       5.289   3.935  19.709  0.00  0.00    +0.000 NA
ATOM      3  N   UNL     1       6.431   4.548  19.227  0.00  0.00    +0.000 N 
ATOM      4  C   UNL     1       6.199   5.200  17.948  0.00  0.00    +0.000 C 
ATOM      5  S   UNL     1       7.204   4.665  16.577  0.00  0.00    +0.000 S 
ATOM      6  C   UNL     1       5.739   4.350  15.643  0.00  0.00    +0.000 C 
ATOM      7  N   UNL     1       4.594   4.356  16.267  0.00  0.00    +0.000 NA
ATOM      8  N   UNL     1       4.875   4.689  17.612  0.00  0.00    +0.000 N 
ATOM      9  H   UNL     1       7.213   3.894  19.155  0.00  0.00    +0.000 HD
ENDROOT
BRANCH   1  15
ATOM     10  C   UNL     1       1.939   5.195  20.529  0.00  0.00    +0.000 C 
ATOM     11  C   UNL     1       1.976   3.995  19.651  0.00  0.00    +0.000 A 
ATOM     12  N   UNL     1       0.814   3.243  19.529  0.00  0.00    +0.000 NA
ATOM     13  N   UNL     1       0.968   2.228  18.700  0.00  0.00    +0.000 NA
ATOM     14  S   UNL     1       2.498   2.156  18.044  0.00  0.00    +0.000 S 
ATOM     15  C   UNL     1       3.052   3.523  18.907  0.00  0.00    +0.000 A 
ENDBRANCH   1  15
BRANCH   6  16
ATOM     16  C   UNL     1       5.876   4.056  14.181  0.00  0.00    +0.000 C 
ATOM     17 CL   UNL     1       7.268   4.961  13.564  0.00  0.00    +0.000 Cl
ENDBRANCH   6  16
TORSDOF 2
ENDMDL
MODEL 3
REMARK VINA RESULT:      -6.5      1.162      1.598
REMARK  Name = 
REMARK  3 active torsions:
REMARK  status: ('A' for Active; 'I' for Inactive)
REMARK    1  A    between atoms: C_1  and  C_2
REMARK    2  A    between atoms: C_6  and  C_7
REMARK    3  A    between atoms: C_12  and  C_13
REMARK                            x       y       z     vdW  Elec       q    Type
REMARK                         _______ _______ _______ _____ _____    ______ ____
ROOT
ATOM      1  C   UNL     1       5.100   4.565  18.276  0.00  0.00    +0.000 C 
ATOM      2  N   UNL     1       5.356   3.539  19.040  0.00  0.00    +0.000 NA
ATOM      3  N   UNL     1       4.196   3.244  19.733  0.00  0.00    +0.000 N 
ATOM      4  C   UNL     1       3.079   4.066  19.297  0.00  0.00    +0.000 C 
ATOM      5  S   UNL     1       2.286   5.071  20.537  0.00  0.00    +0.000 S 
ATOM      6  C   UNL     1       2.541   6.497  19.526  0.00  0.00    +0.000 C 
ATOM      7  N   UNL     1       3.337   6.393  18.499  0.00  0.00    +0.000 NA
ATOM      8  N   UNL     1       3.763   5.046  18.461  0.00  0.00    +0.000 N 
ATOM      9  H   UNL     1       4.324   3.326  20.744  0.00  0.00    +0.000 HD
ENDROOT
BRANCH   1  15
ATOM     10  C   UNL     1       5.853   3.754  15.266  0.00  0.00    +0.000 C 
ATOM     11  C   UNL     1       6.404   4.851  16.106  0.00  0.00    +0.000 A 
ATOM     12  N   UNL     1       7.376   5.672  15.546  0.00  0.00    +0.000 NA
ATOM     13  N   UNL     1       7.759   6.621  16.379  0.00  0.00    +0.000 NA
ATOM     14  S   UNL     1       6.961   6.559  17.840  0.00  0.00    +0.000 S 
ATOM     15  C   UNL     1       6.053   5.176  17.411  0.00  0.00    +0.000 A 
ENDBRANCH   1  15
BRANCH   6  16
ATOM     16  C   UNL     1       1.857   7.772  19.909  0.00  0.00    +0.000 C 
ATOM     17 CL   UNL     1       1.796   8.818  18.480  0.00  0.00    +0.000 Cl
ENDBRANCH   6  16
TORSDOF 2
ENDMDL
MODEL 4
REMARK VINA RESULT:      -6.5      2.107      3.068
REMARK  Name = 
REMARK  3 active torsions:
REMARK  status: ('A' for Active; 'I' for Inactive)
REMARK    1  A    between atoms: C_1  and  C_2
REMARK    2  A    between atoms: C_6  and  C_7
REMARK    3  A    between atoms: C_12  and  C_13
REMARK                            x       y       z     vdW  Elec       q    Type
REMARK                         _______ _______ _______ _____ _____    ______ ____
ROOT
ATOM      1  C   UNL     1       4.430   6.137  17.739  0.00  0.00    +0.000 C 
ATOM      2  N   UNL     1       3.567   7.064  17.430  0.00  0.00    +0.000 NA
ATOM      3  N   UNL     1       2.703   7.196  18.502  0.00  0.00    +0.000 N 
ATOM      4  C   UNL     1       3.110   6.373  19.630  0.00  0.00    +0.000 C 
ATOM      5  S   UNL     1       1.935   5.167  20.213  0.00  0.00    +0.000 S 
ATOM      6  C   UNL     1       3.160   3.907  20.032  0.00  0.00    +0.000 C 
ATOM      7  N   UNL     1       4.251   4.194  19.379  0.00  0.00    +0.000 NA
ATOM      8  N   UNL     1       4.152   5.557  19.019  0.00  0.00    +0.000 N 
ATOM      9  H   UNL     1       1.737   6.987  18.241  0.00  0.00    +0.000 HD
ENDROOT
BRANCH   1  15
ATOM     10  C   UNL     1       7.420   7.278  17.536  0.00  0.00    +0.000 C 
ATOM     11  C   UNL     1       6.785   6.175  16.767  0.00  0.00    +0.000 A 
ATOM     12  N   UNL     1       7.560   5.511  15.824  0.00  0.00    +0.000 NA
ATOM     13  N   UNL     1       6.892   4.537  15.234  0.00  0.00    +0.000 NA
ATOM     14  S   UNL     1       5.331   4.390  15.798  0.00  0.00    +0.000 S 
ATOM     15  C   UNL     1       5.482   5.704  16.881  0.00  0.00    +0.000 A 
ENDBRANCH   1  15
BRANCH   6  16
ATOM     16  C   UNL     1       2.878   2.553  20.606  0.00  0.00    +0.000 C 
ATOM     17 CL   UNL     1       1.466   2.686  21.668  0.00  0.00    +0.000 Cl
ENDBRANCH   6  16
TORSDOF 2
ENDMDL
MODEL 5
REMARK VINA RESULT:      -6.4      2.540      5.211
REMARK  Name = 
REMARK  3 active torsions:
REMARK  status: ('A' for Active; 'I' for Inactive)
REMARK    1  A    between atoms: C_1  and  C_2
REMARK    2  A    between atoms: C_6  and  C_7
REMARK    3  A    between atoms: C_12  and  C_13
REMARK                            x       y       z     vdW  Elec       q    Type
REMARK                         _______ _______ _______ _____ _____    ______ ____
ROOT
ATOM      1  C   UNL     1       4.101   3.876  18.421  0.00  0.00    +0.000 C 
ATOM      2  N   UNL     1       3.451   3.916  17.291  0.00  0.00    +0.000 NA
ATOM      3  N   UNL     1       4.376   4.154  16.292  0.00  0.00    +0.000 N 
ATOM      4  C   UNL     1       5.738   4.151  16.802  0.00  0.00    +0.000 C 
ATOM      5  S   UNL     1       6.693   5.636  16.558  0.00  0.00    +0.000 S 
ATOM      6  C   UNL     1       7.019   5.696  18.292  0.00  0.00    +0.000 C 
ATOM      7  N   UNL     1       6.336   4.912  19.078  0.00  0.00    +0.000 NA
ATOM      8  N   UNL     1       5.497   4.142  18.240  0.00  0.00    +0.000 N 
ATOM      9  H   UNL     1       4.186   5.027  15.795  0.00  0.00    +0.000 HD
ENDROOT
BRANCH   1  15
ATOM     10  C   UNL     1       2.147   5.838  20.038  0.00  0.00    +0.000 C 
ATOM     11  C   UNL     1       2.641   4.487  20.417  0.00  0.00    +0.000 A 
ATOM     12  N   UNL     1       2.214   3.956  21.629  0.00  0.00    +0.000 NA
ATOM     13  N   UNL     1       2.697   2.745  21.833  0.00  0.00    +0.000 NA
ATOM     14  S   UNL     1       3.660   2.213  20.582  0.00  0.00    +0.000 S 
ATOM     15  C   UNL     1       3.490   3.661  19.690  0.00  0.00    +0.000 A 
ENDBRANCH   1  15
BRANCH   6  16
ATOM     16  C   UNL     1       8.044   6.667  18.791  0.00  0.00    +0.000 C 
ATOM     17 CL   UNL     1       7.957   8.125  17.787  0.00  0.00    +0.000 Cl
ENDBRANCH   6  16
TORSDOF 2
ENDMDL
MODEL 6
REMARK VINA RESULT:      -6.3      2.087      3.042
REMARK  Name = 
REMARK  3 active torsions:
REMARK  status: ('A' for Active; 'I' for Inactive)
REMARK    1  A    between atoms: C_1  and  C_2
REMARK    2  A    between atoms: C_6  and  C_7
REMARK    3  A    between atoms: C_12  and  C_13
REMARK                            x       y       z     vdW  Elec       q    Type
REMARK                         _______ _______ _______ _____ _____    ______ ____
ROOT
ATOM      1  C   UNL     1       4.459   6.213  17.603  0.00  0.00    +0.000 C 
ATOM      2  N   UNL     1       3.715   7.284  17.604  0.00  0.00    +0.000 NA
ATOM      3  N   UNL     1       2.814   7.157  18.645  0.00  0.00    +0.000 N 
ATOM      4  C   UNL     1       3.072   5.971  19.445  0.00  0.00    +0.000 C 
ATOM      5  S   UNL     1       1.749   4.784  19.577  0.00  0.00    +0.000 S 
ATOM      6  C   UNL     1       2.843   3.520  19.009  0.00  0.00    +0.000 C 
ATOM      7  N   UNL     1       3.992   3.875  18.506  0.00  0.00    +0.000 NA
ATOM      8  N   UNL     1       4.055   5.284  18.615  0.00  0.00    +0.000 N 
ATOM      9  H   UNL     1       1.847   7.158  18.314  0.00  0.00    +0.000 HD
ENDROOT
BRANCH   1  15
ATOM     10  C   UNL     1       7.546   7.058  17.808  0.00  0.00    +0.000 C 
ATOM     11  C   UNL     1       6.848   6.317  16.723  0.00  0.00    +0.000 A 
ATOM     12  N   UNL     1       7.601   5.903  15.631  0.00  0.00    +0.000 NA
ATOM     13  N   UNL     1       6.875   5.232  14.757  0.00  0.00    +0.000 NA
ATOM     14  S   UNL     1       5.284   5.073  15.225  0.00  0.00    +0.000 S 
ATOM     15  C   UNL     1       5.504   5.965  16.666  0.00  0.00    +0.000 A 
ENDBRANCH   1  15
BRANCH   6  16
ATOM     16  C   UNL     1       2.392   2.095  19.100  0.00  0.00    +0.000 C 
ATOM     17 CL   UNL     1       0.640   2.052  18.838  0.00  0.00    +0.000 Cl
ENDBRANCH   6  16
TORSDOF 2
ENDMDL
MODEL 7
REMARK VINA RESULT:      -6.2      2.819      5.390
REMARK  Name = 
REMARK  3 active torsions:
REMARK  status: ('A' for Active; 'I' for Inactive)
REMARK    1  A    between atoms: C_1  and  C_2
REMARK    2  A    between atoms: C_6  and  C_7
REMARK    3  A    between atoms: C_12  and  C_13
REMARK                            x       y       z     vdW  Elec       q    Type
REMARK                         _______ _______ _______ _____ _____    ______ ____
ROOT
ATOM      1  C   UNL     1       4.601   4.529  19.063  0.00  0.00    +0.000 C 
ATOM      2  N   UNL     1       5.584   4.454  19.917  0.00  0.00    +0.000 NA
ATOM      3  N   UNL     1       6.705   4.978  19.300  0.00  0.00    +0.000 N 
ATOM      4  C   UNL     1       6.394   5.537  17.994  0.00  0.00    +0.000 C 
ATOM      5  S   UNL     1       7.265   4.855  16.597  0.00  0.00    +0.000 S 
ATOM      6  C   UNL     1       5.718   4.530  15.808  0.00  0.00    +0.000 C 
ATOM      7  N   UNL     1       4.629   4.634  16.516  0.00  0.00    +0.000 NA
ATOM      8  N   UNL     1       5.030   5.059  17.804  0.00  0.00    +0.000 N 
ATOM      9  H   UNL     1       7.454   4.287  19.220  0.00  0.00    +0.000 HD
ENDROOT
BRANCH   1  15
ATOM     10  C   UNL     1       3.259   1.735  18.241  0.00  0.00    +0.000 C 
ATOM     11  C   UNL     1       2.663   2.876  18.985  0.00  0.00    +0.000 A 
ATOM     12  N   UNL     1       1.346   2.756  19.413  0.00  0.00    +0.000 NA
ATOM     13  N   UNL     1       0.947   3.819  20.086  0.00  0.00    +0.000 NA
ATOM     14  S   UNL     1       2.136   4.977  20.228  0.00  0.00    +0.000 S 
ATOM     15  C   UNL     1       3.275   4.077  19.327  0.00  0.00    +0.000 A 
ENDBRANCH   1  15
BRANCH   6  16
ATOM     16  C   UNL     1       5.726   4.118  14.369  0.00  0.00    +0.000 C 
ATOM     17 CL   UNL     1       7.116   4.885  13.582  0.00  0.00    +0.000 Cl
ENDBRANCH   6  16
TORSDOF 2
ENDMDL
MODEL 8
REMARK VINA RESULT:      -6.2      1.271      1.406
REMARK  Name = 
REMARK  3 active torsions:
REMARK  status: ('A' for Active; 'I' for Inactive)
REMARK    1  A    between atoms: C_1  and  C_2
REMARK    2  A    between atoms: C_6  and  C_7
REMARK    3  A    between atoms: C_12  and  C_13
REMARK                            x       y       z     vdW  Elec       q    Type
REMARK                         _______ _______ _______ _____ _____    ______ ____
ROOT
ATOM      1  C   UNL     1       4.725   5.596  18.060  0.00  0.00    +0.000 C 
ATOM      2  N   UNL     1       4.923   5.063  19.233  0.00  0.00    +0.000 NA
ATOM      3  N   UNL     1       3.784   5.289  19.984  0.00  0.00    +0.000 N 
ATOM      4  C   UNL     1       2.731   5.913  19.198  0.00  0.00    +0.000 C 
ATOM      5  S   UNL     1       2.121   7.486  19.772  0.00  0.00    +0.000 S 
ATOM      6  C   UNL     1       2.456   8.181  18.183  0.00  0.00    +0.000 C 
ATOM      7  N   UNL     1       3.174   7.488  17.344  0.00  0.00    +0.000 NA
ATOM      8  N   UNL     1       3.459   6.260  17.983  0.00  0.00    +0.000 N 
ATOM      9  H   UNL     1       3.981   5.846  20.818  0.00  0.00    +0.000 HD
ENDROOT
BRANCH   1  15
ATOM     10  C   UNL     1       7.555   7.100  17.923  0.00  0.00    +0.000 C 
ATOM     11  C   UNL     1       6.913   6.219  16.910  0.00  0.00    +0.000 A 
ATOM     12  N   UNL     1       7.603   5.977  15.729  0.00  0.00    +0.000 NA
ATOM     13  N   UNL     1       6.942   5.160  14.930  0.00  0.00    +0.000 NA
ATOM     14  S   UNL     1       5.492   4.657  15.577  0.00  0.00    +0.000 S 
ATOM     15  C   UNL     1       5.681   5.581  17.003  0.00  0.00    +0.000 A 
ENDBRANCH   1  15
BRANCH   6  16
ATOM     16  C   UNL     1       1.930   9.549  17.879  0.00  0.00    +0.000 C 
ATOM     17 CL   UNL     1       0.787   9.998  19.157  0.00  0.00    +0.000 Cl
ENDBRANCH   6  16
TORSDOF 2
ENDMDL
MODEL 9
REMARK VINA RESULT:      -6.1      2.725      5.273
REMARK  Name = 
REMARK  3 active torsions:
REMARK  status: ('A' for Active; 'I' for Inactive)
REMARK    1  A    between atoms: C_1  and  C_2
REMARK    2  A    between atoms: C_6  and  C_7
REMARK    3  A    between atoms: C_12  and  C_13
REMARK                            x       y       z     vdW  Elec       q    Type
REMARK                         _______ _______ _______ _____ _____    ______ ____
ROOT
ATOM      1  C   UNL     1       4.078   3.804  18.389  0.00  0.00    +0.000 C 
ATOM      2  N   UNL     1       3.444   3.849  17.250  0.00  0.00    +0.000 NA
ATOM      3  N   UNL     1       4.383   4.107  16.268  0.00  0.00    +0.000 N 
ATOM      4  C   UNL     1       5.736   4.113  16.799  0.00  0.00    +0.000 C 
ATOM      5  S   UNL     1       6.679   5.610  16.586  0.00  0.00    +0.000 S 
ATOM      6  C   UNL     1       6.978   5.655  18.326  0.00  0.00    +0.000 C 
ATOM      7  N   UNL     1       6.291   4.856  19.092  0.00  0.00    +0.000 NA
ATOM      8  N   UNL     1       5.473   4.086  18.233  0.00  0.00    +0.000 N 
ATOM      9  H   UNL     1       4.191   4.983  15.778  0.00  0.00    +0.000 HD
ENDROOT
BRANCH   1  15
ATOM     10  C   UNL     1       4.763   1.541  20.556  0.00  0.00    +0.000 C 
ATOM     11  C   UNL     1       3.719   2.600  20.606  0.00  0.00    +0.000 A 
ATOM     12  N   UNL     1       2.911   2.662  21.735  0.00  0.00    +0.000 NA
ATOM     13  N   UNL     1       2.050   3.660  21.670  0.00  0.00    +0.000 NA
ATOM     14  S   UNL     1       2.193   4.547  20.267  0.00  0.00    +0.000 S 
ATOM     15  C   UNL     1       3.449   3.569  19.646  0.00  0.00    +0.000 A 
ENDBRANCH   1  15
BRANCH   6  16
ATOM     16  C   UNL     1       7.984   6.632  18.850  0.00  0.00    +0.000 C 
ATOM     17 CL   UNL     1       7.965   8.061  17.803  0.00  0.00    +0.000 Cl
ENDBRANCH   6  16
TORSDOF 2
ENDMDL
