MODEL 1
REMARK VINA RESULT:      -7.3      0.000      0.000
REMARK  Name = 
REMARK  3 active torsions:
REMARK  status: ('A' for Active; 'I' for Inactive)
REMARK    1  A    between atoms: C_1  and  S_2
REMARK    2  A    between atoms: S_2  and  C_5
REMARK    3  A    between atoms: C_8  and  C_9
REMARK                            x       y       z     vdW  Elec       q    Type
REMARK                         _______ _______ _______ _____ _____    ______ ____
ROOT
ATOM      1  C   UNL     1       2.329   7.512  18.899  0.00  0.00    +0.000 A 
ATOM      2  C   UNL     1       2.150   8.408  17.850  0.00  0.00    +0.000 A 
ATOM      3  C   UNL     1       1.463   9.603  18.066  0.00  0.00    +0.000 A 
ATOM      4  C   UNL     1       0.955   9.920  19.324  0.00  0.00    +0.000 A 
ATOM      5  N   UNL     1       0.276  11.101  19.522  0.00  0.00    +0.000 N 
ATOM      6  C   UNL     1       0.173  11.695  20.859  0.00  0.00    +0.000 C 
ATOM      7  C   UNL     1      -1.292  11.821  21.302  0.00  0.00    +0.000 C 
ATOM      8  O   UNL     1      -2.094  12.487  20.310  0.00  0.00    +0.000 OA
ATOM      9  C   UNL     1      -2.066  11.747  19.082  0.00  0.00    +0.000 C 
ATOM     10  C   UNL     1      -0.642  11.645  18.516  0.00  0.00    +0.000 C 
ATOM     11  N   UNL     1       1.156   9.079  20.359  0.00  0.00    +0.000 NA
ATOM     12  C   UNL     1       1.818   7.908  20.130  0.00  0.00    +0.000 A 
ENDROOT
BRANCH   1  16
ATOM     13  C   UNL     1       3.589   4.135  19.053  0.00  0.00    +0.000 A 
ATOM     14  N   UNL     1       4.345   4.618  18.091  0.00  0.00    +0.000 NA
ATOM     15  N   UNL     1       3.968   5.929  17.888  0.00  0.00    +0.000 NA
ATOM     16  C   UNL     1       2.990   6.224  18.726  0.00  0.00    +0.000 A 
ATOM     17  N   UNL     1       2.710   5.096  19.455  0.00  0.00    +0.000 N 
ATOM     18  H   UNL     1       2.019   4.985  20.181  0.00  0.00    +0.000 HD
BRANCH  13  20
ATOM     19  C   UNL     1       2.640   2.655  21.210  0.00  0.00    +0.000 C 
ATOM     20  S   UNL     1       3.652   2.541  19.763  0.00  0.00    +0.000 S 
ATOM     21  O   UNL     1       5.040   2.364  20.139  0.00  0.00    +0.000 OA
ATOM     22  O   UNL     1       3.022   1.679  18.779  0.00  0.00    +0.000 OA
ENDBRANCH  13  20
ENDBRANCH   1  16
TORSDOF 2
ENDMDL
MODEL 2
REMARK VINA RESULT:      -7.2      2.639      3.427
REMARK  Name = 
REMARK  3 active torsions:
REMARK  status: ('A' for Active; 'I' for Inactive)
REMARK    1  A    between atoms: C_1  and  S_2
REMARK    2  A    between atoms: S_2  and  C_5
REMARK    3  A    between atoms: C_8  and  C_9
REMARK                            x       y       z     vdW  Elec       q    Type
REMARK                         _______ _______ _______ _____ _____    ______ ____
ROOT
ATOM      1  C   UNL     1       2.739   7.360  18.440  0.00  0.00    +0.000 A 
ATOM      2  C   UNL     1       2.274   7.368  19.751  0.00  0.00    +0.000 A 
ATOM      3  C   UNL     1       1.424   8.388  20.180  0.00  0.00    +0.000 A 
ATOM      4  C   UNL     1       1.026   9.401  19.312  0.00  0.00    +0.000 A 
ATOM      5  N   UNL     1       0.190  10.403  19.750  0.00  0.00    +0.000 N 
ATOM      6  C   UNL     1      -0.632  11.166  18.804  0.00  0.00    +0.000 C 
ATOM      7  C   UNL     1      -0.288  12.662  18.848  0.00  0.00    +0.000 C 
ATOM      8  O   UNL     1      -0.323  13.179  20.190  0.00  0.00    +0.000 OA
ATOM      9  C   UNL     1       0.630  12.483  21.006  0.00  0.00    +0.000 C 
ATOM     10  C   UNL     1       0.312  10.984  21.091  0.00  0.00    +0.000 C 
ATOM     11  N   UNL     1       1.437   9.383  18.027  0.00  0.00    +0.000 NA
ATOM     12  C   UNL     1       2.278   8.387  17.625  0.00  0.00    +0.000 A 
ENDROOT
BRANCH   1  16
ATOM     13  C   UNL     1       5.473   5.432  17.089  0.00  0.00    +0.000 A 
ATOM     14  N   UNL     1       4.566   4.487  17.214  0.00  0.00    +0.000 NA
ATOM     15  N   UNL     1       3.436   5.068  17.750  0.00  0.00    +0.000 NA
ATOM     16  C   UNL     1       3.671   6.353  17.945  0.00  0.00    +0.000 A 
ATOM     17  N   UNL     1       4.964   6.604  17.562  0.00  0.00    +0.000 N 
ATOM     18  H   UNL     1       5.454   7.485  17.580  0.00  0.00    +0.000 HD
BRANCH  13  20
ATOM     19  C   UNL     1       6.837   4.581  14.817  0.00  0.00    +0.000 C 
ATOM     20  S   UNL     1       7.080   5.289  16.421  0.00  0.00    +0.000 S 
ATOM     21  O   UNL     1       7.752   4.342  17.287  0.00  0.00    +0.000 OA
ATOM     22  O   UNL     1       7.546   6.659  16.298  0.00  0.00    +0.000 OA
ENDBRANCH  13  20
ENDBRANCH   1  16
TORSDOF 2
ENDMDL
MODEL 3
REMARK VINA RESULT:      -7.2      0.786      1.066
REMARK  Name = 
REMARK  3 active torsions:
REMARK  status: ('A' for Active; 'I' for Inactive)
REMARK    1  A    between atoms: C_1  and  S_2
REMARK    2  A    between atoms: S_2  and  C_5
REMARK    3  A    between atoms: C_8  and  C_9
REMARK                            x       y       z     vdW  Elec       q    Type
REMARK                         _______ _______ _______ _____ _____    ______ ____
ROOT
ATOM      1  C   UNL     1       2.306   7.554  18.846  0.00  0.00    +0.000 A 
ATOM      2  C   UNL     1       2.169   8.509  17.843  0.00  0.00    +0.000 A 
ATOM      3  C   UNL     1       1.501   9.705  18.109  0.00  0.00    +0.000 A 
ATOM      4  C   UNL     1       0.971   9.964  19.371  0.00  0.00    +0.000 A 
ATOM      5  N   UNL     1       0.310  11.146  19.618  0.00  0.00    +0.000 N 
ATOM      6  C   UNL     1       0.189  11.670  20.983  0.00  0.00    +0.000 C 
ATOM      7  C   UNL     1      -1.283  11.801  21.400  0.00  0.00    +0.000 C 
ATOM      8  O   UNL     1      -2.049  12.537  20.429  0.00  0.00    +0.000 OA
ATOM      9  C   UNL     1      -2.008  11.863  19.164  0.00  0.00    +0.000 C 
ATOM     10  C   UNL     1      -0.574  11.763  18.624  0.00  0.00    +0.000 C 
ATOM     11  N   UNL     1       1.132   9.064  20.363  0.00  0.00    +0.000 NA
ATOM     12  C   UNL     1       1.776   7.894  20.084  0.00  0.00    +0.000 A 
ENDROOT
BRANCH   1  16
ATOM     13  C   UNL     1       3.585   4.182  18.905  0.00  0.00    +0.000 A 
ATOM     14  N   UNL     1       4.222   4.649  17.853  0.00  0.00    +0.000 NA
ATOM     15  N   UNL     1       3.821   5.957  17.675  0.00  0.00    +0.000 NA
ATOM     16  C   UNL     1       2.946   6.264  18.617  0.00  0.00    +0.000 A 
ATOM     17  N   UNL     1       2.757   5.148  19.392  0.00  0.00    +0.000 N 
ATOM     18  H   UNL     1       2.157   5.048  20.196  0.00  0.00    +0.000 HD
BRANCH  13  20
ATOM     19  C   UNL     1       3.491   1.469  18.289  0.00  0.00    +0.000 C 
ATOM     20  S   UNL     1       3.735   2.600  19.628  0.00  0.00    +0.000 S 
ATOM     21  O   UNL     1       2.628   2.517  20.559  0.00  0.00    +0.000 OA
ATOM     22  O   UNL     1       5.111   2.539  20.089  0.00  0.00    +0.000 OA
ENDBRANCH  13  20
ENDBRANCH   1  16
TORSDOF 2
ENDMDL
MODEL 4
REMARK VINA RESULT:      -7.2      7.899      8.676
REMARK  Name = 
REMARK  3 active torsions:
REMARK  status: ('A' for Active; 'I' for Inactive)
REMARK    1  A    between atoms: C_1  and  S_2
REMARK    2  A    between atoms: S_2  and  C_5
REMARK    3  A    between atoms: C_8  and  C_9
REMARK                            x       y       z     vdW  Elec       q    Type
REMARK                         _______ _______ _______ _____ _____    ______ ____
ROOT
ATOM      1  C   UNL     1       8.578   9.634  18.423  0.00  0.00    +0.000 A 
ATOM      2  C   UNL     1       9.357   9.914  19.542  0.00  0.00    +0.000 A 
ATOM      3  C   UNL     1       9.838  11.207  19.748  0.00  0.00    +0.000 A 
ATOM      4  C   UNL     1       9.545  12.232  18.850  0.00  0.00    +0.000 A 
ATOM      5  N   UNL     1      10.030  13.502  19.064  0.00  0.00    +0.000 N 
ATOM      6  C   UNL     1       9.370  14.670  18.470  0.00  0.00    +0.000 C 
ATOM      7  C   UNL     1      10.322  15.433  17.536  0.00  0.00    +0.000 C 
ATOM      8  O   UNL     1      11.569  15.741  18.183  0.00  0.00    +0.000 OA
ATOM      9  C   UNL     1      12.224  14.530  18.585  0.00  0.00    +0.000 C 
ATOM     10  C   UNL     1      11.377  13.740  19.593  0.00  0.00    +0.000 C 
ATOM     11  N   UNL     1       8.759  11.983  17.783  0.00  0.00    +0.000 NA
ATOM     12  C   UNL     1       8.306  10.711  17.589  0.00  0.00    +0.000 A 
ENDROOT
BRANCH   1  16
ATOM     13  C   UNL     1       6.953   6.653  17.204  0.00  0.00    +0.000 A 
ATOM     14  N   UNL     1       7.641   6.146  18.204  0.00  0.00    +0.000 NA
ATOM     15  N   UNL     1       8.352   7.177  18.781  0.00  0.00    +0.000 NA
ATOM     16  C   UNL     1       8.090   8.293  18.124  0.00  0.00    +0.000 A 
ATOM     17  N   UNL     1       7.229   7.983  17.102  0.00  0.00    +0.000 N 
ATOM     18  H   UNL     1       6.832   8.609  16.417  0.00  0.00    +0.000 HD
BRANCH  13  20
ATOM     19  C   UNL     1       6.835   4.658  15.267  0.00  0.00    +0.000 C 
ATOM     20  S   UNL     1       5.837   5.825  16.147  0.00  0.00    +0.000 S 
ATOM     21  O   UNL     1       5.360   6.853  15.244  0.00  0.00    +0.000 OA
ATOM     22  O   UNL     1       4.931   5.132  17.045  0.00  0.00    +0.000 OA
ENDBRANCH  13  20
ENDBRANCH   1  16
TORSDOF 2
ENDMDL
MODEL 5
REMARK VINA RESULT:      -7.0      2.297      2.598
REMARK  Name = 
REMARK  3 active torsions:
REMARK  status: ('A' for Active; 'I' for Inactive)
REMARK    1  A    between atoms: C_1  and  S_2
REMARK    2  A    between atoms: S_2  and  C_5
REMARK    3  A    between atoms: C_8  and  C_9
REMARK                            x       y       z     vdW  Elec       q    Type
REMARK                         _______ _______ _______ _____ _____    ______ ____
ROOT
ATOM      1  C   UNL     1       2.475   7.751  18.463  0.00  0.00    +0.000 A 
ATOM      2  C   UNL     1       2.262   8.853  17.642  0.00  0.00    +0.000 A 
ATOM      3  C   UNL     1       1.550   9.952  18.125  0.00  0.00    +0.000 A 
ATOM      4  C   UNL     1       1.051   9.967  19.426  0.00  0.00    +0.000 A 
ATOM      5  N   UNL     1       0.348  11.056  19.888  0.00  0.00    +0.000 N 
ATOM      6  C   UNL     1       0.249  11.334  21.324  0.00  0.00    +0.000 C 
ATOM      7  C   UNL     1      -1.213  11.320  21.796  0.00  0.00    +0.000 C 
ATOM      8  O   UNL     1      -2.043  12.170  20.985  0.00  0.00    +0.000 OA
ATOM      9  C   UNL     1      -2.015  11.723  19.622  0.00  0.00    +0.000 C 
ATOM     10  C   UNL     1      -0.597  11.787  19.036  0.00  0.00    +0.000 C 
ATOM     11  N   UNL     1       1.286   8.921  20.245  0.00  0.00    +0.000 NA
ATOM     12  C   UNL     1       1.972   7.849  19.755  0.00  0.00    +0.000 A 
ENDROOT
BRANCH   1  16
ATOM     13  C   UNL     1       4.672   5.246  17.079  0.00  0.00    +0.000 A 
ATOM     14  N   UNL     1       3.650   4.492  17.417  0.00  0.00    +0.000 NA
ATOM     15  N   UNL     1       2.704   5.312  17.995  0.00  0.00    +0.000 NA
ATOM     16  C   UNL     1       3.164   6.551  18.001  0.00  0.00    +0.000 A 
ATOM     17  N   UNL     1       4.421   6.532  17.453  0.00  0.00    +0.000 N 
ATOM     18  H   UNL     1       5.044   7.312  17.308  0.00  0.00    +0.000 HD
BRANCH  13  20
ATOM     19  C   UNL     1       7.341   4.617  17.555  0.00  0.00    +0.000 C 
ATOM     20  S   UNL     1       6.138   4.757  16.265  0.00  0.00    +0.000 S 
ATOM     21  O   UNL     1       6.464   5.873  15.399  0.00  0.00    +0.000 OA
ATOM     22  O   UNL     1       5.832   3.446  15.721  0.00  0.00    +0.000 OA
ENDBRANCH  13  20
ENDBRANCH   1  16
TORSDOF 2
ENDMDL
MODEL 6
REMARK VINA RESULT:      -6.9      2.484      3.145
REMARK  Name = 
REMARK  3 active torsions:
REMARK  status: ('A' for Active; 'I' for Inactive)
REMARK    1  A    between atoms: C_1  and  S_2
REMARK    2  A    between atoms: S_2  and  C_5
REMARK    3  A    between atoms: C_8  and  C_9
REMARK                            x       y       z     vdW  Elec       q    Type
REMARK                         _______ _______ _______ _____ _____    ______ ____
ROOT
ATOM      1  C   UNL     1       2.450   7.562  18.611  0.00  0.00    +0.000 A 
ATOM      2  C   UNL     1       1.966   7.679  19.910  0.00  0.00    +0.000 A 
ATOM      3  C   UNL     1       1.233   8.808  20.280  0.00  0.00    +0.000 A 
ATOM      4  C   UNL     1       0.969   9.823  19.362  0.00  0.00    +0.000 A 
ATOM      5  N   UNL     1       0.247  10.932  19.742  0.00  0.00    +0.000 N 
ATOM      6  C   UNL     1      -0.463  11.743  18.748  0.00  0.00    +0.000 C 
ATOM      7  C   UNL     1       0.051  13.191  18.740  0.00  0.00    +0.000 C 
ATOM      8  O   UNL     1       0.052  13.764  20.059  0.00  0.00    +0.000 OA
ATOM      9  C   UNL     1       0.904  12.998  20.923  0.00  0.00    +0.000 C 
ATOM     10  C   UNL     1       0.413  11.550  21.061  0.00  0.00    +0.000 C 
ATOM     11  N   UNL     1       1.398   9.703  18.089  0.00  0.00    +0.000 NA
ATOM     12  C   UNL     1       2.124   8.600  17.746  0.00  0.00    +0.000 A 
ENDROOT
BRANCH   1  16
ATOM     13  C   UNL     1       4.897   5.281  17.261  0.00  0.00    +0.000 A 
ATOM     14  N   UNL     1       3.985   4.425  17.666  0.00  0.00    +0.000 NA
ATOM     15  N   UNL     1       2.962   5.151  18.239  0.00  0.00    +0.000 NA
ATOM     16  C   UNL     1       3.267   6.435  18.177  0.00  0.00    +0.000 A 
ATOM     17  N   UNL     1       4.501   6.544  17.588  0.00  0.00    +0.000 N 
ATOM     18  H   UNL     1       5.019   7.386  17.389  0.00  0.00    +0.000 HD
BRANCH  13  20
ATOM     19  C   UNL     1       7.570   4.644  17.704  0.00  0.00    +0.000 C 
ATOM     20  S   UNL     1       6.388   4.937  16.420  0.00  0.00    +0.000 S 
ATOM     21  O   UNL     1       6.706   6.166  15.721  0.00  0.00    +0.000 OA
ATOM     22  O   UNL     1       6.121   3.707  15.696  0.00  0.00    +0.000 OA
ENDBRANCH  13  20
ENDBRANCH   1  16
TORSDOF 2
ENDMDL
MODEL 7
REMARK VINA RESULT:      -6.9      3.303      8.047
REMARK  Name = 
REMARK  3 active torsions:
REMARK  status: ('A' for Active; 'I' for Inactive)
REMARK    1  A    between atoms: C_1  and  S_2
REMARK    2  A    between atoms: S_2  and  C_5
REMARK    3  A    between atoms: C_8  and  C_9
REMARK                            x       y       z     vdW  Elec       q    Type
REMARK                         _______ _______ _______ _____ _____    ______ ____
ROOT
ATOM      1  C   UNL     1       1.368   8.546  20.418  0.00  0.00    +0.000 A 
ATOM      2  C   UNL     1       1.666   9.035  19.150  0.00  0.00    +0.000 A 
ATOM      3  C   UNL     1       2.369   8.239  18.246  0.00  0.00    +0.000 A 
ATOM      4  C   UNL     1       2.775   6.951  18.590  0.00  0.00    +0.000 A 
ATOM      5  N   UNL     1       3.471   6.178  17.689  0.00  0.00    +0.000 N 
ATOM      6  C   UNL     1       3.475   4.715  17.798  0.00  0.00    +0.000 C 
ATOM      7  C   UNL     1       4.900   4.175  17.996  0.00  0.00    +0.000 C 
ATOM      8  O   UNL     1       5.806   4.682  17.001  0.00  0.00    +0.000 OA
ATOM      9  C   UNL     1       5.862   6.114  17.077  0.00  0.00    +0.000 C 
ATOM     10  C   UNL     1       4.491   6.748  16.803  0.00  0.00    +0.000 C 
ATOM     11  N   UNL     1       2.457   6.450  19.802  0.00  0.00    +0.000 NA
ATOM     12  C   UNL     1       1.781   7.246  20.680  0.00  0.00    +0.000 A 
ENDROOT
BRANCH   1  16
ATOM     13  C   UNL     1      -0.574  10.896  22.347  0.00  0.00    +0.000 A 
ATOM     14  N   UNL     1       0.050  10.265  23.317  0.00  0.00    +0.000 NA
ATOM     15  N   UNL     1       0.840   9.295  22.737  0.00  0.00    +0.000 NA
ATOM     16  C   UNL     1       0.684   9.348  21.426  0.00  0.00    +0.000 A 
ATOM     17  N   UNL     1      -0.230  10.335  21.154  0.00  0.00    +0.000 N 
ATOM     18  H   UNL     1      -0.568  10.632  20.252  0.00  0.00    +0.000 HD
BRANCH  13  20
ATOM     19  C   UNL     1      -2.301  12.483  20.848  0.00  0.00    +0.000 C 
ATOM     20  S   UNL     1      -1.668  12.251  22.484  0.00  0.00    +0.000 S 
ATOM     21  O   UNL     1      -0.821  13.367  22.853  0.00  0.00    +0.000 OA
ATOM     22  O   UNL     1      -2.721  11.781  23.366  0.00  0.00    +0.000 OA
ENDBRANCH  13  20
ENDBRANCH   1  16
TORSDOF 2
ENDMDL
MODEL 8
REMARK VINA RESULT:      -6.8      2.137      2.560
REMARK  Name = 
REMARK  3 active torsions:
REMARK  status: ('A' for Active; 'I' for Inactive)
REMARK    1  A    between atoms: C_1  and  S_2
REMARK    2  A    between atoms: S_2  and  C_5
REMARK    3  A    between atoms: C_8  and  C_9
REMARK                            x       y       z     vdW  Elec       q    Type
REMARK                         _______ _______ _______ _____ _____    ______ ____
ROOT
ATOM      1  C   UNL     1       2.391   7.933  18.561  0.00  0.00    +0.000 A 
ATOM      2  C   UNL     1       2.169   9.009  17.707  0.00  0.00    +0.000 A 
ATOM      3  C   UNL     1       1.430  10.107  18.150  0.00  0.00    +0.000 A 
ATOM      4  C   UNL     1       0.911  10.146  19.443  0.00  0.00    +0.000 A 
ATOM      5  N   UNL     1       0.180  11.234  19.866  0.00  0.00    +0.000 N 
ATOM      6  C   UNL     1       0.055  11.547  21.293  0.00  0.00    +0.000 C 
ATOM      7  C   UNL     1      -1.413  11.518  21.743  0.00  0.00    +0.000 C 
ATOM      8  O   UNL     1      -2.247  12.330  20.897  0.00  0.00    +0.000 OA
ATOM      9  C   UNL     1      -2.190  11.848  19.548  0.00  0.00    +0.000 C 
ATOM     10  C   UNL     1      -0.764  11.924  18.982  0.00  0.00    +0.000 C 
ATOM     11  N   UNL     1       1.153   9.127  20.293  0.00  0.00    +0.000 NA
ATOM     12  C   UNL     1       1.867   8.056  19.842  0.00  0.00    +0.000 A 
ENDROOT
BRANCH   1  16
ATOM     13  C   UNL     1       4.711   5.424  17.404  0.00  0.00    +0.000 A 
ATOM     14  N   UNL     1       3.619   4.697  17.504  0.00  0.00    +0.000 NA
ATOM     15  N   UNL     1       2.614   5.522  17.965  0.00  0.00    +0.000 NA
ATOM     16  C   UNL     1       3.109   6.735  18.141  0.00  0.00    +0.000 A 
ATOM     17  N   UNL     1       4.442   6.693  17.821  0.00  0.00    +0.000 N 
ATOM     18  H   UNL     1       5.107   7.451  17.844  0.00  0.00    +0.000 HD
BRANCH  13  20
ATOM     19  C   UNL     1       5.932   3.709  15.584  0.00  0.00    +0.000 C 
ATOM     20  S   UNL     1       6.280   4.921  16.827  0.00  0.00    +0.000 S 
ATOM     21  O   UNL     1       6.907   4.293  17.972  0.00  0.00    +0.000 OA
ATOM     22  O   UNL     1       6.843   6.113  16.219  0.00  0.00    +0.000 OA
ENDBRANCH  13  20
ENDBRANCH   1  16
TORSDOF 2
ENDMDL
MODEL 9
REMARK VINA RESULT:      -6.8      3.034      8.003
REMARK  Name = 
REMARK  3 active torsions:
REMARK  status: ('A' for Active; 'I' for Inactive)
REMARK    1  A    between atoms: C_1  and  S_2
REMARK    2  A    between atoms: S_2  and  C_5
REMARK    3  A    between atoms: C_8  and  C_9
REMARK                            x       y       z     vdW  Elec       q    Type
REMARK                         _______ _______ _______ _____ _____    ______ ____
ROOT
ATOM      1  C   UNL     1       1.452   9.043  19.267  0.00  0.00    +0.000 A 
ATOM      2  C   UNL     1       2.001   9.044  17.988  0.00  0.00    +0.000 A 
ATOM      3  C   UNL     1       2.797   7.976  17.572  0.00  0.00    +0.000 A 
ATOM      4  C   UNL     1       3.048   6.898  18.418  0.00  0.00    +0.000 A 
ATOM      5  N   UNL     1       3.838   5.853  17.996  0.00  0.00    +0.000 N 
ATOM      6  C   UNL     1       3.724   4.527  18.612  0.00  0.00    +0.000 C 
ATOM      7  C   UNL     1       5.052   4.094  19.252  0.00  0.00    +0.000 C 
ATOM      8  O   UNL     1       6.151   4.211  18.331  0.00  0.00    +0.000 OA
ATOM      9  C   UNL     1       6.290   5.574  17.907  0.00  0.00    +0.000 C 
ATOM     10  C   UNL     1       5.033   6.067  17.174  0.00  0.00    +0.000 C 
ATOM     11  N   UNL     1       2.489   6.866  19.645  0.00  0.00    +0.000 NA
ATOM     12  C   UNL     1       1.724   7.923  20.043  0.00  0.00    +0.000 A 
ENDROOT
BRANCH   1  16
ATOM     13  C   UNL     1      -0.508  11.416  21.149  0.00  0.00    +0.000 A 
ATOM     14  N   UNL     1      -0.594  11.948  19.950  0.00  0.00    +0.000 NA
ATOM     15  N   UNL     1       0.136  11.153  19.092  0.00  0.00    +0.000 NA
ATOM     16  C   UNL     1       0.657  10.153  19.780  0.00  0.00    +0.000 A 
ATOM     17  N   UNL     1       0.289  10.311  21.091  0.00  0.00    +0.000 N 
ATOM     18  H   UNL     1       0.518   9.718  21.874  0.00  0.00    +0.000 HD
BRANCH  13  20
ATOM     19  C   UNL     1      -2.812  12.660  22.092  0.00  0.00    +0.000 C 
ATOM     20  S   UNL     1      -1.272  11.965  22.620  0.00  0.00    +0.000 S 
ATOM     21  O   UNL     1      -0.399  13.009  23.117  0.00  0.00    +0.000 OA
ATOM     22  O   UNL     1      -1.506  10.752  23.383  0.00  0.00    +0.000 OA
ENDBRANCH  13  20
ENDBRANCH   1  16
TORSDOF 2
ENDMDL
