MODEL 1
REMARK VINA RESULT:      -7.1      0.000      0.000
REMARK  Name = 
REMARK  7 active torsions:
REMARK  status: ('A' for Active; 'I' for Inactive)
REMARK    1  A    between atoms: C_1  and  C_2
REMARK    2  A    between atoms: C_2  and  C_3
REMARK    3  A    between atoms: C_3  and  C_4
REMARK    4  A    between atoms: C_3  and  N_10
REMARK    5  A    between atoms: N_10  and  C_11
REMARK    6  A    between atoms: C_12  and  C_14
REMARK    7  A    between atoms: C_18  and  C_19
REMARK                            x       y       z     vdW  Elec       q    Type
REMARK                         _______ _______ _______ _____ _____    ______ ____
ROOT
ATOM      1  N   UNL     1       5.064   5.462  17.906  0.00  0.00    +0.000 N 
ATOM      2  C   UNL     1       5.526   4.267  18.602  0.00  0.00    +0.000 C 
ATOM      3  C   UNL     1       3.803   6.046  18.113  0.00  0.00    +0.000 C 
ATOM      4  O   UNL     1       3.457   7.031  17.457  0.00  0.00    +0.000 OA
ENDROOT
BRANCH   3   5
ATOM      5  C   UNL     1       2.878   5.433  19.063  0.00  0.00    +0.000 A 
ATOM      6  O   UNL     1       2.901   5.783  20.389  0.00  0.00    +0.000 OA
ATOM      7  C   UNL     1       1.972   5.036  21.031  0.00  0.00    +0.000 A 
ATOM      8  C   UNL     1       1.304   4.235  20.139  0.00  0.00    +0.000 A 
ATOM      9  C   UNL     1       1.864   4.501  18.858  0.00  0.00    +0.000 A 
ATOM     10  C   UNL     1       1.461   3.882  17.571  0.00  0.00    +0.000 C 
ENDBRANCH   3   5
BRANCH   1  11
ATOM     11  C   UNL     1       6.052   6.130  17.029  0.00  0.00    +0.000 C 
BRANCH  11  12
ATOM     12  C   UNL     1       6.229   5.413  15.689  0.00  0.00    +0.000 A 
ATOM     13  C   UNL     1       5.236   4.591  15.149  0.00  0.00    +0.000 A 
ATOM     14  C   UNL     1       5.456   3.957  13.930  0.00  0.00    +0.000 A 
ATOM     15  C   UNL     1       6.654   4.160  13.266  0.00  0.00    +0.000 A 
ATOM     16  C   UNL     1       7.591   4.993  13.856  0.00  0.00    +0.000 A 
ATOM     17  N   UNL     1       7.410   5.614  15.045  0.00  0.00    +0.000 NA
ENDBRANCH  11  12
BRANCH  11  19
ATOM     18  C   UNL     1       7.771   7.941  17.672  0.00  0.00    +0.000 C 
ATOM     19  C   UNL     1       7.383   6.471  17.752  0.00  0.00    +0.000 C 
ENDBRANCH  11  19
ENDBRANCH   1  11
TORSDOF 4
ENDMDL
MODEL 2
REMARK VINA RESULT:      -6.9      2.042      3.568
REMARK  Name = 
REMARK  7 active torsions:
REMARK  status: ('A' for Active; 'I' for Inactive)
REMARK    1  A    between atoms: C_1  and  C_2
REMARK    2  A    between atoms: C_2  and  C_3
REMARK    3  A    between atoms: C_3  and  C_4
REMARK    4  A    between atoms: C_3  and  N_10
REMARK    5  A    between atoms: N_10  and  C_11
REMARK    6  A    between atoms: C_12  and  C_14
REMARK    7  A    between atoms: C_18  and  C_19
REMARK                            x       y       z     vdW  Elec       q    Type
REMARK                         _______ _______ _______ _____ _____    ______ ____
ROOT
ATOM      1  N   UNL     1       4.302   4.281  18.232  0.00  0.00    +0.000 N 
ATOM      2  C   UNL     1       3.230   5.223  17.936  0.00  0.00    +0.000 C 
ATOM      3  C   UNL     1       4.212   3.282  19.216  0.00  0.00    +0.000 C 
ATOM      4  O   UNL     1       5.174   2.546  19.448  0.00  0.00    +0.000 OA
ENDROOT
BRANCH   3   5
ATOM      5  C   UNL     1       2.992   3.169  20.012  0.00  0.00    +0.000 A 
ATOM      6  O   UNL     1       2.948   3.641  21.298  0.00  0.00    +0.000 OA
ATOM      7  C   UNL     1       1.719   3.370  21.798  0.00  0.00    +0.000 A 
ATOM      8  C   UNL     1       0.938   2.769  20.843  0.00  0.00    +0.000 A 
ATOM      9  C   UNL     1       1.742   2.657  19.674  0.00  0.00    +0.000 A 
ATOM     10  C   UNL     1       1.331   2.080  18.370  0.00  0.00    +0.000 C 
ENDBRANCH   3   5
BRANCH   1  11
ATOM     11  C   UNL     1       5.486   4.340  17.346  0.00  0.00    +0.000 C 
BRANCH  11  12
ATOM     12  C   UNL     1       6.464   5.448  17.743  0.00  0.00    +0.000 A 
ATOM     13  C   UNL     1       6.520   6.668  17.065  0.00  0.00    +0.000 A 
ATOM     14  C   UNL     1       7.436   7.635  17.466  0.00  0.00    +0.000 A 
ATOM     15  C   UNL     1       8.272   7.376  18.539  0.00  0.00    +0.000 A 
ATOM     16  C   UNL     1       8.157   6.147  19.169  0.00  0.00    +0.000 A 
ATOM     17  N   UNL     1       7.285   5.183  18.795  0.00  0.00    +0.000 NA
ENDBRANCH  11  12
BRANCH  11  19
ATOM     18  C   UNL     1       6.289   3.948  14.928  0.00  0.00    +0.000 C 
ATOM     19  C   UNL     1       5.125   4.317  15.836  0.00  0.00    +0.000 C 
ENDBRANCH  11  19
ENDBRANCH   1  11
TORSDOF 4
ENDMDL
MODEL 3
REMARK VINA RESULT:      -6.9      1.854      3.498
REMARK  Name = 
REMARK  7 active torsions:
REMARK  status: ('A' for Active; 'I' for Inactive)
REMARK    1  A    between atoms: C_1  and  C_2
REMARK    2  A    between atoms: C_2  and  C_3
REMARK    3  A    between atoms: C_3  and  C_4
REMARK    4  A    between atoms: C_3  and  N_10
REMARK    5  A    between atoms: N_10  and  C_11
REMARK    6  A    between atoms: C_12  and  C_14
REMARK    7  A    between atoms: C_18  and  C_19
REMARK                            x       y       z     vdW  Elec       q    Type
REMARK                         _______ _______ _______ _____ _____    ______ ____
ROOT
ATOM      1  N   UNL     1       4.334   4.468  18.080  0.00  0.00    +0.000 N 
ATOM      2  C   UNL     1       3.208   5.333  17.752  0.00  0.00    +0.000 C 
ATOM      3  C   UNL     1       4.306   3.506  19.103  0.00  0.00    +0.000 C 
ATOM      4  O   UNL     1       5.310   2.837  19.358  0.00  0.00    +0.000 OA
ENDROOT
BRANCH   3   5
ATOM      5  C   UNL     1       3.097   3.353  19.908  0.00  0.00    +0.000 A 
ATOM      6  O   UNL     1       3.007   3.920  21.153  0.00  0.00    +0.000 OA
ATOM      7  C   UNL     1       1.804   3.585  21.676  0.00  0.00    +0.000 A 
ATOM      8  C   UNL     1       1.080   2.848  20.774  0.00  0.00    +0.000 A 
ATOM      9  C   UNL     1       1.896   2.712  19.615  0.00  0.00    +0.000 A 
ATOM     10  C   UNL     1       1.540   2.001  18.362  0.00  0.00    +0.000 C 
ENDBRANCH   3   5
BRANCH   1  11
ATOM     11  C   UNL     1       5.511   4.562  17.186  0.00  0.00    +0.000 C 
BRANCH  11  12
ATOM     12  C   UNL     1       6.471   5.681  17.593  0.00  0.00    +0.000 A 
ATOM     13  C   UNL     1       7.404   5.523  18.622  0.00  0.00    +0.000 A 
ATOM     14  C   UNL     1       8.245   6.580  18.954  0.00  0.00    +0.000 A 
ATOM     15  C   UNL     1       8.152   7.770  18.252  0.00  0.00    +0.000 A 
ATOM     16  C   UNL     1       7.209   7.854  17.240  0.00  0.00    +0.000 A 
ATOM     17  N   UNL     1       6.370   6.848  16.901  0.00  0.00    +0.000 NA
ENDBRANCH  11  12
BRANCH  11  19
ATOM     18  C   UNL     1       6.230   3.998  14.775  0.00  0.00    +0.000 C 
ATOM     19  C   UNL     1       5.138   4.554  15.679  0.00  0.00    +0.000 C 
ENDBRANCH  11  19
ENDBRANCH   1  11
TORSDOF 4
ENDMDL
MODEL 4
REMARK VINA RESULT:      -6.7      1.069      1.372
REMARK  Name = 
REMARK  7 active torsions:
REMARK  status: ('A' for Active; 'I' for Inactive)
REMARK    1  A    between atoms: C_1  and  C_2
REMARK    2  A    between atoms: C_2  and  C_3
REMARK    3  A    between atoms: C_3  and  C_4
REMARK    4  A    between atoms: C_3  and  N_10
REMARK    5  A    between atoms: N_10  and  C_11
REMARK    6  A    between atoms: C_12  and  C_14
REMARK    7  A    between atoms: C_18  and  C_19
REMARK                            x       y       z     vdW  Elec       q    Type
REMARK                         _______ _______ _______ _____ _____    ______ ____
ROOT
ATOM      1  N   UNL     1       4.836   6.011  17.864  0.00  0.00    +0.000 N 
ATOM      2  C   UNL     1       3.729   6.934  17.649  0.00  0.00    +0.000 C 
ATOM      3  C   UNL     1       4.733   4.834  18.625  0.00  0.00    +0.000 C 
ATOM      4  O   UNL     1       5.721   4.120  18.805  0.00  0.00    +0.000 OA
ENDROOT
BRANCH   3   5
ATOM      5  C   UNL     1       3.460   4.501  19.258  0.00  0.00    +0.000 A 
ATOM      6  O   UNL     1       3.104   5.065  20.456  0.00  0.00    +0.000 OA
ATOM      7  C   UNL     1       1.905   4.549  20.818  0.00  0.00    +0.000 A 
ATOM      8  C   UNL     1       1.444   3.691  19.853  0.00  0.00    +0.000 A 
ATOM      9  C   UNL     1       2.430   3.670  18.825  0.00  0.00    +0.000 A 
ATOM     10  C   UNL     1       2.375   2.892  17.563  0.00  0.00    +0.000 C 
ENDBRANCH   3   5
BRANCH   1  11
ATOM     11  C   UNL     1       6.086   6.308  17.128  0.00  0.00    +0.000 C 
BRANCH  11  12
ATOM     12  C   UNL     1       6.214   5.498  15.836  0.00  0.00    +0.000 A 
ATOM     13  C   UNL     1       5.201   4.646  15.389  0.00  0.00    +0.000 A 
ATOM     14  C   UNL     1       5.378   3.927  14.211  0.00  0.00    +0.000 A 
ATOM     15  C   UNL     1       6.553   4.077  13.494  0.00  0.00    +0.000 A 
ATOM     16  C   UNL     1       7.512   4.944  13.993  0.00  0.00    +0.000 A 
ATOM     17  N   UNL     1       7.374   5.647  15.140  0.00  0.00    +0.000 NA
ENDBRANCH  11  12
BRANCH  11  19
ATOM     18  C   UNL     1       8.050   7.626  18.153  0.00  0.00    +0.000 C 
ATOM     19  C   UNL     1       7.350   6.280  18.029  0.00  0.00    +0.000 C 
ENDBRANCH  11  19
ENDBRANCH   1  11
TORSDOF 4
ENDMDL
MODEL 5
REMARK VINA RESULT:      -6.6      1.943      3.718
REMARK  Name = 
REMARK  7 active torsions:
REMARK  status: ('A' for Active; 'I' for Inactive)
REMARK    1  A    between atoms: C_1  and  C_2
REMARK    2  A    between atoms: C_2  and  C_3
REMARK    3  A    between atoms: C_3  and  C_4
REMARK    4  A    between atoms: C_3  and  N_10
REMARK    5  A    between atoms: N_10  and  C_11
REMARK    6  A    between atoms: C_12  and  C_14
REMARK    7  A    between atoms: C_18  and  C_19
REMARK                            x       y       z     vdW  Elec       q    Type
REMARK                         _______ _______ _______ _____ _____    ______ ____
ROOT
ATOM      1  N   UNL     1       4.213   4.610  17.476  0.00  0.00    +0.000 N 
ATOM      2  C   UNL     1       3.420   5.819  17.657  0.00  0.00    +0.000 C 
ATOM      3  C   UNL     1       3.799   3.335  17.897  0.00  0.00    +0.000 C 
ATOM      4  O   UNL     1       4.540   2.360  17.754  0.00  0.00    +0.000 OA
ENDROOT
BRANCH   3   5
ATOM      5  C   UNL     1       2.511   3.187  18.569  0.00  0.00    +0.000 A 
ATOM      6  O   UNL     1       1.457   2.576  17.939  0.00  0.00    +0.000 OA
ATOM      7  C   UNL     1       0.394   2.616  18.776  0.00  0.00    +0.000 A 
ATOM      8  C   UNL     1       0.745   3.200  19.967  0.00  0.00    +0.000 A 
ATOM      9  C   UNL     1       2.120   3.551  19.855  0.00  0.00    +0.000 A 
ATOM     10  C   UNL     1       2.953   4.202  20.896  0.00  0.00    +0.000 C 
ENDBRANCH   3   5
BRANCH   1  11
ATOM     11  C   UNL     1       5.465   4.761  16.699  0.00  0.00    +0.000 C 
BRANCH  11  12
ATOM     12  C   UNL     1       6.464   5.704  17.371  0.00  0.00    +0.000 A 
ATOM     13  C   UNL     1       7.163   5.346  18.528  0.00  0.00    +0.000 A 
ATOM     14  C   UNL     1       8.053   6.249  19.100  0.00  0.00    +0.000 A 
ATOM     15  C   UNL     1       8.240   7.486  18.508  0.00  0.00    +0.000 A 
ATOM     16  C   UNL     1       7.520   7.771  17.359  0.00  0.00    +0.000 A 
ATOM     17  N   UNL     1       6.639   6.919  16.786  0.00  0.00    +0.000 NA
ENDBRANCH  11  12
BRANCH  11  19
ATOM     18  C   UNL     1       5.975   4.124  14.254  0.00  0.00    +0.000 C 
ATOM     19  C   UNL     1       5.221   5.053  15.195  0.00  0.00    +0.000 C 
ENDBRANCH  11  19
ENDBRANCH   1  11
TORSDOF 4
ENDMDL
MODEL 6
REMARK VINA RESULT:      -6.6      2.093      3.791
REMARK  Name = 
REMARK  7 active torsions:
REMARK  status: ('A' for Active; 'I' for Inactive)
REMARK    1  A    between atoms: C_1  and  C_2
REMARK    2  A    between atoms: C_2  and  C_3
REMARK    3  A    between atoms: C_3  and  C_4
REMARK    4  A    between atoms: C_3  and  N_10
REMARK    5  A    between atoms: N_10  and  C_11
REMARK    6  A    between atoms: C_12  and  C_14
REMARK    7  A    between atoms: C_18  and  C_19
REMARK                            x       y       z     vdW  Elec       q    Type
REMARK                         _______ _______ _______ _____ _____    ______ ____
ROOT
ATOM      1  N   UNL     1       4.167   4.362  17.566  0.00  0.00    +0.000 N 
ATOM      2  C   UNL     1       3.335   5.558  17.545  0.00  0.00    +0.000 C 
ATOM      3  C   UNL     1       3.764   3.142  18.133  0.00  0.00    +0.000 C 
ATOM      4  O   UNL     1       4.535   2.180  18.157  0.00  0.00    +0.000 OA
ENDROOT
BRANCH   3   5
ATOM      5  C   UNL     1       2.447   3.043  18.756  0.00  0.00    +0.000 A 
ATOM      6  O   UNL     1       1.414   2.407  18.116  0.00  0.00    +0.000 OA
ATOM      7  C   UNL     1       0.316   2.503  18.904  0.00  0.00    +0.000 A 
ATOM      8  C   UNL     1       0.623   3.150  20.074  0.00  0.00    +0.000 A 
ATOM      9  C   UNL     1       2.005   3.482  20.002  0.00  0.00    +0.000 A 
ATOM     10  C   UNL     1       2.801   4.184  21.040  0.00  0.00    +0.000 C 
ENDBRANCH   3   5
BRANCH   1  11
ATOM     11  C   UNL     1       5.453   4.449  16.837  0.00  0.00    +0.000 C 
BRANCH  11  12
ATOM     12  C   UNL     1       6.441   5.412  17.498  0.00  0.00    +0.000 A 
ATOM     13  C   UNL     1       6.721   6.672  16.964  0.00  0.00    +0.000 A 
ATOM     14  C   UNL     1       7.636   7.501  17.604  0.00  0.00    +0.000 A 
ATOM     15  C   UNL     1       8.248   7.068  18.769  0.00  0.00    +0.000 A 
ATOM     16  C   UNL     1       7.917   5.809  19.245  0.00  0.00    +0.000 A 
ATOM     17  N   UNL     1       7.040   4.976  18.639  0.00  0.00    +0.000 NA
ENDBRANCH  11  12
BRANCH  11  19
ATOM     18  C   UNL     1       6.347   3.981  14.465  0.00  0.00    +0.000 C 
ATOM     19  C   UNL     1       5.278   4.661  15.309  0.00  0.00    +0.000 C 
ENDBRANCH  11  19
ENDBRANCH   1  11
TORSDOF 4
ENDMDL
MODEL 7
REMARK VINA RESULT:      -6.6      0.870      1.306
REMARK  Name = 
REMARK  7 active torsions:
REMARK  status: ('A' for Active; 'I' for Inactive)
REMARK    1  A    between atoms: C_1  and  C_2
REMARK    2  A    between atoms: C_2  and  C_3
REMARK    3  A    between atoms: C_3  and  C_4
REMARK    4  A    between atoms: C_3  and  N_10
REMARK    5  A    between atoms: N_10  and  C_11
REMARK    6  A    between atoms: C_12  and  C_14
REMARK    7  A    between atoms: C_18  and  C_19
REMARK                            x       y       z     vdW  Elec       q    Type
REMARK                         _______ _______ _______ _____ _____    ______ ____
ROOT
ATOM      1  N   UNL     1       5.126   5.499  17.998  0.00  0.00    +0.000 N 
ATOM      2  C   UNL     1       5.677   4.448  18.843  0.00  0.00    +0.000 C 
ATOM      3  C   UNL     1       3.800   5.956  18.086  0.00  0.00    +0.000 C 
ATOM      4  O   UNL     1       3.384   6.818  17.310  0.00  0.00    +0.000 OA
ENDROOT
BRANCH   3   5
ATOM      5  C   UNL     1       2.899   5.349  19.063  0.00  0.00    +0.000 A 
ATOM      6  O   UNL     1       2.750   3.988  19.129  0.00  0.00    +0.000 OA
ATOM      7  C   UNL     1       1.834   3.716  20.088  0.00  0.00    +0.000 A 
ATOM      8  C   UNL     1       1.413   4.876  20.688  0.00  0.00    +0.000 A 
ATOM      9  C   UNL     1       2.113   5.939  20.050  0.00  0.00    +0.000 A 
ATOM     10  C   UNL     1       2.000   7.385  20.363  0.00  0.00    +0.000 C 
ENDBRANCH   3   5
BRANCH   1  11
ATOM     11  C   UNL     1       6.080   6.175  17.090  0.00  0.00    +0.000 C 
BRANCH  11  12
ATOM     12  C   UNL     1       6.243   5.444  15.756  0.00  0.00    +0.000 A 
ATOM     13  C   UNL     1       5.251   4.603  15.243  0.00  0.00    +0.000 A 
ATOM     14  C   UNL     1       5.459   3.957  14.030  0.00  0.00    +0.000 A 
ATOM     15  C   UNL     1       6.643   4.165  13.343  0.00  0.00    +0.000 A 
ATOM     16  C   UNL     1       7.579   5.017  13.907  0.00  0.00    +0.000 A 
ATOM     17  N   UNL     1       7.411   5.650  15.090  0.00  0.00    +0.000 NA
ENDBRANCH  11  12
BRANCH  11  19
ATOM     18  C   UNL     1       7.790   8.024  17.641  0.00  0.00    +0.000 C 
ATOM     19  C   UNL     1       7.418   6.554  17.779  0.00  0.00    +0.000 C 
ENDBRANCH  11  19
ENDBRANCH   1  11
TORSDOF 4
ENDMDL
MODEL 8
REMARK VINA RESULT:      -6.5      1.986      6.187
REMARK  Name = 
REMARK  7 active torsions:
REMARK  status: ('A' for Active; 'I' for Inactive)
REMARK    1  A    between atoms: C_1  and  C_2
REMARK    2  A    between atoms: C_2  and  C_3
REMARK    3  A    between atoms: C_3  and  C_4
REMARK    4  A    between atoms: C_3  and  N_10
REMARK    5  A    between atoms: N_10  and  C_11
REMARK    6  A    between atoms: C_12  and  C_14
REMARK    7  A    between atoms: C_18  and  C_19
REMARK                            x       y       z     vdW  Elec       q    Type
REMARK                         _______ _______ _______ _____ _____    ______ ____
ROOT
ATOM      1  N   UNL     1       3.867   5.971  18.364  0.00  0.00    +0.000 N 
ATOM      2  C   UNL     1       3.524   6.844  17.249  0.00  0.00    +0.000 C 
ATOM      3  C   UNL     1       4.940   5.065  18.343  0.00  0.00    +0.000 C 
ATOM      4  O   UNL     1       5.149   4.322  19.305  0.00  0.00    +0.000 OA
ENDROOT
BRANCH   3   5
ATOM      5  C   UNL     1       5.766   4.962  17.142  0.00  0.00    +0.000 A 
ATOM      6  O   UNL     1       5.496   4.018  16.185  0.00  0.00    +0.000 OA
ATOM      7  C   UNL     1       6.436   4.129  15.216  0.00  0.00    +0.000 A 
ATOM      8  C   UNL     1       7.292   5.164  15.498  0.00  0.00    +0.000 A 
ATOM      9  C   UNL     1       6.853   5.727  16.729  0.00  0.00    +0.000 A 
ATOM     10  C   UNL     1       7.460   6.881  17.439  0.00  0.00    +0.000 C 
ENDBRANCH   3   5
BRANCH   1  11
ATOM     11  C   UNL     1       3.089   6.165  19.608  0.00  0.00    +0.000 C 
BRANCH  11  12
ATOM     12  C   UNL     1       2.364   4.893  20.053  0.00  0.00    +0.000 A 
ATOM     13  C   UNL     1       1.475   4.213  19.217  0.00  0.00    +0.000 A 
ATOM     14  C   UNL     1       0.838   3.066  19.679  0.00  0.00    +0.000 A 
ATOM     15  C   UNL     1       1.102   2.611  20.960  0.00  0.00    +0.000 A 
ATOM     16  C   UNL     1       2.000   3.332  21.732  0.00  0.00    +0.000 A 
ATOM     17  N   UNL     1       2.626   4.456  21.315  0.00  0.00    +0.000 NA
ENDBRANCH  11  12
BRANCH  11  19
ATOM     18  C   UNL     1       1.527   7.748  20.913  0.00  0.00    +0.000 C 
ATOM     19  C   UNL     1       2.196   7.434  19.582  0.00  0.00    +0.000 C 
ENDBRANCH  11  19
ENDBRANCH   1  11
TORSDOF 4
ENDMDL
MODEL 9
REMARK VINA RESULT:      -6.4      1.887      3.528
REMARK  Name = 
REMARK  7 active torsions:
REMARK  status: ('A' for Active; 'I' for Inactive)
REMARK    1  A    between atoms: C_1  and  C_2
REMARK    2  A    between atoms: C_2  and  C_3
REMARK    3  A    between atoms: C_3  and  C_4
REMARK    4  A    between atoms: C_3  and  N_10
REMARK    5  A    between atoms: N_10  and  C_11
REMARK    6  A    between atoms: C_12  and  C_14
REMARK    7  A    between atoms: C_18  and  C_19
REMARK                            x       y       z     vdW  Elec       q    Type
REMARK                         _______ _______ _______ _____ _____    ______ ____
ROOT
ATOM      1  N   UNL     1       4.472   4.215  17.759  0.00  0.00    +0.000 N 
ATOM      2  C   UNL     1       3.288   4.516  16.963  0.00  0.00    +0.000 C 
ATOM      3  C   UNL     1       4.423   3.745  19.082  0.00  0.00    +0.000 C 
ATOM      4  O   UNL     1       5.463   3.553  19.715  0.00  0.00    +0.000 OA
ENDROOT
BRANCH   3   5
ATOM      5  C   UNL     1       3.125   3.551  19.725  0.00  0.00    +0.000 A 
ATOM      6  O   UNL     1       2.632   2.291  19.943  0.00  0.00    +0.000 OA
ATOM      7  C   UNL     1       1.409   2.416  20.512  0.00  0.00    +0.000 A 
ATOM      8  C   UNL     1       1.111   3.740  20.715  0.00  0.00    +0.000 A 
ATOM      9  C   UNL     1       2.225   4.484  20.233  0.00  0.00    +0.000 A 
ATOM     10  C   UNL     1       2.374   5.961  20.247  0.00  0.00    +0.000 C 
ENDBRANCH   3   5
BRANCH   1  11
ATOM     11  C   UNL     1       5.772   4.314  17.058  0.00  0.00    +0.000 C 
BRANCH  11  12
ATOM     12  C   UNL     1       6.545   5.581  17.429  0.00  0.00    +0.000 A 
ATOM     13  C   UNL     1       7.566   5.576  18.383  0.00  0.00    +0.000 A 
ATOM     14  C   UNL     1       8.229   6.761  18.686  0.00  0.00    +0.000 A 
ATOM     15  C   UNL     1       7.872   7.927  18.029  0.00  0.00    +0.000 A 
ATOM     16  C   UNL     1       6.856   7.856  17.090  0.00  0.00    +0.000 A 
ATOM     17  N   UNL     1       6.186   6.722  16.781  0.00  0.00    +0.000 NA
ENDBRANCH  11  12
BRANCH  11  19
ATOM     18  C   UNL     1       6.913   4.447  14.750  0.00  0.00    +0.000 C 
ATOM     19  C   UNL     1       5.668   4.052  15.532  0.00  0.00    +0.000 C 
ENDBRANCH  11  19
ENDBRANCH   1  11
TORSDOF 4
ENDMDL
