MODEL 1
REMARK VINA RESULT:      -8.0      0.000      0.000
REMARK  Name = 
REMARK  14 active torsions:
REMARK  status: ('A' for Active; 'I' for Inactive)
REMARK    1  A    between atoms: C_1  and  C_2
REMARK    2  A    between atoms: C_2  and  C_3
REMARK    3  A    between atoms: C_2  and  C_4
REMARK    4  A    between atoms: C_2  and  N_6
REMARK    5  A    between atoms: C_4  and  O_5
REMARK    6  A    between atoms: N_6  and  S_7
REMARK    7  A    between atoms: S_7  and  C_10
REMARK    8  A    between atoms: C_20  and  S_21
REMARK    9  A    between atoms: S_21  and  N_24
REMARK   10  A    between atoms: N_24  and  C_25
REMARK   11  A    between atoms: C_25  and  C_26
REMARK   12  A    between atoms: C_25  and  C_27
REMARK   13  A    between atoms: C_25  and  C_28
REMARK   14  A    between atoms: C_28  and  O_29
REMARK                            x       y       z     vdW  Elec       q    Type
REMARK                         _______ _______ _______ _____ _____    ______ ____
ROOT
ATOM      1  C   UNL     1       3.277   5.639  18.831  0.00  0.00    +0.000 A 
ATOM      2  C   UNL     1       2.789   5.345  20.123  0.00  0.00    +0.000 A 
ATOM      3  C   UNL     1       2.008   6.275  20.819  0.00  0.00    +0.000 A 
ATOM      4  C   UNL     1       1.733   7.488  20.210  0.00  0.00    +0.000 A 
ATOM      5  C   UNL     1       2.248   7.764  18.932  0.00  0.00    +0.000 A 
ATOM      6  C   UNL     1       3.029   6.875  18.222  0.00  0.00    +0.000 A 
ATOM      7  C   UNL     1       1.768   9.108  18.539  0.00  0.00    +0.000 C 
ATOM      8  O   UNL     1       2.028   9.694  17.510  0.00  0.00    +0.000 OA
ATOM      9  C   UNL     1       0.909   9.590  19.644  0.00  0.00    +0.000 A 
ATOM     10  C   UNL     1       0.179  10.759  19.740  0.00  0.00    +0.000 A 
ATOM     11  C   UNL     1      -0.534  10.943  20.929  0.00  0.00    +0.000 A 
ATOM     12  C   UNL     1      -0.520   9.977  21.960  0.00  0.00    +0.000 A 
ATOM     13  C   UNL     1       0.221   8.799  21.823  0.00  0.00    +0.000 A 
ATOM     14  C   UNL     1       0.930   8.606  20.650  0.00  0.00    +0.000 A 
ENDROOT
BRANCH   1  15
ATOM     15  S   UNL     1       4.300   4.451  17.980  0.00  0.00    +0.000 S 
ATOM     16  O   UNL     1       4.397   4.865  16.601  0.00  0.00    +0.000 OA
ATOM     17  O   UNL     1       3.790   3.152  18.361  0.00  0.00    +0.000 OA
BRANCH  15  18
ATOM     18  N   UNL     1       5.791   4.620  18.734  0.00  0.00    +0.000 NA
ATOM     19  H   UNL     1       5.714   4.634  19.752  0.00  0.00    +0.000 HD
BRANCH  18  21
ATOM     20  C   UNL     1       7.924   5.617  19.340  0.00  0.00    +0.000 C 
ATOM     21  C   UNL     1       6.961   5.341  18.162  0.00  0.00    +0.000 C 
ATOM     22  C   UNL     1       6.538   6.689  17.573  0.00  0.00    +0.000 C 
BRANCH  21  23
ATOM     23  C   UNL     1       7.717   4.466  17.126  0.00  0.00    +0.000 C 
BRANCH  23  24
ATOM     24  O   UNL     1       7.397   4.836  15.784  0.00  0.00    +0.000 OA
ATOM     25  H   UNL     1       7.551   5.794  15.708  0.00  0.00    +0.000 HD
ENDBRANCH  23  24
ENDBRANCH  21  23
ENDBRANCH  18  21
ENDBRANCH  15  18
ENDBRANCH   1  15
BRANCH  11  26
ATOM     26  S   UNL     1      -1.479  12.421  21.159  0.00  0.00    +0.000 S 
ATOM     27  O   UNL     1      -0.555  13.467  21.543  0.00  0.00    +0.000 OA
ATOM     28  O   UNL     1      -2.347  12.594  20.017  0.00  0.00    +0.000 OA
BRANCH  26  29
ATOM     29  N   UNL     1      -2.467  12.152  22.502  0.00  0.00    +0.000 NA
ATOM     30  H   UNL     1      -1.814  12.078  23.287  0.00  0.00    +0.000 HD
BRANCH  29  31
ATOM     31  C   UNL     1      -3.636  13.012  22.894  0.00  0.00    +0.000 C 
ATOM     32  C   UNL     1      -3.288  14.501  22.872  0.00  0.00    +0.000 C 
ATOM     33  C   UNL     1      -4.852  12.716  22.013  0.00  0.00    +0.000 C 
BRANCH  31  34
ATOM     34  C   UNL     1      -4.027  12.593  24.343  0.00  0.00    +0.000 C 
BRANCH  34  35
ATOM     35  O   UNL     1      -5.359  12.088  24.399  0.00  0.00    +0.000 OA
ATOM     36  H   UNL     1      -5.925  12.785  24.770  0.00  0.00    +0.000 HD
ENDBRANCH  34  35
ENDBRANCH  31  34
ENDBRANCH  29  31
ENDBRANCH  26  29
ENDBRANCH  11  26
TORSDOF 10
ENDMDL
MODEL 2
REMARK VINA RESULT:      -7.8      1.113     10.363
REMARK  Name = 
REMARK  14 active torsions:
REMARK  status: ('A' for Active; 'I' for Inactive)
REMARK    1  A    between atoms: C_1  and  C_2
REMARK    2  A    between atoms: C_2  and  C_3
REMARK    3  A    between atoms: C_2  and  C_4
REMARK    4  A    between atoms: C_2  and  N_6
REMARK    5  A    between atoms: C_4  and  O_5
REMARK    6  A    between atoms: N_6  and  S_7
REMARK    7  A    between atoms: S_7  and  C_10
REMARK    8  A    between atoms: C_20  and  S_21
REMARK    9  A    between atoms: S_21  and  N_24
REMARK   10  A    between atoms: N_24  and  C_25
REMARK   11  A    between atoms: C_25  and  C_26
REMARK   12  A    between atoms: C_25  and  C_27
REMARK   13  A    between atoms: C_25  and  C_28
REMARK   14  A    between atoms: C_28  and  O_29
REMARK                            x       y       z     vdW  Elec       q    Type
REMARK                         _______ _______ _______ _____ _____    ______ ____
ROOT
ATOM      1  C   UNL     1      -0.069  11.061  20.695  0.00  0.00    +0.000 A 
ATOM      2  C   UNL     1      -0.212  10.108  21.728  0.00  0.00    +0.000 A 
ATOM      3  C   UNL     1       0.347   8.831  21.601  0.00  0.00    +0.000 A 
ATOM      4  C   UNL     1       1.037   8.528  20.439  0.00  0.00    +0.000 A 
ATOM      5  C   UNL     1       1.147   9.487  19.418  0.00  0.00    +0.000 A 
ATOM      6  C   UNL     1       0.600  10.751  19.505  0.00  0.00    +0.000 A 
ATOM      7  C   UNL     1       1.952   8.889  18.329  0.00  0.00    +0.000 C 
ATOM      8  O   UNL     1       2.237   9.411  17.273  0.00  0.00    +0.000 OA
ATOM      9  C   UNL     1       2.341   7.536  18.787  0.00  0.00    +0.000 A 
ATOM     10  C   UNL     1       3.141   6.598  18.164  0.00  0.00    +0.000 A 
ATOM     11  C   UNL     1       3.318   5.389  18.846  0.00  0.00    +0.000 A 
ATOM     12  C   UNL     1       2.727   5.156  20.107  0.00  0.00    +0.000 A 
ATOM     13  C   UNL     1       1.933   6.134  20.715  0.00  0.00    +0.000 A 
ATOM     14  C   UNL     1       1.751   7.334  20.049  0.00  0.00    +0.000 A 
ENDROOT
BRANCH   1  15
ATOM     15  S   UNL     1      -0.822  12.669  20.865  0.00  0.00    +0.000 S 
ATOM     16  O   UNL     1      -1.282  13.077  19.560  0.00  0.00    +0.000 OA
ATOM     17  O   UNL     1       0.114  13.459  21.635  0.00  0.00    +0.000 OA
BRANCH  15  18
ATOM     18  N   UNL     1      -2.137  12.373  21.867  0.00  0.00    +0.000 NA
ATOM     19  H   UNL     1      -2.218  11.387  22.122  0.00  0.00    +0.000 HD
BRANCH  18  21
ATOM     20  C   UNL     1      -4.128  12.817  23.188  0.00  0.00    +0.000 C 
ATOM     21  C   UNL     1      -3.407  13.149  21.862  0.00  0.00    +0.000 C 
ATOM     22  C   UNL     1      -4.313  12.708  20.710  0.00  0.00    +0.000 C 
BRANCH  21  23
ATOM     23  C   UNL     1      -3.138  14.677  21.837  0.00  0.00    +0.000 C 
BRANCH  23  24
ATOM     24  O   UNL     1      -3.281  15.221  20.524  0.00  0.00    +0.000 OA
ATOM     25  H   UNL     1      -3.683  16.102  20.623  0.00  0.00    +0.000 HD
ENDBRANCH  23  24
ENDBRANCH  21  23
ENDBRANCH  18  21
ENDBRANCH  15  18
ENDBRANCH   1  15
BRANCH  11  26
ATOM     26  S   UNL     1       4.304   4.113  18.118  0.00  0.00    +0.000 S 
ATOM     27  O   UNL     1       3.790   2.847  18.596  0.00  0.00    +0.000 OA
ATOM     28  O   UNL     1       4.414   4.369  16.701  0.00  0.00    +0.000 OA
BRANCH  26  29
ATOM     29  N   UNL     1       5.851   4.269  18.777  0.00  0.00    +0.000 NA
ATOM     30  H   UNL     1       6.223   3.316  18.782  0.00  0.00    +0.000 HD
BRANCH  29  31
ATOM     31  C   UNL     1       6.903   5.222  18.283  0.00  0.00    +0.000 C 
ATOM     32  C   UNL     1       6.294   6.440  17.585  0.00  0.00    +0.000 C 
ATOM     33  C   UNL     1       7.834   5.647  19.421  0.00  0.00    +0.000 C 
BRANCH  31  34
ATOM     34  C   UNL     1       7.778   4.427  17.268  0.00  0.00    +0.000 C 
BRANCH  34  35
ATOM     35  O   UNL     1       7.423   4.732  15.922  0.00  0.00    +0.000 OA
ATOM     36  H   UNL     1       6.820   5.494  15.940  0.00  0.00    +0.000 HD
ENDBRANCH  34  35
ENDBRANCH  31  34
ENDBRANCH  29  31
ENDBRANCH  26  29
ENDBRANCH  11  26
TORSDOF 10
ENDMDL
MODEL 3
REMARK VINA RESULT:      -7.8      1.078      1.257
REMARK  Name = 
REMARK  14 active torsions:
REMARK  status: ('A' for Active; 'I' for Inactive)
REMARK    1  A    between atoms: C_1  and  C_2
REMARK    2  A    between atoms: C_2  and  C_3
REMARK    3  A    between atoms: C_2  and  C_4
REMARK    4  A    between atoms: C_2  and  N_6
REMARK    5  A    between atoms: C_4  and  O_5
REMARK    6  A    between atoms: N_6  and  S_7
REMARK    7  A    between atoms: S_7  and  C_10
REMARK    8  A    between atoms: C_20  and  S_21
REMARK    9  A    between atoms: S_21  and  N_24
REMARK   10  A    between atoms: N_24  and  C_25
REMARK   11  A    between atoms: C_25  and  C_26
REMARK   12  A    between atoms: C_25  and  C_27
REMARK   13  A    between atoms: C_25  and  C_28
REMARK   14  A    between atoms: C_28  and  O_29
REMARK                            x       y       z     vdW  Elec       q    Type
REMARK                         _______ _______ _______ _____ _____    ______ ____
ROOT
ATOM      1  C   UNL     1       3.358   5.386  18.773  0.00  0.00    +0.000 A 
ATOM      2  C   UNL     1       2.908   5.161  20.093  0.00  0.00    +0.000 A 
ATOM      3  C   UNL     1       2.151   6.129  20.762  0.00  0.00    +0.000 A 
ATOM      4  C   UNL     1       1.861   7.310  20.099  0.00  0.00    +0.000 A 
ATOM      5  C   UNL     1       2.338   7.517  18.793  0.00  0.00    +0.000 A 
ATOM      6  C   UNL     1       3.095   6.589  18.108  0.00  0.00    +0.000 A 
ATOM      7  C   UNL     1       1.849   8.841  18.345  0.00  0.00    +0.000 C 
ATOM      8  O   UNL     1       2.079   9.371  17.280  0.00  0.00    +0.000 OA
ATOM      9  C   UNL     1       1.025   9.382  19.448  0.00  0.00    +0.000 A 
ATOM     10  C   UNL     1       0.300  10.558  19.505  0.00  0.00    +0.000 A 
ATOM     11  C   UNL     1      -0.376  10.806  20.704  0.00  0.00    +0.000 A 
ATOM     12  C   UNL     1      -0.333   9.896  21.783  0.00  0.00    +0.000 A 
ATOM     13  C   UNL     1       0.400   8.709  21.686  0.00  0.00    +0.000 A 
ATOM     14  C   UNL     1       1.074   8.453  20.504  0.00  0.00    +0.000 A 
ENDROOT
BRANCH   1  15
ATOM     15  S   UNL     1       4.352   4.151  17.955  0.00  0.00    +0.000 S 
ATOM     16  O   UNL     1       4.432   4.507  16.559  0.00  0.00    +0.000 OA
ATOM     17  O   UNL     1       3.832   2.876  18.397  0.00  0.00    +0.000 OA
BRANCH  15  18
ATOM     18  N   UNL     1       5.857   4.331  18.677  0.00  0.00    +0.000 NA
ATOM     19  H   UNL     1       5.821   4.205  19.690  0.00  0.00    +0.000 HD
BRANCH  18  21
ATOM     20  C   UNL     1       7.834   5.553  19.390  0.00  0.00    +0.000 C 
ATOM     21  C   UNL     1       6.949   5.207  18.171  0.00  0.00    +0.000 C 
ATOM     22  C   UNL     1       6.386   6.515  17.611  0.00  0.00    +0.000 C 
BRANCH  21  23
ATOM     23  C   UNL     1       7.837   4.466  17.135  0.00  0.00    +0.000 C 
BRANCH  23  24
ATOM     24  O   UNL     1       7.376   4.669  15.799  0.00  0.00    +0.000 OA
ATOM     25  H   UNL     1       8.064   4.320  15.204  0.00  0.00    +0.000 HD
ENDBRANCH  23  24
ENDBRANCH  21  23
ENDBRANCH  18  21
ENDBRANCH  15  18
ENDBRANCH   1  15
BRANCH  11  26
ATOM     26  S   UNL     1      -1.310  12.298  20.884  0.00  0.00    +0.000 S 
ATOM     27  O   UNL     1      -0.409  13.403  20.635  0.00  0.00    +0.000 OA
ATOM     28  O   UNL     1      -2.535  12.168  20.130  0.00  0.00    +0.000 OA
BRANCH  26  29
ATOM     29  N   UNL     1      -1.736  12.401  22.516  0.00  0.00    +0.000 NA
ATOM     30  H   UNL     1      -0.842  12.381  23.014  0.00  0.00    +0.000 HD
BRANCH  29  31
ATOM     31  C   UNL     1      -2.623  13.460  23.106  0.00  0.00    +0.000 C 
ATOM     32  C   UNL     1      -3.259  14.344  22.032  0.00  0.00    +0.000 C 
ATOM     33  C   UNL     1      -3.690  12.839  24.011  0.00  0.00    +0.000 C 
BRANCH  31  34
ATOM     34  C   UNL     1      -1.717  14.334  24.026  0.00  0.00    +0.000 C 
BRANCH  34  35
ATOM     35  O   UNL     1      -0.428  14.533  23.450  0.00  0.00    +0.000 OA
ATOM     36  H   UNL     1      -0.453  15.365  22.950  0.00  0.00    +0.000 HD
ENDBRANCH  34  35
ENDBRANCH  31  34
ENDBRANCH  29  31
ENDBRANCH  26  29
ENDBRANCH  11  26
TORSDOF 10
ENDMDL
MODEL 4
REMARK VINA RESULT:      -7.7      1.110     10.304
REMARK  Name = 
REMARK  14 active torsions:
REMARK  status: ('A' for Active; 'I' for Inactive)
REMARK    1  A    between atoms: C_1  and  C_2
REMARK    2  A    between atoms: C_2  and  C_3
REMARK    3  A    between atoms: C_2  and  C_4
REMARK    4  A    between atoms: C_2  and  N_6
REMARK    5  A    between atoms: C_4  and  O_5
REMARK    6  A    between atoms: N_6  and  S_7
REMARK    7  A    between atoms: S_7  and  C_10
REMARK    8  A    between atoms: C_20  and  S_21
REMARK    9  A    between atoms: S_21  and  N_24
REMARK   10  A    between atoms: N_24  and  C_25
REMARK   11  A    between atoms: C_25  and  C_26
REMARK   12  A    between atoms: C_25  and  C_27
REMARK   13  A    between atoms: C_25  and  C_28
REMARK   14  A    between atoms: C_28  and  O_29
REMARK                            x       y       z     vdW  Elec       q    Type
REMARK                         _______ _______ _______ _____ _____    ______ ____
ROOT
ATOM      1  C   UNL     1       0.123  11.009  21.253  0.00  0.00    +0.000 A 
ATOM      2  C   UNL     1       0.039  10.001  22.239  0.00  0.00    +0.000 A 
ATOM      3  C   UNL     1       0.520   8.712  21.983  0.00  0.00    +0.000 A 
ATOM      4  C   UNL     1       1.074   8.453  20.740  0.00  0.00    +0.000 A 
ATOM      5  C   UNL     1       1.126   9.468  19.769  0.00  0.00    +0.000 A 
ATOM      6  C   UNL     1       0.652  10.746  19.984  0.00  0.00    +0.000 A 
ATOM      7  C   UNL     1       1.787   8.904  18.570  0.00  0.00    +0.000 C 
ATOM      8  O   UNL     1       1.988   9.477  17.522  0.00  0.00    +0.000 OA
ATOM      9  C   UNL     1       2.155   7.511  18.907  0.00  0.00    +0.000 A 
ATOM     10  C   UNL     1       2.841   6.579  18.152  0.00  0.00    +0.000 A 
ATOM     11  C   UNL     1       3.028   5.325  18.742  0.00  0.00    +0.000 A 
ATOM     12  C   UNL     1       2.557   5.039  20.043  0.00  0.00    +0.000 A 
ATOM     13  C   UNL     1       1.877   6.011  20.784  0.00  0.00    +0.000 A 
ATOM     14  C   UNL     1       1.686   7.256  20.210  0.00  0.00    +0.000 A 
ENDROOT
BRANCH   1  15
ATOM     15  S   UNL     1      -0.531  12.634  21.591  0.00  0.00    +0.000 S 
ATOM     16  O   UNL     1      -0.056  13.521  20.557  0.00  0.00    +0.000 OA
ATOM     17  O   UNL     1      -0.271  12.875  22.993  0.00  0.00    +0.000 OA
BRANCH  15  18
ATOM     18  N   UNL     1      -2.190  12.419  21.442  0.00  0.00    +0.000 NA
ATOM     19  H   UNL     1      -2.467  12.173  20.490  0.00  0.00    +0.000 HD
BRANCH  18  21
ATOM     20  C   UNL     1      -2.736  14.581  22.409  0.00  0.00    +0.000 C 
ATOM     21  C   UNL     1      -3.219  13.120  22.257  0.00  0.00    +0.000 C 
ATOM     22  C   UNL     1      -3.320  12.509  23.656  0.00  0.00    +0.000 C 
BRANCH  21  23
ATOM     23  C   UNL     1      -4.593  13.148  21.535  0.00  0.00    +0.000 C 
BRANCH  23  24
ATOM     24  O   UNL     1      -5.465  12.123  22.013  0.00  0.00    +0.000 OA
ATOM     25  H   UNL     1      -5.948  11.777  21.242  0.00  0.00    +0.000 HD
ENDBRANCH  23  24
ENDBRANCH  21  23
ENDBRANCH  18  21
ENDBRANCH  15  18
ENDBRANCH   1  15
BRANCH  11  26
ATOM     26  S   UNL     1       3.872   4.055  17.844  0.00  0.00    +0.000 S 
ATOM     27  O   UNL     1       4.595   3.253  18.809  0.00  0.00    +0.000 OA
ATOM     28  O   UNL     1       2.938   3.437  16.933  0.00  0.00    +0.000 OA
BRANCH  26  29
ATOM     29  N   UNL     1       5.045   4.832  16.909  0.00  0.00    +0.000 NA
ATOM     30  H   UNL     1       4.516   5.491  16.332  0.00  0.00    +0.000 HD
BRANCH  29  31
ATOM     31  C   UNL     1       6.271   5.507  17.457  0.00  0.00    +0.000 C 
ATOM     32  C   UNL     1       6.309   6.998  17.113  0.00  0.00    +0.000 C 
ATOM     33  C   UNL     1       6.390   5.286  18.967  0.00  0.00    +0.000 C 
BRANCH  31  34
ATOM     34  C   UNL     1       7.496   4.796  16.807  0.00  0.00    +0.000 C 
BRANCH  34  35
ATOM     35  O   UNL     1       8.225   4.033  17.766  0.00  0.00    +0.000 OA
ATOM     36  H   UNL     1       7.802   3.162  17.835  0.00  0.00    +0.000 HD
ENDBRANCH  34  35
ENDBRANCH  31  34
ENDBRANCH  29  31
ENDBRANCH  26  29
ENDBRANCH  11  26
TORSDOF 10
ENDMDL
MODEL 5
REMARK VINA RESULT:      -7.7      0.998      1.325
REMARK  Name = 
REMARK  14 active torsions:
REMARK  status: ('A' for Active; 'I' for Inactive)
REMARK    1  A    between atoms: C_1  and  C_2
REMARK    2  A    between atoms: C_2  and  C_3
REMARK    3  A    between atoms: C_2  and  C_4
REMARK    4  A    between atoms: C_2  and  N_6
REMARK    5  A    between atoms: C_4  and  O_5
REMARK    6  A    between atoms: N_6  and  S_7
REMARK    7  A    between atoms: S_7  and  C_10
REMARK    8  A    between atoms: C_20  and  S_21
REMARK    9  A    between atoms: S_21  and  N_24
REMARK   10  A    between atoms: N_24  and  C_25
REMARK   11  A    between atoms: C_25  and  C_26
REMARK   12  A    between atoms: C_25  and  C_27
REMARK   13  A    between atoms: C_25  and  C_28
REMARK   14  A    between atoms: C_28  and  O_29
REMARK                            x       y       z     vdW  Elec       q    Type
REMARK                         _______ _______ _______ _____ _____    ______ ____
ROOT
ATOM      1  C   UNL     1       3.233   5.816  18.854  0.00  0.00    +0.000 A 
ATOM      2  C   UNL     1       2.745   5.541  20.150  0.00  0.00    +0.000 A 
ATOM      3  C   UNL     1       1.951   6.476  20.826  0.00  0.00    +0.000 A 
ATOM      4  C   UNL     1       1.663   7.673  20.191  0.00  0.00    +0.000 A 
ATOM      5  C   UNL     1       2.178   7.930  18.909  0.00  0.00    +0.000 A 
ATOM      6  C   UNL     1       2.972   7.036  18.219  0.00  0.00    +0.000 A 
ATOM      7  C   UNL     1       1.682   9.260  18.487  0.00  0.00    +0.000 C 
ATOM      8  O   UNL     1       1.938   9.827  17.448  0.00  0.00    +0.000 OA
ATOM      9  C   UNL     1       0.815   9.752  19.580  0.00  0.00    +0.000 A 
ATOM     10  C   UNL     1       0.070  10.914  19.651  0.00  0.00    +0.000 A 
ATOM     11  C   UNL     1      -0.649  11.113  20.835  0.00  0.00    +0.000 A 
ATOM     12  C   UNL     1      -0.626  10.169  21.885  0.00  0.00    +0.000 A 
ATOM     13  C   UNL     1       0.130   8.997  21.774  0.00  0.00    +0.000 A 
ATOM     14  C   UNL     1       0.845   8.790  20.607  0.00  0.00    +0.000 A 
ENDROOT
BRANCH   1  15
ATOM     15  S   UNL     1       4.272   4.624  18.030  0.00  0.00    +0.000 S 
ATOM     16  O   UNL     1       4.331   4.984  16.634  0.00  0.00    +0.000 OA
ATOM     17  O   UNL     1       3.808   3.328  18.472  0.00  0.00    +0.000 OA
BRANCH  15  18
ATOM     18  N   UNL     1       5.773   4.864  18.745  0.00  0.00    +0.000 NA
ATOM     19  H   UNL     1       5.701   5.062  19.744  0.00  0.00    +0.000 HD
BRANCH  18  21
ATOM     20  C   UNL     1       6.533   6.783  17.460  0.00  0.00    +0.000 C 
ATOM     21  C   UNL     1       6.968   5.424  18.056  0.00  0.00    +0.000 C 
ATOM     22  C   UNL     1       7.407   4.522  16.901  0.00  0.00    +0.000 C 
BRANCH  21  23
ATOM     23  C   UNL     1       8.124   5.694  19.056  0.00  0.00    +0.000 C 
BRANCH  23  24
ATOM     24  O   UNL     1       7.725   5.457  20.406  0.00  0.00    +0.000 OA
ATOM     25  H   UNL     1       8.019   6.224  20.929  0.00  0.00    +0.000 HD
ENDBRANCH  23  24
ENDBRANCH  21  23
ENDBRANCH  18  21
ENDBRANCH  15  18
ENDBRANCH   1  15
BRANCH  11  26
ATOM     26  S   UNL     1      -1.613  12.584  21.032  0.00  0.00    +0.000 S 
ATOM     27  O   UNL     1      -0.702  13.707  20.969  0.00  0.00    +0.000 OA
ATOM     28  O   UNL     1      -2.748  12.513  20.143  0.00  0.00    +0.000 OA
BRANCH  26  29
ATOM     29  N   UNL     1      -2.211  12.555  22.611  0.00  0.00    +0.000 NA
ATOM     30  H   UNL     1      -1.490  12.063  23.147  0.00  0.00    +0.000 HD
BRANCH  29  31
ATOM     31  C   UNL     1      -2.677  13.762  23.376  0.00  0.00    +0.000 C 
ATOM     32  C   UNL     1      -1.521  14.484  24.072  0.00  0.00    +0.000 C 
ATOM     33  C   UNL     1      -3.456  14.717  22.468  0.00  0.00    +0.000 C 
BRANCH  31  34
ATOM     34  C   UNL     1      -3.685  13.246  24.446  0.00  0.00    +0.000 C 
BRANCH  34  35
ATOM     35  O   UNL     1      -4.153  11.936  24.133  0.00  0.00    +0.000 OA
ATOM     36  H   UNL     1      -3.453  11.307  24.374  0.00  0.00    +0.000 HD
ENDBRANCH  34  35
ENDBRANCH  31  34
ENDBRANCH  29  31
ENDBRANCH  26  29
ENDBRANCH  11  26
TORSDOF 10
ENDMDL
MODEL 6
REMARK VINA RESULT:      -7.7      2.452      3.393
REMARK  Name = 
REMARK  14 active torsions:
REMARK  status: ('A' for Active; 'I' for Inactive)
REMARK    1  A    between atoms: C_1  and  C_2
REMARK    2  A    between atoms: C_2  and  C_3
REMARK    3  A    between atoms: C_2  and  C_4
REMARK    4  A    between atoms: C_2  and  N_6
REMARK    5  A    between atoms: C_4  and  O_5
REMARK    6  A    between atoms: N_6  and  S_7
REMARK    7  A    between atoms: S_7  and  C_10
REMARK    8  A    between atoms: C_20  and  S_21
REMARK    9  A    between atoms: S_21  and  N_24
REMARK   10  A    between atoms: N_24  and  C_25
REMARK   11  A    between atoms: C_25  and  C_26
REMARK   12  A    between atoms: C_25  and  C_27
REMARK   13  A    between atoms: C_25  and  C_28
REMARK   14  A    between atoms: C_28  and  O_29
REMARK                            x       y       z     vdW  Elec       q    Type
REMARK                         _______ _______ _______ _____ _____    ______ ____
ROOT
ATOM      1  C   UNL     1       3.589   5.261  19.183  0.00  0.00    +0.000 A 
ATOM      2  C   UNL     1       2.879   5.187  20.402  0.00  0.00    +0.000 A 
ATOM      3  C   UNL     1       2.005   6.213  20.781  0.00  0.00    +0.000 A 
ATOM      4  C   UNL     1       1.861   7.299  19.934  0.00  0.00    +0.000 A 
ATOM      5  C   UNL     1       2.594   7.358  18.736  0.00  0.00    +0.000 A 
ATOM      6  C   UNL     1       3.471   6.370  18.337  0.00  0.00    +0.000 A 
ATOM      7  C   UNL     1       2.212   8.607  18.040  0.00  0.00    +0.000 C 
ATOM      8  O   UNL     1       2.655   9.010  16.987  0.00  0.00    +0.000 OA
ATOM      9  C   UNL     1       1.182   9.260  18.880  0.00  0.00    +0.000 A 
ATOM     10  C   UNL     1       0.466  10.418  18.645  0.00  0.00    +0.000 A 
ATOM     11  C   UNL     1      -0.440  10.794  19.643  0.00  0.00    +0.000 A 
ATOM     12  C   UNL     1      -0.620  10.021  20.811  0.00  0.00    +0.000 A 
ATOM     13  C   UNL     1       0.113   8.847  21.010  0.00  0.00    +0.000 A 
ATOM     14  C   UNL     1       1.012   8.465  20.029  0.00  0.00    +0.000 A 
ENDROOT
BRANCH   1  15
ATOM     15  S   UNL     1       4.724   3.959  18.740  0.00  0.00    +0.000 S 
ATOM     16  O   UNL     1       4.141   2.708  19.161  0.00  0.00    +0.000 OA
ATOM     17  O   UNL     1       6.022   4.399  19.200  0.00  0.00    +0.000 OA
BRANCH  15  18
ATOM     18  N   UNL     1       4.760   4.035  17.062  0.00  0.00    +0.000 NA
ATOM     19  H   UNL     1       4.189   3.309  16.626  0.00  0.00    +0.000 HD
BRANCH  18  21
ATOM     20  C   UNL     1       5.587   6.000  15.893  0.00  0.00    +0.000 C 
ATOM     21  C   UNL     1       5.907   4.531  16.254  0.00  0.00    +0.000 C 
ATOM     22  C   UNL     1       6.039   3.743  14.949  0.00  0.00    +0.000 C 
BRANCH  21  23
ATOM     23  C   UNL     1       7.225   4.522  17.074  0.00  0.00    +0.000 C 
BRANCH  23  24
ATOM     24  O   UNL     1       7.719   5.843  17.302  0.00  0.00    +0.000 OA
ATOM     25  H   UNL     1       7.135   6.452  16.817  0.00  0.00    +0.000 HD
ENDBRANCH  23  24
ENDBRANCH  21  23
ENDBRANCH  18  21
ENDBRANCH  15  18
ENDBRANCH   1  15
BRANCH  11  26
ATOM     26  S   UNL     1      -1.385  12.277  19.447  0.00  0.00    +0.000 S 
ATOM     27  O   UNL     1      -2.467  12.227  20.408  0.00  0.00    +0.000 OA
ATOM     28  O   UNL     1      -0.479  13.401  19.424  0.00  0.00    +0.000 OA
BRANCH  26  29
ATOM     29  N   UNL     1      -2.108  12.185  17.923  0.00  0.00    +0.000 NA
ATOM     30  H   UNL     1      -1.327  12.032  17.280  0.00  0.00    +0.000 HD
BRANCH  29  31
ATOM     31  C   UNL     1      -3.246  11.270  17.567  0.00  0.00    +0.000 C 
ATOM     32  C   UNL     1      -2.944   9.811  17.914  0.00  0.00    +0.000 C 
ATOM     33  C   UNL     1      -4.548  11.735  18.224  0.00  0.00    +0.000 C 
BRANCH  31  34
ATOM     34  C   UNL     1      -3.455  11.404  16.028  0.00  0.00    +0.000 C 
BRANCH  34  35
ATOM     35  O   UNL     1      -2.375  10.822  15.302  0.00  0.00    +0.000 OA
ATOM     36  H   UNL     1      -1.613  10.763  15.902  0.00  0.00    +0.000 HD
ENDBRANCH  34  35
ENDBRANCH  31  34
ENDBRANCH  29  31
ENDBRANCH  26  29
ENDBRANCH  11  26
TORSDOF 10
ENDMDL
MODEL 7
REMARK VINA RESULT:      -7.7      2.288      3.330
REMARK  Name = 
REMARK  14 active torsions:
REMARK  status: ('A' for Active; 'I' for Inactive)
REMARK    1  A    between atoms: C_1  and  C_2
REMARK    2  A    between atoms: C_2  and  C_3
REMARK    3  A    between atoms: C_2  and  C_4
REMARK    4  A    between atoms: C_2  and  N_6
REMARK    5  A    between atoms: C_4  and  O_5
REMARK    6  A    between atoms: N_6  and  S_7
REMARK    7  A    between atoms: S_7  and  C_10
REMARK    8  A    between atoms: C_20  and  S_21
REMARK    9  A    between atoms: S_21  and  N_24
REMARK   10  A    between atoms: N_24  and  C_25
REMARK   11  A    between atoms: C_25  and  C_26
REMARK   12  A    between atoms: C_25  and  C_27
REMARK   13  A    between atoms: C_25  and  C_28
REMARK   14  A    between atoms: C_28  and  O_29
REMARK                            x       y       z     vdW  Elec       q    Type
REMARK                         _______ _______ _______ _____ _____    ______ ____
ROOT
ATOM      1  C   UNL     1       2.817   7.086  18.670  0.00  0.00    +0.000 A 
ATOM      2  C   UNL     1       2.656   8.019  17.622  0.00  0.00    +0.000 A 
ATOM      3  C   UNL     1       1.872   9.165  17.802  0.00  0.00    +0.000 A 
ATOM      4  C   UNL     1       1.259   9.355  19.029  0.00  0.00    +0.000 A 
ATOM      5  C   UNL     1       1.418   8.401  20.049  0.00  0.00    +0.000 A 
ATOM      6  C   UNL     1       2.174   7.256  19.902  0.00  0.00    +0.000 A 
ATOM      7  C   UNL     1       0.675   8.887  21.234  0.00  0.00    +0.000 C 
ATOM      8  O   UNL     1       0.564   8.318  22.298  0.00  0.00    +0.000 OA
ATOM      9  C   UNL     1       0.103  10.200  20.863  0.00  0.00    +0.000 A 
ATOM     10  C   UNL     1      -0.624  11.087  21.634  0.00  0.00    +0.000 A 
ATOM     11  C   UNL     1      -1.046  12.257  20.993  0.00  0.00    +0.000 A 
ATOM     12  C   UNL     1      -0.727  12.520  19.643  0.00  0.00    +0.000 A 
ATOM     13  C   UNL     1       0.022  11.605  18.896  0.00  0.00    +0.000 A 
ATOM     14  C   UNL     1       0.445  10.444  19.520  0.00  0.00    +0.000 A 
ENDROOT
BRANCH   1  15
ATOM     15  S   UNL     1       3.791   5.616  18.404  0.00  0.00    +0.000 S 
ATOM     16  O   UNL     1       4.637   5.436  19.559  0.00  0.00    +0.000 OA
ATOM     17  O   UNL     1       4.327   5.740  17.067  0.00  0.00    +0.000 OA
BRANCH  15  18
ATOM     18  N   UNL     1       2.637   4.397  18.347  0.00  0.00    +0.000 NA
ATOM     19  H   UNL     1       1.705   4.753  18.129  0.00  0.00    +0.000 HD
BRANCH  18  21
ATOM     20  C   UNL     1       1.443   2.314  18.726  0.00  0.00    +0.000 C 
ATOM     21  C   UNL     1       2.683   3.139  19.141  0.00  0.00    +0.000 C 
ATOM     22  C   UNL     1       2.573   3.433  20.639  0.00  0.00    +0.000 C 
BRANCH  21  23
ATOM     23  C   UNL     1       3.945   2.300  18.805  0.00  0.00    +0.000 C 
BRANCH  23  24
ATOM     24  O   UNL     1       4.980   2.489  19.770  0.00  0.00    +0.000 OA
ATOM     25  H   UNL     1       4.962   1.716  20.362  0.00  0.00    +0.000 HD
ENDBRANCH  23  24
ENDBRANCH  21  23
ENDBRANCH  18  21
ENDBRANCH  15  18
ENDBRANCH   1  15
BRANCH  11  26
ATOM     26  S   UNL     1      -2.006  13.444  21.888  0.00  0.00    +0.000 S 
ATOM     27  O   UNL     1      -1.118  14.096  22.828  0.00  0.00    +0.000 OA
ATOM     28  O   UNL     1      -2.771  14.223  20.943  0.00  0.00    +0.000 OA
BRANCH  26  29
ATOM     29  N   UNL     1      -3.107  12.563  22.818  0.00  0.00    +0.000 NA
ATOM     30  H   UNL     1      -2.521  12.005  23.445  0.00  0.00    +0.000 HD
BRANCH  29  31
ATOM     31  C   UNL     1      -4.251  13.160  23.590  0.00  0.00    +0.000 C 
ATOM     32  C   UNL     1      -4.523  12.405  24.892  0.00  0.00    +0.000 C 
ATOM     33  C   UNL     1      -4.013  14.649  23.854  0.00  0.00    +0.000 C 
BRANCH  31  34
ATOM     34  C   UNL     1      -5.503  13.069  22.666  0.00  0.00    +0.000 C 
BRANCH  34  35
ATOM     35  O   UNL     1      -5.230  12.308  21.492  0.00  0.00    +0.000 OA
ATOM     36  H   UNL     1      -5.446  12.863  20.723  0.00  0.00    +0.000 HD
ENDBRANCH  34  35
ENDBRANCH  31  34
ENDBRANCH  29  31
ENDBRANCH  26  29
ENDBRANCH  11  26
TORSDOF 10
ENDMDL
MODEL 8
REMARK VINA RESULT:      -7.6      2.382      9.865
REMARK  Name = 
REMARK  14 active torsions:
REMARK  status: ('A' for Active; 'I' for Inactive)
REMARK    1  A    between atoms: C_1  and  C_2
REMARK    2  A    between atoms: C_2  and  C_3
REMARK    3  A    between atoms: C_2  and  C_4
REMARK    4  A    between atoms: C_2  and  N_6
REMARK    5  A    between atoms: C_4  and  O_5
REMARK    6  A    between atoms: N_6  and  S_7
REMARK    7  A    between atoms: S_7  and  C_10
REMARK    8  A    between atoms: C_20  and  S_21
REMARK    9  A    between atoms: S_21  and  N_24
REMARK   10  A    between atoms: N_24  and  C_25
REMARK   11  A    between atoms: C_25  and  C_26
REMARK   12  A    between atoms: C_25  and  C_27
REMARK   13  A    between atoms: C_25  and  C_28
REMARK   14  A    between atoms: C_28  and  O_29
REMARK                            x       y       z     vdW  Elec       q    Type
REMARK                         _______ _______ _______ _____ _____    ______ ____
ROOT
ATOM      1  C   UNL     1       0.317  10.772  21.154  0.00  0.00    +0.000 A 
ATOM      2  C   UNL     1       0.211   9.803  22.176  0.00  0.00    +0.000 A 
ATOM      3  C   UNL     1       0.651   8.492  21.964  0.00  0.00    +0.000 A 
ATOM      4  C   UNL     1       1.185   8.171  20.727  0.00  0.00    +0.000 A 
ATOM      5  C   UNL     1       1.260   9.148  19.720  0.00  0.00    +0.000 A 
ATOM      6  C   UNL     1       0.827  10.447  19.891  0.00  0.00    +0.000 A 
ATOM      7  C   UNL     1       1.894   8.521  18.537  0.00  0.00    +0.000 C 
ATOM      8  O   UNL     1       2.104   9.050  17.468  0.00  0.00    +0.000 OA
ATOM      9  C   UNL     1       2.222   7.130  18.922  0.00  0.00    +0.000 A 
ATOM     10  C   UNL     1       2.874   6.152  18.196  0.00  0.00    +0.000 A 
ATOM     11  C   UNL     1       3.028   4.914  18.831  0.00  0.00    +0.000 A 
ATOM     12  C   UNL     1       2.559   4.691  20.144  0.00  0.00    +0.000 A 
ATOM     13  C   UNL     1       1.914   5.709  20.855  0.00  0.00    +0.000 A 
ATOM     14  C   UNL     1       1.757   6.937  20.237  0.00  0.00    +0.000 A 
ENDROOT
BRANCH   1  15
ATOM     15  S   UNL     1      -0.285  12.427  21.437  0.00  0.00    +0.000 S 
ATOM     16  O   UNL     1      -0.300  12.649  22.863  0.00  0.00    +0.000 OA
ATOM     17  O   UNL     1      -1.474  12.555  20.624  0.00  0.00    +0.000 OA
BRANCH  15  18
ATOM     18  N   UNL     1       0.891  13.390  20.722  0.00  0.00    +0.000 NA
ATOM     19  H   UNL     1       1.794  13.317  21.193  0.00  0.00    +0.000 HD
BRANCH  18  21
ATOM     20  C   UNL     1       2.010  15.230  19.593  0.00  0.00    +0.000 C 
ATOM     21  C   UNL     1       0.630  14.673  20.014  0.00  0.00    +0.000 C 
ATOM     22  C   UNL     1      -0.024  15.692  20.950  0.00  0.00    +0.000 C 
BRANCH  21  23
ATOM     23  C   UNL     1      -0.204  14.450  18.724  0.00  0.00    +0.000 C 
BRANCH  23  24
ATOM     24  O   UNL     1       0.186  13.260  18.038  0.00  0.00    +0.000 OA
ATOM     25  H   UNL     1       0.182  13.466  17.086  0.00  0.00    +0.000 HD
ENDBRANCH  23  24
ENDBRANCH  21  23
ENDBRANCH  18  21
ENDBRANCH  15  18
ENDBRANCH   1  15
BRANCH  11  26
ATOM     26  S   UNL     1       3.825   3.588  17.973  0.00  0.00    +0.000 S 
ATOM     27  O   UNL     1       3.821   2.441  18.856  0.00  0.00    +0.000 OA
ATOM     28  O   UNL     1       3.262   3.493  16.647  0.00  0.00    +0.000 OA
BRANCH  26  29
ATOM     29  N   UNL     1       5.444   4.038  17.798  0.00  0.00    +0.000 NA
ATOM     30  H   UNL     1       5.971   3.214  18.101  0.00  0.00    +0.000 HD
BRANCH  29  31
ATOM     31  C   UNL     1       6.049   4.594  16.540  0.00  0.00    +0.000 C 
ATOM     32  C   UNL     1       5.999   3.592  15.385  0.00  0.00    +0.000 C 
ATOM     33  C   UNL     1       5.385   5.917  16.151  0.00  0.00    +0.000 C 
BRANCH  31  34
ATOM     34  C   UNL     1       7.535   4.926  16.873  0.00  0.00    +0.000 C 
BRANCH  34  35
ATOM     35  O   UNL     1       8.054   4.051  17.872  0.00  0.00    +0.000 OA
ATOM     36  H   UNL     1       7.312   3.763  18.428  0.00  0.00    +0.000 HD
ENDBRANCH  34  35
ENDBRANCH  31  34
ENDBRANCH  29  31
ENDBRANCH  26  29
ENDBRANCH  11  26
TORSDOF 10
ENDMDL
MODEL 9
REMARK VINA RESULT:      -7.6      1.223      1.495
REMARK  Name = 
REMARK  14 active torsions:
REMARK  status: ('A' for Active; 'I' for Inactive)
REMARK    1  A    between atoms: C_1  and  C_2
REMARK    2  A    between atoms: C_2  and  C_3
REMARK    3  A    between atoms: C_2  and  C_4
REMARK    4  A    between atoms: C_2  and  N_6
REMARK    5  A    between atoms: C_4  and  O_5
REMARK    6  A    between atoms: N_6  and  S_7
REMARK    7  A    between atoms: S_7  and  C_10
REMARK    8  A    between atoms: C_20  and  S_21
REMARK    9  A    between atoms: S_21  and  N_24
REMARK   10  A    between atoms: N_24  and  C_25
REMARK   11  A    between atoms: C_25  and  C_26
REMARK   12  A    between atoms: C_25  and  C_27
REMARK   13  A    between atoms: C_25  and  C_28
REMARK   14  A    between atoms: C_28  and  O_29
REMARK                            x       y       z     vdW  Elec       q    Type
REMARK                         _______ _______ _______ _____ _____    ______ ____
ROOT
ATOM      1  C   UNL     1       3.050   5.029  18.812  0.00  0.00    +0.000 A 
ATOM      2  C   UNL     1       2.656   4.838  20.155  0.00  0.00    +0.000 A 
ATOM      3  C   UNL     1       2.052   5.875  20.875  0.00  0.00    +0.000 A 
ATOM      4  C   UNL     1       1.856   7.089  20.238  0.00  0.00    +0.000 A 
ATOM      5  C   UNL     1       2.276   7.259  18.907  0.00  0.00    +0.000 A 
ATOM      6  C   UNL     1       2.884   6.262  18.172  0.00  0.00    +0.000 A 
ATOM      7  C   UNL     1       1.912   8.635  18.498  0.00  0.00    +0.000 C 
ATOM      8  O   UNL     1       2.136   9.150  17.424  0.00  0.00    +0.000 OA
ATOM      9  C   UNL     1       1.219   9.249  19.652  0.00  0.00    +0.000 A 
ATOM     10  C   UNL     1       0.633  10.496  19.760  0.00  0.00    +0.000 A 
ATOM     11  C   UNL     1       0.060  10.802  20.998  0.00  0.00    +0.000 A 
ATOM     12  C   UNL     1       0.065   9.879  22.067  0.00  0.00    +0.000 A 
ATOM     13  C   UNL     1       0.655   8.619  21.919  0.00  0.00    +0.000 A 
ATOM     14  C   UNL     1       1.226   8.306  20.697  0.00  0.00    +0.000 A 
ENDROOT
BRANCH   1  15
ATOM     15  S   UNL     1       3.852   3.703  17.929  0.00  0.00    +0.000 S 
ATOM     16  O   UNL     1       3.528   3.849  16.530  0.00  0.00    +0.000 OA
ATOM     17  O   UNL     1       3.546   2.499  18.669  0.00  0.00    +0.000 OA
BRANCH  15  18
ATOM     18  N   UNL     1       5.485   4.012  18.172  0.00  0.00    +0.000 NA
ATOM     19  H   UNL     1       5.739   4.007  19.161  0.00  0.00    +0.000 HD
BRANCH  18  21
ATOM     20  C   UNL     1       7.802   4.481  17.607  0.00  0.00    +0.000 C 
ATOM     21  C   UNL     1       6.336   4.853  17.287  0.00  0.00    +0.000 C 
ATOM     22  C   UNL     1       6.149   6.340  17.599  0.00  0.00    +0.000 C 
BRANCH  21  23
ATOM     23  C   UNL     1       6.083   4.537  15.788  0.00  0.00    +0.000 C 
BRANCH  23  24
ATOM     24  O   UNL     1       6.287   3.155  15.495  0.00  0.00    +0.000 OA
ATOM     25  H   UNL     1       5.664   2.651  16.048  0.00  0.00    +0.000 HD
ENDBRANCH  23  24
ENDBRANCH  21  23
ENDBRANCH  18  21
ENDBRANCH  15  18
ENDBRANCH   1  15
BRANCH  11  26
ATOM     26  S   UNL     1      -0.691  12.385  21.244  0.00  0.00    +0.000 S 
ATOM     27  O   UNL     1       0.223  13.177  22.040  0.00  0.00    +0.000 OA
ATOM     28  O   UNL     1      -1.162  12.874  19.969  0.00  0.00    +0.000 OA
BRANCH  26  29
ATOM     29  N   UNL     1      -2.050  12.125  22.213  0.00  0.00    +0.000 NA
ATOM     30  H   UNL     1      -1.665  11.903  23.135  0.00  0.00    +0.000 HD
BRANCH  29  31
ATOM     31  C   UNL     1      -3.198  13.084  22.357  0.00  0.00    +0.000 C 
ATOM     32  C   UNL     1      -3.976  12.858  23.655  0.00  0.00    +0.000 C 
ATOM     33  C   UNL     1      -2.718  14.533  22.247  0.00  0.00    +0.000 C 
BRANCH  31  34
ATOM     34  C   UNL     1      -4.138  12.835  21.140  0.00  0.00    +0.000 C 
BRANCH  34  35
ATOM     35  O   UNL     1      -3.935  13.806  20.116  0.00  0.00    +0.000 OA
ATOM     36  H   UNL     1      -4.229  14.665  20.461  0.00  0.00    +0.000 HD
ENDBRANCH  34  35
ENDBRANCH  31  34
ENDBRANCH  29  31
ENDBRANCH  26  29
ENDBRANCH  11  26
TORSDOF 10
ENDMDL
