MODEL 1
REMARK VINA RESULT:      -7.2      0.000      0.000
REMARK  Name = 
REMARK  9 active torsions:
REMARK  status: ('A' for Active; 'I' for Inactive)
REMARK    1  A    between atoms: C_1  and  N_2
REMARK    2  A    between atoms: N_2  and  C_3
REMARK    3  A    between atoms: N_2  and  C_4
REMARK    4  A    between atoms: C_4  and  C_5
REMARK    5  A    between atoms: C_5  and  O_6
REMARK    6  A    between atoms: O_6  and  C_7
REMARK    7  A    between atoms: C_11  and  C_12
REMARK    8  A    between atoms: C_12  and  N_13
REMARK    9  A    between atoms: N_20  and  C_21
REMARK                            x       y       z     vdW  Elec       q    Type
REMARK                         _______ _______ _______ _____ _____    ______ ____
ROOT
ATOM      1  C   UNL     1       2.870   6.900  17.806  0.00  0.00    +0.000 C 
ENDROOT
BRANCH   1   2
ATOM      2  N   UNL     1       4.303   6.567  18.017  0.00  0.00    +0.000 NA
ATOM      3  C   UNL     1       4.965   6.080  16.791  0.00  0.00    +0.000 C 
ATOM      4  C   UNL     1       4.489   4.699  16.316  0.00  0.00    +0.000 C 
ATOM      5  C   UNL     1       4.461   3.629  17.412  0.00  0.00    +0.000 C 
ATOM      6  C   UNL     1       3.866   4.133  18.732  0.00  0.00    +0.000 C 
ATOM      7  C   UNL     1       4.457   5.530  19.078  0.00  0.00    +0.000 C 
ATOM      8  C   UNL     1       4.041   3.113  19.863  0.00  0.00    +0.000 C 
ATOM      9  N   UNL     1       2.794   3.209  20.564  0.00  0.00    +0.000 N 
ATOM     10  C   UNL     1       2.432   2.352  21.669  0.00  0.00    +0.000 C 
ATOM     11  C   UNL     1       1.849   3.814  19.776  0.00  0.00    +0.000 C 
ATOM     12  O   UNL     1       0.662   3.935  20.023  0.00  0.00    +0.000 OA
ATOM     13  O   UNL     1       2.431   4.225  18.613  0.00  0.00    +0.000 OA
ENDBRANCH   1   2
BRANCH   1  18
ATOM     14  C   UNL     1       0.825   9.946  18.952  0.00  0.00    +0.000 A 
ATOM     15  C   UNL     1       0.571   9.617  20.280  0.00  0.00    +0.000 A 
ATOM     16  C   UNL     1       1.136   8.458  20.837  0.00  0.00    +0.000 A 
ATOM     17  C   UNL     1       1.951   7.610  20.079  0.00  0.00    +0.000 A 
ATOM     18  C   UNL     1       2.206   7.903  18.737  0.00  0.00    +0.000 A 
ATOM     19  C   UNL     1       1.633   9.085  18.194  0.00  0.00    +0.000 A 
BRANCH  14  20
ATOM     20  O   UNL     1       0.293  11.020  18.276  0.00  0.00    +0.000 OA
BRANCH  20  21
ATOM     21  C   UNL     1      -0.814  11.726  18.871  0.00  0.00    +0.000 C 
BRANCH  21  22
ATOM     22  C   UNL     1      -1.995  11.774  17.865  0.00  0.00    +0.000 C 
BRANCH  22  24
ATOM     23  C   UNL     1      -3.065   9.612  17.671  0.00  0.00    +0.000 C 
ATOM     24  N   UNL     1      -2.184  10.578  17.006  0.00  0.00    +0.000 NA
ATOM     25  C   UNL     1      -2.742  10.902  15.694  0.00  0.00    +0.000 C 
ENDBRANCH  22  24
ENDBRANCH  21  22
ENDBRANCH  20  21
ENDBRANCH  14  20
ENDBRANCH   1  18
TORSDOF 6
ENDMDL
MODEL 2
REMARK VINA RESULT:      -7.1      1.171      1.390
REMARK  Name = 
REMARK  9 active torsions:
REMARK  status: ('A' for Active; 'I' for Inactive)
REMARK    1  A    between atoms: C_1  and  N_2
REMARK    2  A    between atoms: N_2  and  C_3
REMARK    3  A    between atoms: N_2  and  C_4
REMARK    4  A    between atoms: C_4  and  C_5
REMARK    5  A    between atoms: C_5  and  O_6
REMARK    6  A    between atoms: O_6  and  C_7
REMARK    7  A    between atoms: C_11  and  C_12
REMARK    8  A    between atoms: C_12  and  N_13
REMARK    9  A    between atoms: N_20  and  C_21
REMARK                            x       y       z     vdW  Elec       q    Type
REMARK                         _______ _______ _______ _____ _____    ______ ____
ROOT
ATOM      1  C   UNL     1       3.164   7.279  17.566  0.00  0.00    +0.000 C 
ENDROOT
BRANCH   1   2
ATOM      2  N   UNL     1       4.533   6.847  17.954  0.00  0.00    +0.000 NA
ATOM      3  C   UNL     1       5.479   6.854  16.823  0.00  0.00    +0.000 C 
ATOM      4  C   UNL     1       5.207   5.781  15.759  0.00  0.00    +0.000 C 
ATOM      5  C   UNL     1       5.003   4.371  16.321  0.00  0.00    +0.000 C 
ATOM      6  C   UNL     1       4.099   4.341  17.560  0.00  0.00    +0.000 C 
ATOM      7  C   UNL     1       4.510   5.475  18.541  0.00  0.00    +0.000 C 
ATOM      8  C   UNL     1       4.081   2.958  18.219  0.00  0.00    +0.000 C 
ATOM      9  N   UNL     1       2.706   2.811  18.598  0.00  0.00    +0.000 N 
ATOM     10  C   UNL     1       2.160   1.603  19.174  0.00  0.00    +0.000 C 
ATOM     11  C   UNL     1       1.924   3.702  17.909  0.00  0.00    +0.000 C 
ATOM     12  O   UNL     1       0.707   3.754  17.904  0.00  0.00    +0.000 OA
ATOM     13  O   UNL     1       2.723   4.515  17.160  0.00  0.00    +0.000 OA
ENDBRANCH   1   2
BRANCH   1  18
ATOM     14  C   UNL     1       0.609   9.816  18.909  0.00  0.00    +0.000 A 
ATOM     15  C   UNL     1       0.434   9.359  20.211  0.00  0.00    +0.000 A 
ATOM     16  C   UNL     1       1.208   8.290  20.691  0.00  0.00    +0.000 A 
ATOM     17  C   UNL     1       2.156   7.658  19.880  0.00  0.00    +0.000 A 
ATOM     18  C   UNL     1       2.338   8.080  18.561  0.00  0.00    +0.000 A 
ATOM     19  C   UNL     1       1.552   9.169  18.097  0.00  0.00    +0.000 A 
BRANCH  14  20
ATOM     20  O   UNL     1      -0.119  10.815  18.304  0.00  0.00    +0.000 OA
BRANCH  20  21
ATOM     21  C   UNL     1      -1.540  10.871  18.544  0.00  0.00    +0.000 C 
BRANCH  21  22
ATOM     22  C   UNL     1      -2.284  10.141  17.394  0.00  0.00    +0.000 C 
BRANCH  22  24
ATOM     23  C   UNL     1      -2.876  10.372  15.060  0.00  0.00    +0.000 C 
ATOM     24  N   UNL     1      -2.950  11.000  16.383  0.00  0.00    +0.000 NA
ATOM     25  C   UNL     1      -4.351  11.272  16.700  0.00  0.00    +0.000 C 
ENDBRANCH  22  24
ENDBRANCH  21  22
ENDBRANCH  20  21
ENDBRANCH  14  20
ENDBRANCH   1  18
TORSDOF 6
ENDMDL
MODEL 3
REMARK VINA RESULT:      -6.9      1.865      3.393
REMARK  Name = 
REMARK  9 active torsions:
REMARK  status: ('A' for Active; 'I' for Inactive)
REMARK    1  A    between atoms: C_1  and  N_2
REMARK    2  A    between atoms: N_2  and  C_3
REMARK    3  A    between atoms: N_2  and  C_4
REMARK    4  A    between atoms: C_4  and  C_5
REMARK    5  A    between atoms: C_5  and  O_6
REMARK    6  A    between atoms: O_6  and  C_7
REMARK    7  A    between atoms: C_11  and  C_12
REMARK    8  A    between atoms: C_12  and  N_13
REMARK    9  A    between atoms: N_20  and  C_21
REMARK                            x       y       z     vdW  Elec       q    Type
REMARK                         _______ _______ _______ _____ _____    ______ ____
ROOT
ATOM      1  C   UNL     1       2.774   7.022  18.763  0.00  0.00    +0.000 C 
ENDROOT
BRANCH   1   2
ATOM      2  N   UNL     1       2.202   5.685  18.451  0.00  0.00    +0.000 NA
ATOM      3  C   UNL     1       2.125   4.804  19.632  0.00  0.00    +0.000 C 
ATOM      4  C   UNL     1       3.486   4.339  20.168  0.00  0.00    +0.000 C 
ATOM      5  C   UNL     1       4.428   3.776  19.099  0.00  0.00    +0.000 C 
ATOM      6  C   UNL     1       4.457   4.618  17.818  0.00  0.00    +0.000 C 
ATOM      7  C   UNL     1       3.007   4.996  17.401  0.00  0.00    +0.000 C 
ATOM      8  C   UNL     1       5.241   3.925  16.698  0.00  0.00    +0.000 C 
ATOM      9  N   UNL     1       5.947   5.016  16.091  0.00  0.00    +0.000 N 
ATOM     10  C   UNL     1       6.918   4.849  15.033  0.00  0.00    +0.000 C 
ATOM     11  C   UNL     1       5.976   6.094  16.936  0.00  0.00    +0.000 C 
ATOM     12  O   UNL     1       6.598   7.129  16.779  0.00  0.00    +0.000 OA
ATOM     13  O   UNL     1       5.229   5.817  18.044  0.00  0.00    +0.000 OA
ENDBRANCH   1   2
BRANCH   1  18
ATOM     14  C   UNL     1       0.225   9.855  19.263  0.00  0.00    +0.000 A 
ATOM     15  C   UNL     1      -0.083   9.705  20.612  0.00  0.00    +0.000 A 
ATOM     16  C   UNL     1       0.597   8.753  21.387  0.00  0.00    +0.000 A 
ATOM     17  C   UNL     1       1.584   7.933  20.829  0.00  0.00    +0.000 A 
ATOM     18  C   UNL     1       1.900   8.045  19.473  0.00  0.00    +0.000 A 
ATOM     19  C   UNL     1       1.206   9.020  18.708  0.00  0.00    +0.000 A 
BRANCH  14  20
ATOM     20  O   UNL     1      -0.401  10.711  18.387  0.00  0.00    +0.000 OA
BRANCH  20  21
ATOM     21  C   UNL     1      -1.815  10.543  18.156  0.00  0.00    +0.000 C 
BRANCH  21  22
ATOM     22  C   UNL     1      -2.043  10.036  16.707  0.00  0.00    +0.000 C 
BRANCH  22  24
ATOM     23  C   UNL     1      -3.302  10.133  14.643  0.00  0.00    +0.000 C 
ATOM     24  N   UNL     1      -2.886  10.887  15.831  0.00  0.00    +0.000 NA
ATOM     25  C   UNL     1      -4.077  11.398  16.507  0.00  0.00    +0.000 C 
ENDBRANCH  22  24
ENDBRANCH  21  22
ENDBRANCH  20  21
ENDBRANCH  14  20
ENDBRANCH   1  18
TORSDOF 6
ENDMDL
MODEL 4
REMARK VINA RESULT:      -6.8      1.579      3.323
REMARK  Name = 
REMARK  9 active torsions:
REMARK  status: ('A' for Active; 'I' for Inactive)
REMARK    1  A    between atoms: C_1  and  N_2
REMARK    2  A    between atoms: N_2  and  C_3
REMARK    3  A    between atoms: N_2  and  C_4
REMARK    4  A    between atoms: C_4  and  C_5
REMARK    5  A    between atoms: C_5  and  O_6
REMARK    6  A    between atoms: O_6  and  C_7
REMARK    7  A    between atoms: C_11  and  C_12
REMARK    8  A    between atoms: C_12  and  N_13
REMARK    9  A    between atoms: N_20  and  C_21
REMARK                            x       y       z     vdW  Elec       q    Type
REMARK                         _______ _______ _______ _____ _____    ______ ____
ROOT
ATOM      1  C   UNL     1       2.149   5.972  20.306  0.00  0.00    +0.000 C 
ENDROOT
BRANCH   1   2
ATOM      2  N   UNL     1       1.409   4.741  19.921  0.00  0.00    +0.000 NA
ATOM      3  C   UNL     1       1.349   3.744  21.007  0.00  0.00    +0.000 C 
ATOM      4  C   UNL     1       2.697   3.091  21.346  0.00  0.00    +0.000 C 
ATOM      5  C   UNL     1       3.467   2.564  20.131  0.00  0.00    +0.000 C 
ATOM      6  C   UNL     1       3.465   3.538  18.947  0.00  0.00    +0.000 C 
ATOM      7  C   UNL     1       2.031   4.099  18.726  0.00  0.00    +0.000 C 
ATOM      8  C   UNL     1       4.059   2.903  17.685  0.00  0.00    +0.000 C 
ATOM      9  N   UNL     1       4.819   3.980  17.121  0.00  0.00    +0.000 N 
ATOM     10  C   UNL     1       5.660   3.840  15.955  0.00  0.00    +0.000 C 
ATOM     11  C   UNL     1       5.043   4.949  18.064  0.00  0.00    +0.000 C 
ATOM     12  O   UNL     1       5.756   5.930  17.948  0.00  0.00    +0.000 OA
ATOM     13  O   UNL     1       4.380   4.623  19.211  0.00  0.00    +0.000 OA
ENDBRANCH   1   2
BRANCH   1  18
ATOM     14  C   UNL     1       1.253   9.612  19.458  0.00  0.00    +0.000 A 
ATOM     15  C   UNL     1       1.898   9.771  18.235  0.00  0.00    +0.000 A 
ATOM     16  C   UNL     1       2.544   8.678  17.634  0.00  0.00    +0.000 A 
ATOM     17  C   UNL     1       2.565   7.421  18.246  0.00  0.00    +0.000 A 
ATOM     18  C   UNL     1       1.946   7.236  19.484  0.00  0.00    +0.000 A 
ATOM     19  C   UNL     1       1.290   8.351  20.071  0.00  0.00    +0.000 A 
BRANCH  14  20
ATOM     20  O   UNL     1       0.631  10.610  20.172  0.00  0.00    +0.000 OA
BRANCH  20  21
ATOM     21  C   UNL     1      -0.794  10.522  20.377  0.00  0.00    +0.000 C 
BRANCH  21  22
ATOM     22  C   UNL     1      -1.522  11.370  19.300  0.00  0.00    +0.000 C 
BRANCH  22  24
ATOM     23  C   UNL     1      -3.434  11.544  17.828  0.00  0.00    +0.000 C 
ATOM     24  N   UNL     1      -2.417  10.637  18.370  0.00  0.00    +0.000 NA
ATOM     25  C   UNL     1      -1.699  10.015  17.260  0.00  0.00    +0.000 C 
ENDBRANCH  22  24
ENDBRANCH  21  22
ENDBRANCH  20  21
ENDBRANCH  14  20
ENDBRANCH   1  18
TORSDOF 6
ENDMDL
MODEL 5
REMARK VINA RESULT:      -6.8      2.586      5.088
REMARK  Name = 
REMARK  9 active torsions:
REMARK  status: ('A' for Active; 'I' for Inactive)
REMARK    1  A    between atoms: C_1  and  N_2
REMARK    2  A    between atoms: N_2  and  C_3
REMARK    3  A    between atoms: N_2  and  C_4
REMARK    4  A    between atoms: C_4  and  C_5
REMARK    5  A    between atoms: C_5  and  O_6
REMARK    6  A    between atoms: O_6  and  C_7
REMARK    7  A    between atoms: C_11  and  C_12
REMARK    8  A    between atoms: C_12  and  N_13
REMARK    9  A    between atoms: N_20  and  C_21
REMARK                            x       y       z     vdW  Elec       q    Type
REMARK                         _______ _______ _______ _____ _____    ______ ____
ROOT
ATOM      1  C   UNL     1       4.555   3.784  17.524  0.00  0.00    +0.000 C 
ENDROOT
BRANCH   1   2
ATOM      2  N   UNL     1       4.440   4.659  16.328  0.00  0.00    +0.000 NA
ATOM      3  C   UNL     1       4.878   3.994  15.086  0.00  0.00    +0.000 C 
ATOM      4  C   UNL     1       6.387   3.718  15.009  0.00  0.00    +0.000 C 
ATOM      5  C   UNL     1       7.268   4.923  15.350  0.00  0.00    +0.000 C 
ATOM      6  C   UNL     1       6.783   5.696  16.583  0.00  0.00    +0.000 C 
ATOM      7  C   UNL     1       5.244   5.905  16.503  0.00  0.00    +0.000 C 
ATOM      8  C   UNL     1       7.555   7.005  16.776  0.00  0.00    +0.000 C 
ATOM      9  N   UNL     1       7.723   7.061  18.199  0.00  0.00    +0.000 N 
ATOM     10  C   UNL     1       8.494   8.081  18.873  0.00  0.00    +0.000 C 
ATOM     11  C   UNL     1       7.517   5.825  18.752  0.00  0.00    +0.000 C 
ATOM     12  O   UNL     1       7.703   5.504  19.912  0.00  0.00    +0.000 OA
ATOM     13  O   UNL     1       7.115   4.958  17.778  0.00  0.00    +0.000 OA
ENDBRANCH   1   2
BRANCH   1  18
ATOM     14  C   UNL     1       1.900   5.018  20.014  0.00  0.00    +0.000 A 
ATOM     15  C   UNL     1       1.031   3.931  20.042  0.00  0.00    +0.000 A 
ATOM     16  C   UNL     1       1.345   2.761  19.333  0.00  0.00    +0.000 A 
ATOM     17  C   UNL     1       2.520   2.661  18.580  0.00  0.00    +0.000 A 
ATOM     18  C   UNL     1       3.402   3.743  18.515  0.00  0.00    +0.000 A 
ATOM     19  C   UNL     1       3.070   4.915  19.247  0.00  0.00    +0.000 A 
BRANCH  14  20
ATOM     20  O   UNL     1       1.684   6.234  20.620  0.00  0.00    +0.000 OA
BRANCH  20  21
ATOM     21  C   UNL     1       2.152   7.425  19.955  0.00  0.00    +0.000 C 
BRANCH  21  22
ATOM     22  C   UNL     1       1.191   8.602  20.271  0.00  0.00    +0.000 C 
BRANCH  22  24
ATOM     23  C   UNL     1       1.443   9.349  17.983  0.00  0.00    +0.000 C 
ATOM     24  N   UNL     1       1.270   9.782  19.374  0.00  0.00    +0.000 NA
ATOM     25  C   UNL     1       0.089  10.641  19.457  0.00  0.00    +0.000 C 
ENDBRANCH  22  24
ENDBRANCH  21  22
ENDBRANCH  20  21
ENDBRANCH  14  20
ENDBRANCH   1  18
TORSDOF 6
ENDMDL
MODEL 6
REMARK VINA RESULT:      -6.8      3.238      7.333
REMARK  Name = 
REMARK  9 active torsions:
REMARK  status: ('A' for Active; 'I' for Inactive)
REMARK    1  A    between atoms: C_1  and  N_2
REMARK    2  A    between atoms: N_2  and  C_3
REMARK    3  A    between atoms: N_2  and  C_4
REMARK    4  A    between atoms: C_4  and  C_5
REMARK    5  A    between atoms: C_5  and  O_6
REMARK    6  A    between atoms: O_6  and  C_7
REMARK    7  A    between atoms: C_11  and  C_12
REMARK    8  A    between atoms: C_12  and  N_13
REMARK    9  A    between atoms: N_20  and  C_21
REMARK                            x       y       z     vdW  Elec       q    Type
REMARK                         _______ _______ _______ _____ _____    ______ ____
ROOT
ATOM      1  C   UNL     1       3.924   3.289  17.617  0.00  0.00    +0.000 C 
ENDROOT
BRANCH   1   2
ATOM      2  N   UNL     1       3.703   2.743  18.982  0.00  0.00    +0.000 NA
ATOM      3  C   UNL     1       2.662   1.699  19.022  0.00  0.00    +0.000 C 
ATOM      4  C   UNL     1       1.238   2.211  18.760  0.00  0.00    +0.000 C 
ATOM      5  C   UNL     1       0.845   3.438  19.588  0.00  0.00    +0.000 C 
ATOM      6  C   UNL     1       1.947   4.503  19.648  0.00  0.00    +0.000 C 
ATOM      7  C   UNL     1       3.319   3.828  19.932  0.00  0.00    +0.000 C 
ATOM      8  C   UNL     1       1.610   5.617  20.645  0.00  0.00    +0.000 C 
ATOM      9  N   UNL     1       2.067   6.793  19.964  0.00  0.00    +0.000 N 
ATOM     10  C   UNL     1       1.872   8.134  20.468  0.00  0.00    +0.000 C 
ATOM     11  C   UNL     1       2.228   6.538  18.627  0.00  0.00    +0.000 C 
ATOM     12  O   UNL     1       2.483   7.349  17.755  0.00  0.00    +0.000 OA
ATOM     13  O   UNL     1       2.002   5.213  18.392  0.00  0.00    +0.000 OA
ENDBRANCH   1   2
BRANCH   1  18
ATOM     14  C   UNL     1       6.534   5.353  15.695  0.00  0.00    +0.000 A 
ATOM     15  C   UNL     1       7.231   5.950  16.742  0.00  0.00    +0.000 A 
ATOM     16  C   UNL     1       6.923   5.617  18.071  0.00  0.00    +0.000 A 
ATOM     17  C   UNL     1       5.914   4.695  18.374  0.00  0.00    +0.000 A 
ATOM     18  C   UNL     1       5.184   4.097  17.345  0.00  0.00    +0.000 A 
ATOM     19  C   UNL     1       5.516   4.441  16.007  0.00  0.00    +0.000 A 
BRANCH  14  20
ATOM     20  O   UNL     1       6.703   5.631  14.358  0.00  0.00    +0.000 OA
BRANCH  20  21
ATOM     21  C   UNL     1       7.594   4.795  13.591  0.00  0.00    +0.000 C 
BRANCH  21  22
ATOM     22  C   UNL     1       6.903   4.391  12.262  0.00  0.00    +0.000 C 
BRANCH  22  24
ATOM     23  C   UNL     1       4.760   3.345  11.854  0.00  0.00    +0.000 C 
ATOM     24  N   UNL     1       6.148   3.113  12.268  0.00  0.00    +0.000 NA
ATOM     25  C   UNL     1       6.737   2.098  11.397  0.00  0.00    +0.000 C 
ENDBRANCH  22  24
ENDBRANCH  21  22
ENDBRANCH  20  21
ENDBRANCH  14  20
ENDBRANCH   1  18
TORSDOF 6
ENDMDL
MODEL 7
REMARK VINA RESULT:      -6.8      2.294      3.023
REMARK  Name = 
REMARK  9 active torsions:
REMARK  status: ('A' for Active; 'I' for Inactive)
REMARK    1  A    between atoms: C_1  and  N_2
REMARK    2  A    between atoms: N_2  and  C_3
REMARK    3  A    between atoms: N_2  and  C_4
REMARK    4  A    between atoms: C_4  and  C_5
REMARK    5  A    between atoms: C_5  and  O_6
REMARK    6  A    between atoms: O_6  and  C_7
REMARK    7  A    between atoms: C_11  and  C_12
REMARK    8  A    between atoms: C_12  and  N_13
REMARK    9  A    between atoms: N_20  and  C_21
REMARK                            x       y       z     vdW  Elec       q    Type
REMARK                         _______ _______ _______ _____ _____    ______ ____
ROOT
ATOM      1  C   UNL     1       2.909   6.883  17.586  0.00  0.00    +0.000 C 
ENDROOT
BRANCH   1   2
ATOM      2  N   UNL     1       4.340   6.689  17.939  0.00  0.00    +0.000 NA
ATOM      3  C   UNL     1       5.155   6.226  16.800  0.00  0.00    +0.000 C 
ATOM      4  C   UNL     1       4.848   4.794  16.338  0.00  0.00    +0.000 C 
ATOM      5  C   UNL     1       4.810   3.760  17.468  0.00  0.00    +0.000 C 
ATOM      6  C   UNL     1       4.052   4.249  18.707  0.00  0.00    +0.000 C 
ATOM      7  C   UNL     1       4.483   5.703  19.051  0.00  0.00    +0.000 C 
ATOM      8  C   UNL     1       4.207   3.284  19.888  0.00  0.00    +0.000 C 
ATOM      9  N   UNL     1       2.896   3.288  20.468  0.00  0.00    +0.000 N 
ATOM     10  C   UNL     1       2.507   2.436  21.569  0.00  0.00    +0.000 C 
ATOM     11  C   UNL     1       1.981   3.780  19.574  0.00  0.00    +0.000 C 
ATOM     12  O   UNL     1       0.770   3.800  19.706  0.00  0.00    +0.000 OA
ATOM     13  O   UNL     1       2.631   4.206  18.454  0.00  0.00    +0.000 OA
ENDBRANCH   1   2
BRANCH   1  18
ATOM     14  C   UNL     1       1.150   8.871  20.365  0.00  0.00    +0.000 A 
ATOM     15  C   UNL     1       1.075  10.135  19.787  0.00  0.00    +0.000 A 
ATOM     16  C   UNL     1       1.506  10.330  18.465  0.00  0.00    +0.000 A 
ATOM     17  C   UNL     1       2.024   9.274  17.707  0.00  0.00    +0.000 A 
ATOM     18  C   UNL     1       2.131   7.999  18.267  0.00  0.00    +0.000 A 
ATOM     19  C   UNL     1       1.683   7.821  19.603  0.00  0.00    +0.000 A 
BRANCH  14  20
ATOM     20  O   UNL     1       0.812   8.561  21.662  0.00  0.00    +0.000 OA
BRANCH  20  21
ATOM     21  C   UNL     1       0.787   9.623  22.638  0.00  0.00    +0.000 C 
BRANCH  21  22
ATOM     22  C   UNL     1      -0.686  10.001  22.949  0.00  0.00    +0.000 C 
BRANCH  22  24
ATOM     23  C   UNL     1      -0.420  12.244  22.079  0.00  0.00    +0.000 C 
ATOM     24  N   UNL     1      -0.966  11.441  23.179  0.00  0.00    +0.000 NA
ATOM     25  C   UNL     1      -2.394  11.729  23.310  0.00  0.00    +0.000 C 
ENDBRANCH  22  24
ENDBRANCH  21  22
ENDBRANCH  20  21
ENDBRANCH  14  20
ENDBRANCH   1  18
TORSDOF 6
ENDMDL
MODEL 8
REMARK VINA RESULT:      -6.7      2.087      2.774
REMARK  Name = 
REMARK  9 active torsions:
REMARK  status: ('A' for Active; 'I' for Inactive)
REMARK    1  A    between atoms: C_1  and  N_2
REMARK    2  A    between atoms: N_2  and  C_3
REMARK    3  A    between atoms: N_2  and  C_4
REMARK    4  A    between atoms: C_4  and  C_5
REMARK    5  A    between atoms: C_5  and  O_6
REMARK    6  A    between atoms: O_6  and  C_7
REMARK    7  A    between atoms: C_11  and  C_12
REMARK    8  A    between atoms: C_12  and  N_13
REMARK    9  A    between atoms: N_20  and  C_21
REMARK                            x       y       z     vdW  Elec       q    Type
REMARK                         _______ _______ _______ _____ _____    ______ ____
ROOT
ATOM      1  C   UNL     1       2.994   6.830  17.752  0.00  0.00    +0.000 C 
ENDROOT
BRANCH   1   2
ATOM      2  N   UNL     1       4.414   6.437  17.950  0.00  0.00    +0.000 NA
ATOM      3  C   UNL     1       5.040   5.910  16.723  0.00  0.00    +0.000 C 
ATOM      4  C   UNL     1       4.499   4.548  16.265  0.00  0.00    +0.000 C 
ATOM      5  C   UNL     1       4.436   3.489  17.371  0.00  0.00    +0.000 C 
ATOM      6  C   UNL     1       3.879   4.031  18.693  0.00  0.00    +0.000 C 
ATOM      7  C   UNL     1       4.534   5.403  19.020  0.00  0.00    +0.000 C 
ATOM      8  C   UNL     1       4.021   3.014  19.831  0.00  0.00    +0.000 C 
ATOM      9  N   UNL     1       2.787   3.170  20.544  0.00  0.00    +0.000 N 
ATOM     10  C   UNL     1       2.399   2.339  21.661  0.00  0.00    +0.000 C 
ATOM     11  C   UNL     1       1.861   3.809  19.761  0.00  0.00    +0.000 C 
ATOM     12  O   UNL     1       0.683   3.985  20.019  0.00  0.00    +0.000 OA
ATOM     13  O   UNL     1       2.447   4.185  18.588  0.00  0.00    +0.000 OA
ENDBRANCH   1   2
BRANCH   1  18
ATOM     14  C   UNL     1       1.106   9.930  19.017  0.00  0.00    +0.000 A 
ATOM     15  C   UNL     1       0.794   9.544  20.317  0.00  0.00    +0.000 A 
ATOM     16  C   UNL     1       1.270   8.323  20.821  0.00  0.00    +0.000 A 
ATOM     17  C   UNL     1       2.054   7.470  20.037  0.00  0.00    +0.000 A 
ATOM     18  C   UNL     1       2.366   7.820  18.722  0.00  0.00    +0.000 A 
ATOM     19  C   UNL     1       1.881   9.063  18.233  0.00  0.00    +0.000 A 
BRANCH  14  20
ATOM     20  O   UNL     1       0.660  11.070  18.389  0.00  0.00    +0.000 OA
BRANCH  20  21
ATOM     21  C   UNL     1       1.003  12.349  18.964  0.00  0.00    +0.000 C 
BRANCH  21  22
ATOM     22  C   UNL     1       2.358  12.828  18.380  0.00  0.00    +0.000 C 
BRANCH  22  24
ATOM     23  C   UNL     1       4.147  14.451  18.229  0.00  0.00    +0.000 C 
ATOM     24  N   UNL     1       2.892  14.109  18.907  0.00  0.00    +0.000 NA
ATOM     25  C   UNL     1       1.956  15.222  18.757  0.00  0.00    +0.000 C 
ENDBRANCH  22  24
ENDBRANCH  21  22
ENDBRANCH  20  21
ENDBRANCH  14  20
ENDBRANCH   1  18
TORSDOF 6
ENDMDL
MODEL 9
REMARK VINA RESULT:      -6.7      1.329      1.851
REMARK  Name = 
REMARK  9 active torsions:
REMARK  status: ('A' for Active; 'I' for Inactive)
REMARK    1  A    between atoms: C_1  and  N_2
REMARK    2  A    between atoms: N_2  and  C_3
REMARK    3  A    between atoms: N_2  and  C_4
REMARK    4  A    between atoms: C_4  and  C_5
REMARK    5  A    between atoms: C_5  and  O_6
REMARK    6  A    between atoms: O_6  and  C_7
REMARK    7  A    between atoms: C_11  and  C_12
REMARK    8  A    between atoms: C_12  and  N_13
REMARK    9  A    between atoms: N_20  and  C_21
REMARK                            x       y       z     vdW  Elec       q    Type
REMARK                         _______ _______ _______ _____ _____    ______ ____
ROOT
ATOM      1  C   UNL     1       3.073   6.639  17.777  0.00  0.00    +0.000 C 
ENDROOT
BRANCH   1   2
ATOM      2  N   UNL     1       4.461   6.184  18.055  0.00  0.00    +0.000 NA
ATOM      3  C   UNL     1       5.116   5.587  16.876  0.00  0.00    +0.000 C 
ATOM      4  C   UNL     1       4.529   4.237  16.437  0.00  0.00    +0.000 C 
ATOM      5  C   UNL     1       4.363   3.221  17.572  0.00  0.00    +0.000 C 
ATOM      6  C   UNL     1       3.774   3.834  18.848  0.00  0.00    +0.000 C 
ATOM      7  C   UNL     1       4.480   5.184  19.161  0.00  0.00    +0.000 C 
ATOM      8  C   UNL     1       3.813   2.851  20.023  0.00  0.00    +0.000 C 
ATOM      9  N   UNL     1       2.557   3.091  20.672  0.00  0.00    +0.000 N 
ATOM     10  C   UNL     1       2.078   2.319  21.796  0.00  0.00    +0.000 C 
ATOM     11  C   UNL     1       1.701   3.746  19.826  0.00  0.00    +0.000 C 
ATOM     12  O   UNL     1       0.523   3.987  20.022  0.00  0.00    +0.000 OA
ATOM     13  O   UNL     1       2.358   4.053  18.670  0.00  0.00    +0.000 OA
ENDBRANCH   1   2
BRANCH   1  18
ATOM     14  C   UNL     1       1.087   9.706  18.967  0.00  0.00    +0.000 A 
ATOM     15  C   UNL     1       0.819   9.358  20.288  0.00  0.00    +0.000 A 
ATOM     16  C   UNL     1       1.357   8.178  20.827  0.00  0.00    +0.000 A 
ATOM     17  C   UNL     1       2.158   7.327  20.057  0.00  0.00    +0.000 A 
ATOM     18  C   UNL     1       2.426   7.639  18.723  0.00  0.00    +0.000 A 
ATOM     19  C   UNL     1       1.879   8.841  18.198  0.00  0.00    +0.000 A 
BRANCH  14  20
ATOM     20  O   UNL     1       0.580  10.802  18.308  0.00  0.00    +0.000 OA
BRANCH  20  21
ATOM     21  C   UNL     1      -0.778  11.203  18.584  0.00  0.00    +0.000 C 
BRANCH  21  22
ATOM     22  C   UNL     1      -0.910  12.737  18.396  0.00  0.00    +0.000 C 
BRANCH  22  24
ATOM     23  C   UNL     1      -0.947  12.804  20.814  0.00  0.00    +0.000 C 
ATOM     24  N   UNL     1      -0.673  13.576  19.597  0.00  0.00    +0.000 NA
ATOM     25  C   UNL     1       0.690  14.100  19.667  0.00  0.00    +0.000 C 
ENDBRANCH  22  24
ENDBRANCH  21  22
ENDBRANCH  20  21
ENDBRANCH  14  20
ENDBRANCH   1  18
TORSDOF 6
ENDMDL
