MODEL 1
REMARK VINA RESULT:      -9.5      0.000      0.000
REMARK  Name = 
REMARK  9 active torsions:
REMARK  status: ('A' for Active; 'I' for Inactive)
REMARK    1  A    between atoms: C_1  and  O_2
REMARK    2  A    between atoms: O_2  and  C_3
REMARK    3  A    between atoms: C_6  and  C_7
REMARK    4  A    between atoms: C_9  and  C_10
REMARK    5  A    between atoms: C_11  and  C_12
REMARK    6  A    between atoms: C_12  and  C_14
REMARK    7  A    between atoms: C_23  and  C_24
REMARK    8  A    between atoms: C_33  and  O_34
REMARK    9  A    between atoms: O_34  and  C_35
REMARK                            x       y       z     vdW  Elec       q    Type
REMARK                         _______ _______ _______ _____ _____    ______ ____
ROOT
ATOM      1  C   UNL     1       5.534   5.299  17.576  0.00  0.00    +0.000 A 
ATOM      2  C   UNL     1       6.255   6.169  18.308  0.00  0.00    +0.000 A 
ATOM      3  C   UNL     1       7.411   6.819  17.611  0.00  0.00    +0.000 A 
ATOM      4  N   UNL     1       7.765   6.581  16.378  0.00  0.00    +0.000 NA
ATOM      5  C   UNL     1       7.010   5.677  15.688  0.00  0.00    +0.000 A 
ATOM      6  C   UNL     1       7.106   5.202  14.401  0.00  0.00    +0.000 A 
ATOM      7  C   UNL     1       6.020   4.310  14.223  0.00  0.00    +0.000 A 
ATOM      8  N   UNL     1       5.299   4.218  15.351  0.00  0.00    +0.000 NA
ATOM      9  N   UNL     1       5.902   5.041  16.247  0.00  0.00    +0.000 N 
ENDROOT
BRANCH   1  13
ATOM     10  C   UNL     1       2.220   3.365  19.485  0.00  0.00    +0.000 A 
ATOM     11  C   UNL     1       3.105   2.640  18.670  0.00  0.00    +0.000 A 
ATOM     12  C   UNL     1       4.185   3.264  18.044  0.00  0.00    +0.000 A 
ATOM     13  C   UNL     1       4.364   4.641  18.175  0.00  0.00    +0.000 A 
ATOM     14  C   UNL     1       3.427   5.379  18.906  0.00  0.00    +0.000 A 
ATOM     15  C   UNL     1       2.349   4.760  19.559  0.00  0.00    +0.000 A 
BRANCH  10  17
ATOM     16  C   UNL     1       1.490   2.609  21.601  0.00  0.00    +0.000 C 
ATOM     17  O   UNL     1       1.241   2.721  20.196  0.00  0.00    +0.000 OA
ENDBRANCH  10  17
BRANCH  15  18
ATOM     18  O   UNL     1       1.574   5.672  20.223  0.00  0.00    +0.000 OA
ATOM     19  C   UNL     1       1.965   7.034  20.260  0.00  0.00    +0.000 C 
ENDBRANCH  15  18
ENDBRANCH   1  13
BRANCH   7  20
ATOM     20  C   UNL     1       5.643   3.564  13.014  0.00  0.00    +0.000 A 
ATOM     21  C   UNL     1       6.502   2.606  12.453  0.00  0.00    +0.000 A 
ATOM     22  C   UNL     1       6.143   1.915  11.292  0.00  0.00    +0.000 A 
ATOM     23  C   UNL     1       4.921   2.170  10.675  0.00  0.00    +0.000 A 
ATOM     24  C   UNL     1       4.054   3.114  11.219  0.00  0.00    +0.000 A 
ATOM     25  C   UNL     1       4.412   3.805  12.381  0.00  0.00    +0.000 A 
ENDBRANCH   7  20
BRANCH   3  26
ATOM     26  C   UNL     1       8.142   7.802  18.461  0.00  0.00    +0.000 C 
ATOM     27  C   UNL     1       8.311   9.070  18.045  0.00  0.00    +0.000 C 
BRANCH  27  28
ATOM     28  C   UNL     1       9.029  10.049  18.906  0.00  0.00    +0.000 C 
ATOM     29  O   UNL     1       9.158   9.875  20.112  0.00  0.00    +0.000 OA
BRANCH  28  30
ATOM     30  C   UNL     1       9.619  11.244  18.241  0.00  0.00    +0.000 A 
ATOM     31  C   UNL     1      10.986  11.308  17.939  0.00  0.00    +0.000 A 
ATOM     32  C   UNL     1      11.518  12.443  17.323  0.00  0.00    +0.000 A 
ATOM     33  C   UNL     1      10.688  13.513  16.994  0.00  0.00    +0.000 A 
ATOM     34  C   UNL     1       9.321  13.446  17.266  0.00  0.00    +0.000 A 
ATOM     35  C   UNL     1       8.784  12.311  17.882  0.00  0.00    +0.000 A 
ENDBRANCH  28  30
ENDBRANCH  27  28
ENDBRANCH   3  26
TORSDOF 7
ENDMDL
MODEL 2
REMARK VINA RESULT:      -9.5      0.960      1.891
REMARK  Name = 
REMARK  9 active torsions:
REMARK  status: ('A' for Active; 'I' for Inactive)
REMARK    1  A    between atoms: C_1  and  O_2
REMARK    2  A    between atoms: O_2  and  C_3
REMARK    3  A    between atoms: C_6  and  C_7
REMARK    4  A    between atoms: C_9  and  C_10
REMARK    5  A    between atoms: C_11  and  C_12
REMARK    6  A    between atoms: C_12  and  C_14
REMARK    7  A    between atoms: C_23  and  C_24
REMARK    8  A    between atoms: C_33  and  O_34
REMARK    9  A    between atoms: O_34  and  C_35
REMARK                            x       y       z     vdW  Elec       q    Type
REMARK                         _______ _______ _______ _____ _____    ______ ____
ROOT
ATOM      1  C   UNL     1       5.539   5.636  17.549  0.00  0.00    +0.000 A 
ATOM      2  C   UNL     1       6.289   6.487  18.275  0.00  0.00    +0.000 A 
ATOM      3  C   UNL     1       7.519   7.018  17.605  0.00  0.00    +0.000 A 
ATOM      4  N   UNL     1       7.909   6.696  16.402  0.00  0.00    +0.000 NA
ATOM      5  C   UNL     1       7.121   5.816  15.719  0.00  0.00    +0.000 A 
ATOM      6  C   UNL     1       7.238   5.273  14.460  0.00  0.00    +0.000 A 
ATOM      7  C   UNL     1       6.098   4.454  14.271  0.00  0.00    +0.000 A 
ATOM      8  N   UNL     1       5.323   4.468  15.367  0.00  0.00    +0.000 NA
ATOM      9  N   UNL     1       5.945   5.288  16.252  0.00  0.00    +0.000 N 
ENDROOT
BRANCH   1  13
ATOM     10  C   UNL     1       1.931   3.912  19.090  0.00  0.00    +0.000 A 
ATOM     11  C   UNL     1       1.886   4.975  18.173  0.00  0.00    +0.000 A 
ATOM     12  C   UNL     1       3.058   5.542  17.669  0.00  0.00    +0.000 A 
ATOM     13  C   UNL     1       4.298   5.093  18.121  0.00  0.00    +0.000 A 
ATOM     14  C   UNL     1       4.342   4.103  19.108  0.00  0.00    +0.000 A 
ATOM     15  C   UNL     1       3.171   3.509  19.607  0.00  0.00    +0.000 A 
BRANCH  10  17
ATOM     16  C   UNL     1       0.515   2.041  18.813  0.00  0.00    +0.000 C 
ATOM     17  O   UNL     1       0.779   3.280  19.480  0.00  0.00    +0.000 OA
ENDBRANCH  10  17
BRANCH  15  18
ATOM     18  O   UNL     1       3.454   2.557  20.549  0.00  0.00    +0.000 OA
ATOM     19  C   UNL     1       4.641   1.791  20.442  0.00  0.00    +0.000 C 
ENDBRANCH  15  18
ENDBRANCH   1  13
BRANCH   7  20
ATOM     20  C   UNL     1       5.721   3.679  13.081  0.00  0.00    +0.000 A 
ATOM     21  C   UNL     1       4.459   3.830  12.484  0.00  0.00    +0.000 A 
ATOM     22  C   UNL     1       4.102   3.074  11.364  0.00  0.00    +0.000 A 
ATOM     23  C   UNL     1       4.999   2.157  10.823  0.00  0.00    +0.000 A 
ATOM     24  C   UNL     1       6.256   1.995  11.400  0.00  0.00    +0.000 A 
ATOM     25  C   UNL     1       6.614   2.751  12.520  0.00  0.00    +0.000 A 
ENDBRANCH   7  20
BRANCH   3  26
ATOM     26  C   UNL     1       8.283   7.987  18.443  0.00  0.00    +0.000 C 
ATOM     27  C   UNL     1       8.374   9.278  18.080  0.00  0.00    +0.000 C 
BRANCH  27  28
ATOM     28  C   UNL     1       9.126  10.242  18.931  0.00  0.00    +0.000 C 
ATOM     29  O   UNL     1       9.327  10.031  20.120  0.00  0.00    +0.000 OA
BRANCH  28  30
ATOM     30  C   UNL     1       9.657  11.468  18.272  0.00  0.00    +0.000 A 
ATOM     31  C   UNL     1       8.845  12.591  18.062  0.00  0.00    +0.000 A 
ATOM     32  C   UNL     1       9.362  13.726  17.434  0.00  0.00    +0.000 A 
ATOM     33  C   UNL     1      10.694  13.751  17.026  0.00  0.00    +0.000 A 
ATOM     34  C   UNL     1      11.517  12.649  17.257  0.00  0.00    +0.000 A 
ATOM     35  C   UNL     1      11.003  11.510  17.885  0.00  0.00    +0.000 A 
ENDBRANCH  28  30
ENDBRANCH  27  28
ENDBRANCH   3  26
TORSDOF 7
ENDMDL
MODEL 3
REMARK VINA RESULT:      -9.4      0.462      1.243
REMARK  Name = 
REMARK  9 active torsions:
REMARK  status: ('A' for Active; 'I' for Inactive)
REMARK    1  A    between atoms: C_1  and  O_2
REMARK    2  A    between atoms: O_2  and  C_3
REMARK    3  A    between atoms: C_6  and  C_7
REMARK    4  A    between atoms: C_9  and  C_10
REMARK    5  A    between atoms: C_11  and  C_12
REMARK    6  A    between atoms: C_12  and  C_14
REMARK    7  A    between atoms: C_23  and  C_24
REMARK    8  A    between atoms: C_33  and  O_34
REMARK    9  A    between atoms: O_34  and  C_35
REMARK                            x       y       z     vdW  Elec       q    Type
REMARK                         _______ _______ _______ _____ _____    ______ ____
ROOT
ATOM      1  C   UNL     1       5.385   5.617  17.445  0.00  0.00    +0.000 A 
ATOM      2  C   UNL     1       6.143   6.448  18.185  0.00  0.00    +0.000 A 
ATOM      3  C   UNL     1       7.409   6.931  17.548  0.00  0.00    +0.000 A 
ATOM      4  N   UNL     1       7.823   6.585  16.360  0.00  0.00    +0.000 NA
ATOM      5  C   UNL     1       7.025   5.726  15.661  0.00  0.00    +0.000 A 
ATOM      6  C   UNL     1       7.161   5.168  14.411  0.00  0.00    +0.000 A 
ATOM      7  C   UNL     1       5.999   4.387  14.194  0.00  0.00    +0.000 A 
ATOM      8  N   UNL     1       5.194   4.438  15.267  0.00  0.00    +0.000 NA
ATOM      9  N   UNL     1       5.816   5.244  16.163  0.00  0.00    +0.000 N 
ENDROOT
BRANCH   1  13
ATOM     10  C   UNL     1       1.766   4.088  19.156  0.00  0.00    +0.000 A 
ATOM     11  C   UNL     1       2.380   3.439  18.073  0.00  0.00    +0.000 A 
ATOM     12  C   UNL     1       3.558   3.933  17.510  0.00  0.00    +0.000 A 
ATOM     13  C   UNL     1       4.110   5.122  17.984  0.00  0.00    +0.000 A 
ATOM     14  C   UNL     1       3.445   5.821  18.997  0.00  0.00    +0.000 A 
ATOM     15  C   UNL     1       2.272   5.323  19.587  0.00  0.00    +0.000 A 
BRANCH  10  17
ATOM     16  C   UNL     1       0.985   2.819  20.990  0.00  0.00    +0.000 C 
ATOM     17  O   UNL     1       0.683   3.526  19.782  0.00  0.00    +0.000 OA
ENDBRANCH  10  17
BRANCH  15  18
ATOM     18  O   UNL     1       1.806   6.162  20.562  0.00  0.00    +0.000 OA
ATOM     19  C   UNL     1       1.714   7.554  20.310  0.00  0.00    +0.000 C 
ENDBRANCH  15  18
ENDBRANCH   1  13
BRANCH   7  20
ATOM     20  C   UNL     1       5.630   3.614  13.000  0.00  0.00    +0.000 A 
ATOM     21  C   UNL     1       4.390   3.799  12.368  0.00  0.00    +0.000 A 
ATOM     22  C   UNL     1       4.040   3.046  11.244  0.00  0.00    +0.000 A 
ATOM     23  C   UNL     1       4.923   2.098  10.734  0.00  0.00    +0.000 A 
ATOM     24  C   UNL     1       6.159   1.903  11.345  0.00  0.00    +0.000 A 
ATOM     25  C   UNL     1       6.510   2.657  12.469  0.00  0.00    +0.000 A 
ENDBRANCH   7  20
BRANCH   3  26
ATOM     26  C   UNL     1       8.181   7.881  18.401  0.00  0.00    +0.000 C 
ATOM     27  C   UNL     1       8.338   9.162  18.024  0.00  0.00    +0.000 C 
BRANCH  27  28
ATOM     28  C   UNL     1       9.097  10.107  18.888  0.00  0.00    +0.000 C 
ATOM     29  O   UNL     1       9.274   9.890  20.081  0.00  0.00    +0.000 OA
BRANCH  28  30
ATOM     30  C   UNL     1       9.667  11.322  18.241  0.00  0.00    +0.000 A 
ATOM     31  C   UNL     1       8.871  12.444  17.971  0.00  0.00    +0.000 A 
ATOM     32  C   UNL     1       9.425  13.568  17.355  0.00  0.00    +0.000 A 
ATOM     33  C   UNL     1      10.777  13.583  17.018  0.00  0.00    +0.000 A 
ATOM     34  C   UNL     1      11.583  12.482  17.309  0.00  0.00    +0.000 A 
ATOM     35  C   UNL     1      11.032  11.354  17.926  0.00  0.00    +0.000 A 
ENDBRANCH  28  30
ENDBRANCH  27  28
ENDBRANCH   3  26
TORSDOF 7
ENDMDL
MODEL 4
REMARK VINA RESULT:      -8.9      7.100     11.460
REMARK  Name = 
REMARK  9 active torsions:
REMARK  status: ('A' for Active; 'I' for Inactive)
REMARK    1  A    between atoms: C_1  and  O_2
REMARK    2  A    between atoms: O_2  and  C_3
REMARK    3  A    between atoms: C_6  and  C_7
REMARK    4  A    between atoms: C_9  and  C_10
REMARK    5  A    between atoms: C_11  and  C_12
REMARK    6  A    between atoms: C_12  and  C_14
REMARK    7  A    between atoms: C_23  and  C_24
REMARK    8  A    between atoms: C_33  and  O_34
REMARK    9  A    between atoms: O_34  and  C_35
REMARK                            x       y       z     vdW  Elec       q    Type
REMARK                         _______ _______ _______ _____ _____    ______ ____
ROOT
ATOM      1  C   UNL     1      -0.700  11.176  18.299  0.00  0.00    +0.000 A 
ATOM      2  C   UNL     1      -0.124   9.959  18.341  0.00  0.00    +0.000 A 
ATOM      3  C   UNL     1       1.342   9.934  18.644  0.00  0.00    +0.000 A 
ATOM      4  N   UNL     1       2.080  10.993  18.840  0.00  0.00    +0.000 NA
ATOM      5  C   UNL     1       1.448  12.200  18.767  0.00  0.00    +0.000 A 
ATOM      6  C   UNL     1       1.916  13.485  18.915  0.00  0.00    +0.000 A 
ATOM      7  C   UNL     1       0.794  14.337  18.776  0.00  0.00    +0.000 A 
ATOM      8  N   UNL     1      -0.313  13.619  18.529  0.00  0.00    +0.000 NA
ATOM      9  N   UNL     1       0.081  12.320  18.515  0.00  0.00    +0.000 N 
ENDROOT
BRANCH   1  13
ATOM     10  C   UNL     1      -4.875  11.673  17.466  0.00  0.00    +0.000 A 
ATOM     11  C   UNL     1      -4.359  11.939  18.745  0.00  0.00    +0.000 A 
ATOM     12  C   UNL     1      -3.001  11.777  19.023  0.00  0.00    +0.000 A 
ATOM     13  C   UNL     1      -2.143  11.287  18.039  0.00  0.00    +0.000 A 
ATOM     14  C   UNL     1      -2.674  10.928  16.795  0.00  0.00    +0.000 A 
ATOM     15  C   UNL     1      -4.034  11.107  16.496  0.00  0.00    +0.000 A 
BRANCH  10  17
ATOM     16  C   UNL     1      -7.111  11.697  18.228  0.00  0.00    +0.000 C 
ATOM     17  O   UNL     1      -6.183  11.956  17.169  0.00  0.00    +0.000 OA
ENDBRANCH  10  17
BRANCH  15  18
ATOM     18  O   UNL     1      -4.324  10.703  15.221  0.00  0.00    +0.000 OA
ATOM     19  C   UNL     1      -3.303  10.150  14.408  0.00  0.00    +0.000 C 
ENDBRANCH  15  18
ENDBRANCH   1  13
BRANCH   7  20
ATOM     20  C   UNL     1       0.743  15.802  18.886  0.00  0.00    +0.000 A 
ATOM     21  C   UNL     1      -0.338  16.533  18.368  0.00  0.00    +0.000 A 
ATOM     22  C   UNL     1      -0.368  17.928  18.460  0.00  0.00    +0.000 A 
ATOM     23  C   UNL     1       0.679  18.612  19.072  0.00  0.00    +0.000 A 
ATOM     24  C   UNL     1       1.757  17.903  19.596  0.00  0.00    +0.000 A 
ATOM     25  C   UNL     1       1.788  16.508  19.504  0.00  0.00    +0.000 A 
ENDBRANCH   7  20
BRANCH   3  26
ATOM     26  C   UNL     1       1.911   8.557  18.719  0.00  0.00    +0.000 C 
ATOM     27  C   UNL     1       2.815   8.144  17.814  0.00  0.00    +0.000 C 
BRANCH  27  28
ATOM     28  C   UNL     1       3.390   6.773  17.905  0.00  0.00    +0.000 C 
ATOM     29  O   UNL     1       4.505   6.511  17.471  0.00  0.00    +0.000 OA
BRANCH  28  30
ATOM     30  C   UNL     1       2.567   5.728  18.576  0.00  0.00    +0.000 A 
ATOM     31  C   UNL     1       1.965   4.695  17.845  0.00  0.00    +0.000 A 
ATOM     32  C   UNL     1       1.191   3.731  18.494  0.00  0.00    +0.000 A 
ATOM     33  C   UNL     1       1.024   3.786  19.877  0.00  0.00    +0.000 A 
ATOM     34  C   UNL     1       1.643   4.794  20.616  0.00  0.00    +0.000 A 
ATOM     35  C   UNL     1       2.420   5.761  19.969  0.00  0.00    +0.000 A 
ENDBRANCH  28  30
ENDBRANCH  27  28
ENDBRANCH   3  26
TORSDOF 7
ENDMDL
MODEL 5
REMARK VINA RESULT:      -8.9      7.169     11.556
REMARK  Name = 
REMARK  9 active torsions:
REMARK  status: ('A' for Active; 'I' for Inactive)
REMARK    1  A    between atoms: C_1  and  O_2
REMARK    2  A    between atoms: O_2  and  C_3
REMARK    3  A    between atoms: C_6  and  C_7
REMARK    4  A    between atoms: C_9  and  C_10
REMARK    5  A    between atoms: C_11  and  C_12
REMARK    6  A    between atoms: C_12  and  C_14
REMARK    7  A    between atoms: C_23  and  C_24
REMARK    8  A    between atoms: C_33  and  O_34
REMARK    9  A    between atoms: O_34  and  C_35
REMARK                            x       y       z     vdW  Elec       q    Type
REMARK                         _______ _______ _______ _____ _____    ______ ____
ROOT
ATOM      1  C   UNL     1      -0.923  11.174  18.100  0.00  0.00    +0.000 A 
ATOM      2  C   UNL     1      -0.432   9.930  17.948  0.00  0.00    +0.000 A 
ATOM      3  C   UNL     1       1.050   9.780  18.112  0.00  0.00    +0.000 A 
ATOM      4  N   UNL     1       1.873  10.761  18.364  0.00  0.00    +0.000 NA
ATOM      5  C   UNL     1       1.324  12.004  18.491  0.00  0.00    +0.000 A 
ATOM      6  C   UNL     1       1.891  13.230  18.746  0.00  0.00    +0.000 A 
ATOM      7  C   UNL     1       0.824  14.159  18.809  0.00  0.00    +0.000 A 
ATOM      8  N   UNL     1      -0.347  13.543  18.580  0.00  0.00    +0.000 NA
ATOM      9  N   UNL     1      -0.047  12.235  18.379  0.00  0.00    +0.000 N 
ENDROOT
BRANCH   1  13
ATOM     10  C   UNL     1      -5.172  11.665  17.838  0.00  0.00    +0.000 A 
ATOM     11  C   UNL     1      -4.419  11.296  16.711  0.00  0.00    +0.000 A 
ATOM     12  C   UNL     1      -3.035  11.137  16.790  0.00  0.00    +0.000 A 
ATOM     13  C   UNL     1      -2.370  11.403  17.987  0.00  0.00    +0.000 A 
ATOM     14  C   UNL     1      -3.107  11.866  19.082  0.00  0.00    +0.000 A 
ATOM     15  C   UNL     1      -4.503  12.009  19.022  0.00  0.00    +0.000 A 
BRANCH  10  17
ATOM     16  C   UNL     1      -7.095  12.890  17.220  0.00  0.00    +0.000 C 
ATOM     17  O   UNL     1      -6.541  11.695  17.782  0.00  0.00    +0.000 OA
ENDBRANCH  10  17
BRANCH  15  18
ATOM     18  O   UNL     1      -5.012  12.459  20.210  0.00  0.00    +0.000 OA
ATOM     19  C   UNL     1      -5.293  13.838  20.380  0.00  0.00    +0.000 C 
ENDBRANCH  15  18
ENDBRANCH   1  13
BRANCH   7  20
ATOM     20  C   UNL     1       0.884  15.599  19.095  0.00  0.00    +0.000 A 
ATOM     21  C   UNL     1      -0.155  16.461  18.712  0.00  0.00    +0.000 A 
ATOM     22  C   UNL     1      -0.079  17.833  18.971  0.00  0.00    +0.000 A 
ATOM     23  C   UNL     1       1.035  18.363  19.616  0.00  0.00    +0.000 A 
ATOM     24  C   UNL     1       2.074  17.523  20.007  0.00  0.00    +0.000 A 
ATOM     25  C   UNL     1       1.999  16.151  19.748  0.00  0.00    +0.000 A 
ENDBRANCH   7  20
BRANCH   3  26
ATOM     26  C   UNL     1       1.525   8.373  17.974  0.00  0.00    +0.000 C 
ATOM     27  C   UNL     1       2.835   8.084  18.065  0.00  0.00    +0.000 C 
BRANCH  27  28
ATOM     28  C   UNL     1       3.300   6.675  17.940  0.00  0.00    +0.000 C 
ATOM     29  O   UNL     1       4.310   6.384  17.313  0.00  0.00    +0.000 OA
BRANCH  28  30
ATOM     30  C   UNL     1       2.504   5.627  18.637  0.00  0.00    +0.000 A 
ATOM     31  C   UNL     1       2.302   5.667  20.023  0.00  0.00    +0.000 A 
ATOM     32  C   UNL     1       1.560   4.667  20.656  0.00  0.00    +0.000 A 
ATOM     33  C   UNL     1       1.005   3.631  19.907  0.00  0.00    +0.000 A 
ATOM     34  C   UNL     1       1.178   3.598  18.523  0.00  0.00    +0.000 A 
ATOM     35  C   UNL     1       1.920   4.597  17.886  0.00  0.00    +0.000 A 
ENDBRANCH  28  30
ENDBRANCH  27  28
ENDBRANCH   3  26
TORSDOF 7
ENDMDL
MODEL 6
REMARK VINA RESULT:      -8.9      7.041     11.439
REMARK  Name = 
REMARK  9 active torsions:
REMARK  status: ('A' for Active; 'I' for Inactive)
REMARK    1  A    between atoms: C_1  and  O_2
REMARK    2  A    between atoms: O_2  and  C_3
REMARK    3  A    between atoms: C_6  and  C_7
REMARK    4  A    between atoms: C_9  and  C_10
REMARK    5  A    between atoms: C_11  and  C_12
REMARK    6  A    between atoms: C_12  and  C_14
REMARK    7  A    between atoms: C_23  and  C_24
REMARK    8  A    between atoms: C_33  and  O_34
REMARK    9  A    between atoms: O_34  and  C_35
REMARK                            x       y       z     vdW  Elec       q    Type
REMARK                         _______ _______ _______ _____ _____    ______ ____
ROOT
ATOM      1  C   UNL     1      -0.830  11.120  18.073  0.00  0.00    +0.000 A 
ATOM      2  C   UNL     1      -0.348   9.870  17.941  0.00  0.00    +0.000 A 
ATOM      3  C   UNL     1       1.129   9.709  18.135  0.00  0.00    +0.000 A 
ATOM      4  N   UNL     1       1.957  10.685  18.393  0.00  0.00    +0.000 NA
ATOM      5  C   UNL     1       1.416  11.934  18.497  0.00  0.00    +0.000 A 
ATOM      6  C   UNL     1       1.990  13.158  18.751  0.00  0.00    +0.000 A 
ATOM      7  C   UNL     1       0.929  14.096  18.785  0.00  0.00    +0.000 A 
ATOM      8  N   UNL     1      -0.242  13.489  18.540  0.00  0.00    +0.000 NA
ATOM      9  N   UNL     1       0.049  12.176  18.357  0.00  0.00    +0.000 N 
ENDROOT
BRANCH   1  13
ATOM     10  C   UNL     1      -5.069  11.645  17.723  0.00  0.00    +0.000 A 
ATOM     11  C   UNL     1      -4.295  11.276  16.611  0.00  0.00    +0.000 A 
ATOM     12  C   UNL     1      -2.914  11.105  16.718  0.00  0.00    +0.000 A 
ATOM     13  C   UNL     1      -2.274  11.361  17.930  0.00  0.00    +0.000 A 
ATOM     14  C   UNL     1      -3.030  11.824  19.011  0.00  0.00    +0.000 A 
ATOM     15  C   UNL     1      -4.423  11.978  18.923  0.00  0.00    +0.000 A 
BRANCH  10  17
ATOM     16  C   UNL     1      -6.974  12.926  17.166  0.00  0.00    +0.000 C 
ATOM     17  O   UNL     1      -6.437  11.686  17.638  0.00  0.00    +0.000 OA
ENDBRANCH  10  17
BRANCH  15  18
ATOM     18  O   UNL     1      -4.953  12.426  20.102  0.00  0.00    +0.000 OA
ATOM     19  C   UNL     1      -4.125  13.093  21.039  0.00  0.00    +0.000 C 
ENDBRANCH  15  18
ENDBRANCH   1  13
BRANCH   7  20
ATOM     20  C   UNL     1       0.998  15.539  19.058  0.00  0.00    +0.000 A 
ATOM     21  C   UNL     1       2.231  16.200  19.171  0.00  0.00    +0.000 A 
ATOM     22  C   UNL     1       2.286  17.568  19.450  0.00  0.00    +0.000 A 
ATOM     23  C   UNL     1       1.112  18.296  19.620  0.00  0.00    +0.000 A 
ATOM     24  C   UNL     1      -0.121  17.659  19.508  0.00  0.00    +0.000 A 
ATOM     25  C   UNL     1      -0.177  16.290  19.228  0.00  0.00    +0.000 A 
ENDBRANCH   7  20
BRANCH   3  26
ATOM     26  C   UNL     1       1.594   8.297  18.019  0.00  0.00    +0.000 C 
ATOM     27  C   UNL     1       2.908   8.012  17.997  0.00  0.00    +0.000 C 
BRANCH  27  28
ATOM     28  C   UNL     1       3.364   6.598  17.896  0.00  0.00    +0.000 C 
ATOM     29  O   UNL     1       4.385   6.292  17.293  0.00  0.00    +0.000 OA
BRANCH  28  30
ATOM     30  C   UNL     1       2.546   5.562  18.585  0.00  0.00    +0.000 A 
ATOM     31  C   UNL     1       1.905   4.544  17.867  0.00  0.00    +0.000 A 
ATOM     32  C   UNL     1       1.134   3.589  18.535  0.00  0.00    +0.000 A 
ATOM     33  C   UNL     1       1.011   3.638  19.922  0.00  0.00    +0.000 A 
ATOM     34  C   UNL     1       1.669   4.631  20.647  0.00  0.00    +0.000 A 
ATOM     35  C   UNL     1       2.441   5.589  19.983  0.00  0.00    +0.000 A 
ENDBRANCH  28  30
ENDBRANCH  27  28
ENDBRANCH   3  26
TORSDOF 7
ENDMDL
MODEL 7
REMARK VINA RESULT:      -8.8      6.739     11.284
REMARK  Name = 
REMARK  9 active torsions:
REMARK  status: ('A' for Active; 'I' for Inactive)
REMARK    1  A    between atoms: C_1  and  O_2
REMARK    2  A    between atoms: O_2  and  C_3
REMARK    3  A    between atoms: C_6  and  C_7
REMARK    4  A    between atoms: C_9  and  C_10
REMARK    5  A    between atoms: C_11  and  C_12
REMARK    6  A    between atoms: C_12  and  C_14
REMARK    7  A    between atoms: C_23  and  C_24
REMARK    8  A    between atoms: C_33  and  O_34
REMARK    9  A    between atoms: O_34  and  C_35
REMARK                            x       y       z     vdW  Elec       q    Type
REMARK                         _______ _______ _______ _____ _____    ______ ____
ROOT
ATOM      1  C   UNL     1      -0.476  10.799  17.979  0.00  0.00    +0.000 A 
ATOM      2  C   UNL     1       0.029   9.561  17.825  0.00  0.00    +0.000 A 
ATOM      3  C   UNL     1       1.505   9.419  18.036  0.00  0.00    +0.000 A 
ATOM      4  N   UNL     1       2.313  10.401  18.329  0.00  0.00    +0.000 NA
ATOM      5  C   UNL     1       1.750  11.638  18.456  0.00  0.00    +0.000 A 
ATOM      6  C   UNL     1       2.300  12.864  18.748  0.00  0.00    +0.000 A 
ATOM      7  C   UNL     1       1.224  13.785  18.789  0.00  0.00    +0.000 A 
ATOM      8  N   UNL     1       0.066  13.165  18.513  0.00  0.00    +0.000 NA
ATOM      9  N   UNL     1       0.382  11.862  18.302  0.00  0.00    +0.000 N 
ENDROOT
BRANCH   1  13
ATOM     10  C   UNL     1      -4.649  11.613  17.444  0.00  0.00    +0.000 A 
ATOM     11  C   UNL     1      -4.031  11.809  18.690  0.00  0.00    +0.000 A 
ATOM     12  C   UNL     1      -2.673  11.544  18.871  0.00  0.00    +0.000 A 
ATOM     13  C   UNL     1      -1.921  11.020  17.821  0.00  0.00    +0.000 A 
ATOM     14  C   UNL     1      -2.558  10.731  16.610  0.00  0.00    +0.000 A 
ATOM     15  C   UNL     1      -3.918  11.014  16.408  0.00  0.00    +0.000 A 
BRANCH  10  17
ATOM     16  C   UNL     1      -6.881  11.497  18.210  0.00  0.00    +0.000 C 
ATOM     17  O   UNL     1      -5.950  11.995  17.243  0.00  0.00    +0.000 OA
ENDBRANCH  10  17
BRANCH  15  18
ATOM     18  O   UNL     1      -4.321  10.664  15.147  0.00  0.00    +0.000 OA
ATOM     19  C   UNL     1      -3.385  10.117  14.235  0.00  0.00    +0.000 C 
ENDBRANCH  15  18
ENDBRANCH   1  13
BRANCH   7  20
ATOM     20  C   UNL     1       1.265  15.221  19.098  0.00  0.00    +0.000 A 
ATOM     21  C   UNL     1       0.107  16.012  19.032  0.00  0.00    +0.000 A 
ATOM     22  C   UNL     1       0.160  17.381  19.308  0.00  0.00    +0.000 A 
ATOM     23  C   UNL     1       1.368  17.980  19.656  0.00  0.00    +0.000 A 
ATOM     24  C   UNL     1       2.526  17.210  19.731  0.00  0.00    +0.000 A 
ATOM     25  C   UNL     1       2.474  15.840  19.454  0.00  0.00    +0.000 A 
ENDBRANCH   7  20
BRANCH   3  26
ATOM     26  C   UNL     1       1.995   8.017  17.892  0.00  0.00    +0.000 C 
ATOM     27  C   UNL     1       2.992   7.561  18.670  0.00  0.00    +0.000 C 
BRANCH  27  28
ATOM     28  C   UNL     1       3.465   6.156  18.531  0.00  0.00    +0.000 C 
ATOM     29  O   UNL     1       4.581   5.891  18.102  0.00  0.00    +0.000 OA
BRANCH  28  30
ATOM     30  C   UNL     1       2.538   5.074  18.964  0.00  0.00    +0.000 A 
ATOM     31  C   UNL     1       2.111   4.970  20.295  0.00  0.00    +0.000 A 
ATOM     32  C   UNL     1       1.249   3.941  20.680  0.00  0.00    +0.000 A 
ATOM     33  C   UNL     1       0.798   3.020  19.737  0.00  0.00    +0.000 A 
ATOM     34  C   UNL     1       1.194   3.132  18.404  0.00  0.00    +0.000 A 
ATOM     35  C   UNL     1       2.058   4.161  18.014  0.00  0.00    +0.000 A 
ENDBRANCH  28  30
ENDBRANCH  27  28
ENDBRANCH   3  26
TORSDOF 7
ENDMDL
MODEL 8
REMARK VINA RESULT:      -8.6      6.989     11.513
REMARK  Name = 
REMARK  9 active torsions:
REMARK  status: ('A' for Active; 'I' for Inactive)
REMARK    1  A    between atoms: C_1  and  O_2
REMARK    2  A    between atoms: O_2  and  C_3
REMARK    3  A    between atoms: C_6  and  C_7
REMARK    4  A    between atoms: C_9  and  C_10
REMARK    5  A    between atoms: C_11  and  C_12
REMARK    6  A    between atoms: C_12  and  C_14
REMARK    7  A    between atoms: C_23  and  C_24
REMARK    8  A    between atoms: C_33  and  O_34
REMARK    9  A    between atoms: O_34  and  C_35
REMARK                            x       y       z     vdW  Elec       q    Type
REMARK                         _______ _______ _______ _____ _____    ______ ____
ROOT
ATOM      1  C   UNL     1      -0.685  11.025  18.201  0.00  0.00    +0.000 A 
ATOM      2  C   UNL     1      -0.030   9.877  17.947  0.00  0.00    +0.000 A 
ATOM      3  C   UNL     1       1.462   9.929  18.065  0.00  0.00    +0.000 A 
ATOM      4  N   UNL     1       2.148  10.997  18.367  0.00  0.00    +0.000 NA
ATOM      5  C   UNL     1       1.434  12.137  18.597  0.00  0.00    +0.000 A 
ATOM      6  C   UNL     1       1.833  13.411  18.927  0.00  0.00    +0.000 A 
ATOM      7  C   UNL     1       0.648  14.172  19.083  0.00  0.00    +0.000 A 
ATOM      8  N   UNL     1      -0.432  13.414  18.838  0.00  0.00    +0.000 NA
ATOM      9  N   UNL     1       0.041  12.178  18.535  0.00  0.00    +0.000 N 
ENDROOT
BRANCH   1  13
ATOM     10  C   UNL     1      -4.971  10.989  18.171  0.00  0.00    +0.000 A 
ATOM     11  C   UNL     1      -4.238  10.150  17.315  0.00  0.00    +0.000 A 
ATOM     12  C   UNL     1      -2.842  10.159  17.319  0.00  0.00    +0.000 A 
ATOM     13  C   UNL     1      -2.154  11.053  18.139  0.00  0.00    +0.000 A 
ATOM     14  C   UNL     1      -2.884  11.956  18.919  0.00  0.00    +0.000 A 
ATOM     15  C   UNL     1      -4.288  11.942  18.941  0.00  0.00    +0.000 A 
BRANCH  10  17
ATOM     16  C   UNL     1      -6.811   9.955  19.232  0.00  0.00    +0.000 C 
ATOM     17  O   UNL     1      -6.335  10.882  18.251  0.00  0.00    +0.000 OA
ENDBRANCH  10  17
BRANCH  15  18
ATOM     18  O   UNL     1      -4.785  12.900  19.783  0.00  0.00    +0.000 OA
ATOM     19  C   UNL     1      -4.893  12.631  21.170  0.00  0.00    +0.000 C 
ENDBRANCH  15  18
ENDBRANCH   1  13
BRANCH   7  20
ATOM     20  C   UNL     1       0.516  15.583  19.472  0.00  0.00    +0.000 A 
ATOM     21  C   UNL     1      -0.146  15.953  20.654  0.00  0.00    +0.000 A 
ATOM     22  C   UNL     1      -0.284  17.299  21.005  0.00  0.00    +0.000 A 
ATOM     23  C   UNL     1       0.238  18.295  20.182  0.00  0.00    +0.000 A 
ATOM     24  C   UNL     1       0.900  17.947  19.008  0.00  0.00    +0.000 A 
ATOM     25  C   UNL     1       1.038  16.600  18.656  0.00  0.00    +0.000 A 
ENDBRANCH   7  20
BRANCH   3  26
ATOM     26  C   UNL     1       2.125   8.617  17.812  0.00  0.00    +0.000 C 
ATOM     27  C   UNL     1       2.324   7.749  18.820  0.00  0.00    +0.000 C 
BRANCH  27  28
ATOM     28  C   UNL     1       2.973   6.434  18.557  0.00  0.00    +0.000 C 
ATOM     29  O   UNL     1       4.080   6.355  18.040  0.00  0.00    +0.000 OA
BRANCH  28  30
ATOM     30  C   UNL     1       2.237   5.210  18.978  0.00  0.00    +0.000 A 
ATOM     31  C   UNL     1       1.893   4.992  20.320  0.00  0.00    +0.000 A 
ATOM     32  C   UNL     1       1.211   3.831  20.692  0.00  0.00    +0.000 A 
ATOM     33  C   UNL     1       0.857   2.891  19.727  0.00  0.00    +0.000 A 
ATOM     34  C   UNL     1       1.169   3.113  18.386  0.00  0.00    +0.000 A 
ATOM     35  C   UNL     1       1.852   4.274  18.009  0.00  0.00    +0.000 A 
ENDBRANCH  28  30
ENDBRANCH  27  28
ENDBRANCH   3  26
TORSDOF 7
ENDMDL
MODEL 9
REMARK VINA RESULT:      -8.6      6.905     10.711
REMARK  Name = 
REMARK  9 active torsions:
REMARK  status: ('A' for Active; 'I' for Inactive)
REMARK    1  A    between atoms: C_1  and  O_2
REMARK    2  A    between atoms: O_2  and  C_3
REMARK    3  A    between atoms: C_6  and  C_7
REMARK    4  A    between atoms: C_9  and  C_10
REMARK    5  A    between atoms: C_11  and  C_12
REMARK    6  A    between atoms: C_12  and  C_14
REMARK    7  A    between atoms: C_23  and  C_24
REMARK    8  A    between atoms: C_33  and  O_34
REMARK    9  A    between atoms: O_34  and  C_35
REMARK                            x       y       z     vdW  Elec       q    Type
REMARK                         _______ _______ _______ _____ _____    ______ ____
ROOT
ATOM      1  C   UNL     1      -0.580  11.013  18.232  0.00  0.00    +0.000 A 
ATOM      2  C   UNL     1      -0.050   9.775  18.255  0.00  0.00    +0.000 A 
ATOM      3  C   UNL     1       1.415   9.690  18.557  0.00  0.00    +0.000 A 
ATOM      4  N   UNL     1       2.191  10.717  18.768  0.00  0.00    +0.000 NA
ATOM      5  C   UNL     1       1.605  11.949  18.714  0.00  0.00    +0.000 A 
ATOM      6  C   UNL     1       2.121  13.213  18.882  0.00  0.00    +0.000 A 
ATOM      7  C   UNL     1       1.031  14.109  18.756  0.00  0.00    +0.000 A 
ATOM      8  N   UNL     1      -0.101  13.436  18.499  0.00  0.00    +0.000 NA
ATOM      9  N   UNL     1       0.244  12.124  18.465  0.00  0.00    +0.000 N 
ENDROOT
BRANCH   1  13
ATOM     10  C   UNL     1      -4.733  11.678  17.409  0.00  0.00    +0.000 A 
ATOM     11  C   UNL     1      -4.207  11.911  18.690  0.00  0.00    +0.000 A 
ATOM     12  C   UNL     1      -2.856  11.694  18.965  0.00  0.00    +0.000 A 
ATOM     13  C   UNL     1      -2.018  11.182  17.975  0.00  0.00    +0.000 A 
ATOM     14  C   UNL     1      -2.562  10.857  16.728  0.00  0.00    +0.000 A 
ATOM     15  C   UNL     1      -3.915  11.091  16.432  0.00  0.00    +0.000 A 
BRANCH  10  17
ATOM     16  C   UNL     1      -6.986  11.656  18.120  0.00  0.00    +0.000 C 
ATOM     17  O   UNL     1      -6.029  12.014  17.116  0.00  0.00    +0.000 OA
ENDBRANCH  10  17
BRANCH  15  18
ATOM     18  O   UNL     1      -4.221  10.713  15.153  0.00  0.00    +0.000 OA
ATOM     19  C   UNL     1      -3.228  10.112  14.339  0.00  0.00    +0.000 C 
ENDBRANCH  15  18
ENDBRANCH   1  13
BRANCH   7  20
ATOM     20  C   UNL     1       1.035  15.572  18.888  0.00  0.00    +0.000 A 
ATOM     21  C   UNL     1       2.138  16.250  19.433  0.00  0.00    +0.000 A 
ATOM     22  C   UNL     1       2.124  17.641  19.573  0.00  0.00    +0.000 A 
ATOM     23  C   UNL     1       1.011  18.375  19.172  0.00  0.00    +0.000 A 
ATOM     24  C   UNL     1      -0.091  17.720  18.626  0.00  0.00    +0.000 A 
ATOM     25  C   UNL     1      -0.078  16.329  18.485  0.00  0.00    +0.000 A 
ENDBRANCH   7  20
BRANCH   3  26
ATOM     26  C   UNL     1       1.931   8.292  18.611  0.00  0.00    +0.000 C 
ATOM     27  C   UNL     1       2.924   7.901  17.792  0.00  0.00    +0.000 C 
BRANCH  27  28
ATOM     28  C   UNL     1       3.445   6.508  17.862  0.00  0.00    +0.000 C 
ATOM     29  O   UNL     1       2.707   5.538  17.744  0.00  0.00    +0.000 OA
BRANCH  28  30
ATOM     30  C   UNL     1       4.912   6.333  18.051  0.00  0.00    +0.000 A 
ATOM     31  C   UNL     1       5.423   5.536  19.085  0.00  0.00    +0.000 A 
ATOM     32  C   UNL     1       6.802   5.394  19.248  0.00  0.00    +0.000 A 
ATOM     33  C   UNL     1       7.678   6.035  18.373  0.00  0.00    +0.000 A 
ATOM     34  C   UNL     1       7.177   6.807  17.324  0.00  0.00    +0.000 A 
ATOM     35  C   UNL     1       5.797   6.951  17.157  0.00  0.00    +0.000 A 
ENDBRANCH  28  30
ENDBRANCH  27  28
ENDBRANCH   3  26
TORSDOF 7
ENDMDL
