MODEL 1
REMARK VINA RESULT:      -7.4      0.000      0.000
REMARK  Name = 
REMARK  9 active torsions:
REMARK  status: ('A' for Active; 'I' for Inactive)
REMARK    1  A    between atoms: C_1  and  C_2
REMARK    2  A    between atoms: C_2  and  C_3
REMARK    3  A    between atoms: C_3  and  C_4
REMARK    4  A    between atoms: C_3  and  N_5
REMARK    5  A    between atoms: N_5  and  C_25
REMARK    6  A    between atoms: C_6  and  C_8
REMARK    7  A    between atoms: C_8  and  S_9
REMARK    8  A    between atoms: S_9  and  C_10
REMARK    9  A    between atoms: C_12  and  C_13
REMARK                            x       y       z     vdW  Elec       q    Type
REMARK                         _______ _______ _______ _____ _____    ______ ____
ROOT
ATOM      1  S   UNL     1       2.513   7.517  19.389  0.00  0.00    +0.000 S 
ENDROOT
BRANCH   1   2
ATOM      2  C   UNL     1       2.863   5.914  18.609  0.00  0.00    +0.000 A 
ATOM      3  N   UNL     1       3.842   5.974  17.693  0.00  0.00    +0.000 NA
ATOM      4  C   UNL     1       4.171   4.830  17.086  0.00  0.00    +0.000 A 
ATOM      5  N   UNL     1       3.621   3.633  17.319  0.00  0.00    +0.000 NA
ATOM      6  C   UNL     1       2.657   3.576  18.231  0.00  0.00    +0.000 A 
ATOM      7  C   UNL     1       2.110   2.311  18.454  0.00  0.00    +0.000 A 
ATOM      8  C   UNL     1       1.092   2.117  19.380  0.00  0.00    +0.000 A 
ATOM      9  C   UNL     1       0.606   3.201  20.089  0.00  0.00    +0.000 A 
ATOM     10  C   UNL     1       1.141   4.484  19.873  0.00  0.00    +0.000 A 
ATOM     11  C   UNL     1       2.192   4.695  18.936  0.00  0.00    +0.000 A 
BRANCH   4  12
ATOM     12  C   UNL     1       5.231   4.849  16.082  0.00  0.00    +0.000 A 
ATOM     13  C   UNL     1       5.190   4.345  14.789  0.00  0.00    +0.000 A 
ATOM     14  C   UNL     1       6.411   4.524  14.089  0.00  0.00    +0.000 A 
ATOM     15  C   UNL     1       7.355   5.160  14.857  0.00  0.00    +0.000 A 
ATOM     16  S   UNL     1       6.766   5.545  16.413  0.00  0.00    +0.000 S 
ENDBRANCH   4  12
ENDBRANCH   1   2
BRANCH   1  17
ATOM     17  C   UNL     1       1.634   8.413  17.999  0.00  0.00    +0.000 C 
BRANCH  17  19
ATOM     18  N   UNL     1       0.837  10.771  18.713  0.00  0.00    +0.000 N 
ATOM     19  C   UNL     1       1.792   9.940  18.042  0.00  0.00    +0.000 C 
ATOM     20  O   UNL     1       2.797  10.464  17.538  0.00  0.00    +0.000 OA
BRANCH  18  21
ATOM     21  C   UNL     1       1.189  12.236  18.661  0.00  0.00    +0.000 C 
ATOM     22  C   UNL     1       1.938  12.941  19.815  0.00  0.00    +0.000 C 
ATOM     23  C   UNL     1       0.932  13.593  20.745  0.00  0.00    +0.000 C 
ATOM     24  S   UNL     1      -0.385  14.136  19.685  0.00  0.00    +0.000 S 
ATOM     25  O   UNL     1      -0.125  15.512  19.310  0.00  0.00    +0.000 OA
ATOM     26  O   UNL     1      -1.641  13.729  20.278  0.00  0.00    +0.000 OA
ATOM     27  C   UNL     1      -0.024  13.094  18.289  0.00  0.00    +0.000 C 
ENDBRANCH  18  21
BRANCH  18  28
ATOM     28  C   UNL     1      -0.455  10.340  19.343  0.00  0.00    +0.000 C 
ATOM     29  C   UNL     1      -0.241   9.579  20.659  0.00  0.00    +0.000 C 
BRANCH  28  31
ATOM     30  C   UNL     1      -1.849  10.107  17.136  0.00  0.00    +0.000 C 
ATOM     31  C   UNL     1      -1.457   9.534  18.482  0.00  0.00    +0.000 C 
ENDBRANCH  28  31
ENDBRANCH  18  28
ENDBRANCH  17  19
ENDBRANCH   1  17
TORSDOF 7
ENDMDL
MODEL 2
REMARK VINA RESULT:      -7.2      0.455      1.198
REMARK  Name = 
REMARK  9 active torsions:
REMARK  status: ('A' for Active; 'I' for Inactive)
REMARK    1  A    between atoms: C_1  and  C_2
REMARK    2  A    between atoms: C_2  and  C_3
REMARK    3  A    between atoms: C_3  and  C_4
REMARK    4  A    between atoms: C_3  and  N_5
REMARK    5  A    between atoms: N_5  and  C_25
REMARK    6  A    between atoms: C_6  and  C_8
REMARK    7  A    between atoms: C_8  and  S_9
REMARK    8  A    between atoms: S_9  and  C_10
REMARK    9  A    between atoms: C_12  and  C_13
REMARK                            x       y       z     vdW  Elec       q    Type
REMARK                         _______ _______ _______ _____ _____    ______ ____
ROOT
ATOM      1  S   UNL     1       2.455   7.466  19.368  0.00  0.00    +0.000 S 
ENDROOT
BRANCH   1   2
ATOM      2  C   UNL     1       2.867   5.848  18.652  0.00  0.00    +0.000 A 
ATOM      3  N   UNL     1       3.831   5.911  17.721  0.00  0.00    +0.000 NA
ATOM      4  C   UNL     1       4.203   4.758  17.158  0.00  0.00    +0.000 A 
ATOM      5  N   UNL     1       3.710   3.549  17.450  0.00  0.00    +0.000 NA
ATOM      6  C   UNL     1       2.760   3.488  18.377  0.00  0.00    +0.000 A 
ATOM      7  C   UNL     1       2.273   2.212  18.661  0.00  0.00    +0.000 A 
ATOM      8  C   UNL     1       1.276   2.013  19.609  0.00  0.00    +0.000 A 
ATOM      9  C   UNL     1       0.751   3.104  20.278  0.00  0.00    +0.000 A 
ATOM     10  C   UNL     1       1.226   4.400  20.000  0.00  0.00    +0.000 A 
ATOM     11  C   UNL     1       2.255   4.616  19.040  0.00  0.00    +0.000 A 
BRANCH   4  12
ATOM     12  C   UNL     1       5.249   4.780  16.140  0.00  0.00    +0.000 A 
ATOM     13  C   UNL     1       5.154   4.386  14.811  0.00  0.00    +0.000 A 
ATOM     14  C   UNL     1       6.376   4.531  14.106  0.00  0.00    +0.000 A 
ATOM     15  C   UNL     1       7.374   5.033  14.904  0.00  0.00    +0.000 A 
ATOM     16  S   UNL     1       6.835   5.332  16.496  0.00  0.00    +0.000 S 
ENDBRANCH   4  12
ENDBRANCH   1   2
BRANCH   1  17
ATOM     17  C   UNL     1       1.889   8.402  17.848  0.00  0.00    +0.000 C 
BRANCH  17  19
ATOM     18  N   UNL     1       0.933  10.606  18.815  0.00  0.00    +0.000 N 
ATOM     19  C   UNL     1       1.907   9.929  18.012  0.00  0.00    +0.000 C 
ATOM     20  O   UNL     1       2.818  10.587  17.489  0.00  0.00    +0.000 OA
BRANCH  18  21
ATOM     21  C   UNL     1       1.142  12.097  18.866  0.00  0.00    +0.000 C 
ATOM     22  C   UNL     1       1.711  12.804  20.119  0.00  0.00    +0.000 C 
ATOM     23  C   UNL     1       0.565  13.306  20.977  0.00  0.00    +0.000 C 
ATOM     24  S   UNL     1      -0.697  13.782  19.823  0.00  0.00    +0.000 S 
ATOM     25  O   UNL     1      -0.541  15.195  19.540  0.00  0.00    +0.000 OA
ATOM     26  O   UNL     1      -1.956  13.227  20.272  0.00  0.00    +0.000 OA
ATOM     27  C   UNL     1      -0.110  12.859  18.420  0.00  0.00    +0.000 C 
ENDBRANCH  18  21
BRANCH  18  28
ATOM     28  C   UNL     1      -0.263  10.001  19.490  0.00  0.00    +0.000 C 
ATOM     29  C   UNL     1      -1.573  10.311  18.752  0.00  0.00    +0.000 C 
BRANCH  28  31
ATOM     30  C   UNL     1       0.219   9.395  21.994  0.00  0.00    +0.000 C 
ATOM     31  C   UNL     1      -0.482  10.292  20.995  0.00  0.00    +0.000 C 
ENDBRANCH  28  31
ENDBRANCH  18  28
ENDBRANCH  17  19
ENDBRANCH   1  17
TORSDOF 7
ENDMDL
MODEL 3
REMARK VINA RESULT:      -7.0      2.776      8.915
REMARK  Name = 
REMARK  9 active torsions:
REMARK  status: ('A' for Active; 'I' for Inactive)
REMARK    1  A    between atoms: C_1  and  C_2
REMARK    2  A    between atoms: C_2  and  C_3
REMARK    3  A    between atoms: C_3  and  C_4
REMARK    4  A    between atoms: C_3  and  N_5
REMARK    5  A    between atoms: N_5  and  C_25
REMARK    6  A    between atoms: C_6  and  C_8
REMARK    7  A    between atoms: C_8  and  S_9
REMARK    8  A    between atoms: S_9  and  C_10
REMARK    9  A    between atoms: C_12  and  C_13
REMARK                            x       y       z     vdW  Elec       q    Type
REMARK                         _______ _______ _______ _____ _____    ______ ____
ROOT
ATOM      1  S   UNL     1       0.796   9.282  17.904  0.00  0.00    +0.000 S 
ENDROOT
BRANCH   1   2
ATOM      2  C   UNL     1       0.511  10.529  19.195  0.00  0.00    +0.000 A 
ATOM      3  N   UNL     1       0.703  11.786  18.767  0.00  0.00    +0.000 NA
ATOM      4  C   UNL     1       0.495  12.763  19.654  0.00  0.00    +0.000 A 
ATOM      5  N   UNL     1       0.103  12.600  20.923  0.00  0.00    +0.000 NA
ATOM      6  C   UNL     1      -0.093  11.354  21.341  0.00  0.00    +0.000 A 
ATOM      7  C   UNL     1      -0.509  11.220  22.667  0.00  0.00    +0.000 A 
ATOM      8  C   UNL     1      -0.745   9.970  23.227  0.00  0.00    +0.000 A 
ATOM      9  C   UNL     1      -0.557   8.836  22.457  0.00  0.00    +0.000 A 
ATOM     10  C   UNL     1      -0.132   8.952  21.120  0.00  0.00    +0.000 A 
ATOM     11  C   UNL     1       0.102  10.227  20.531  0.00  0.00    +0.000 A 
BRANCH   4  12
ATOM     12  C   UNL     1       0.693  14.147  19.233  0.00  0.00    +0.000 A 
ATOM     13  C   UNL     1      -0.264  15.147  19.114  0.00  0.00    +0.000 A 
ATOM     14  C   UNL     1       0.280  16.377  18.663  0.00  0.00    +0.000 A 
ATOM     15  C   UNL     1       1.634  16.294  18.450  0.00  0.00    +0.000 A 
ATOM     16  S   UNL     1       2.245  14.739  18.800  0.00  0.00    +0.000 S 
ENDBRANCH   4  12
ENDBRANCH   1   2
BRANCH   1  17
ATOM     17  C   UNL     1       2.074   8.191  18.730  0.00  0.00    +0.000 C 
BRANCH  17  19
ATOM     18  N   UNL     1       3.510   6.288  17.718  0.00  0.00    +0.000 N 
ATOM     19  C   UNL     1       3.165   7.677  17.778  0.00  0.00    +0.000 C 
ATOM     20  O   UNL     1       3.719   8.469  17.001  0.00  0.00    +0.000 OA
BRANCH  18  21
ATOM     21  C   UNL     1       4.584   5.989  16.704  0.00  0.00    +0.000 C 
ATOM     22  C   UNL     1       4.623   4.658  15.917  0.00  0.00    +0.000 C 
ATOM     23  C   UNL     1       5.537   3.679  16.630  0.00  0.00    +0.000 C 
ATOM     24  S   UNL     1       6.829   4.680  17.322  0.00  0.00    +0.000 S 
ATOM     25  O   UNL     1       7.926   4.721  16.374  0.00  0.00    +0.000 OA
ATOM     26  O   UNL     1       7.024   4.281  18.699  0.00  0.00    +0.000 OA
ATOM     27  C   UNL     1       5.984   6.244  17.272  0.00  0.00    +0.000 C 
ENDBRANCH  18  21
BRANCH  18  28
ATOM     28  C   UNL     1       2.991   5.187  18.596  0.00  0.00    +0.000 C 
ATOM     29  C   UNL     1       1.704   4.555  18.045  0.00  0.00    +0.000 C 
BRANCH  28  31
ATOM     30  C   UNL     1       1.483   5.001  20.731  0.00  0.00    +0.000 C 
ATOM     31  C   UNL     1       2.770   5.488  20.098  0.00  0.00    +0.000 C 
ENDBRANCH  28  31
ENDBRANCH  18  28
ENDBRANCH  17  19
ENDBRANCH   1  17
TORSDOF 7
ENDMDL
MODEL 4
REMARK VINA RESULT:      -6.9      2.096      2.738
REMARK  Name = 
REMARK  9 active torsions:
REMARK  status: ('A' for Active; 'I' for Inactive)
REMARK    1  A    between atoms: C_1  and  C_2
REMARK    2  A    between atoms: C_2  and  C_3
REMARK    3  A    between atoms: C_3  and  C_4
REMARK    4  A    between atoms: C_3  and  N_5
REMARK    5  A    between atoms: N_5  and  C_25
REMARK    6  A    between atoms: C_6  and  C_8
REMARK    7  A    between atoms: C_8  and  S_9
REMARK    8  A    between atoms: S_9  and  C_10
REMARK    9  A    between atoms: C_12  and  C_13
REMARK                            x       y       z     vdW  Elec       q    Type
REMARK                         _______ _______ _______ _____ _____    ______ ____
ROOT
ATOM      1  S   UNL     1       1.282   6.596  20.838  0.00  0.00    +0.000 S 
ENDROOT
BRANCH   1   2
ATOM      2  C   UNL     1       2.357   5.571  19.793  0.00  0.00    +0.000 A 
ATOM      3  N   UNL     1       3.527   6.160  19.501  0.00  0.00    +0.000 NA
ATOM      4  C   UNL     1       4.383   5.462  18.749  0.00  0.00    +0.000 A 
ATOM      5  N   UNL     1       4.182   4.227  18.274  0.00  0.00    +0.000 NA
ATOM      6  C   UNL     1       3.025   3.644  18.571  0.00  0.00    +0.000 A 
ATOM      7  C   UNL     1       2.851   2.355  18.065  0.00  0.00    +0.000 A 
ATOM      8  C   UNL     1       1.684   1.638  18.302  0.00  0.00    +0.000 A 
ATOM      9  C   UNL     1       0.672   2.218  19.046  0.00  0.00    +0.000 A 
ATOM     10  C   UNL     1       0.828   3.519  19.558  0.00  0.00    +0.000 A 
ATOM     11  C   UNL     1       2.023   4.260  19.333  0.00  0.00    +0.000 A 
BRANCH   4  12
ATOM     12  C   UNL     1       5.668   6.064  18.406  0.00  0.00    +0.000 A 
ATOM     13  C   UNL     1       5.943   6.964  17.385  0.00  0.00    +0.000 A 
ATOM     14  C   UNL     1       7.311   7.334  17.331  0.00  0.00    +0.000 A 
ATOM     15  C   UNL     1       8.050   6.715  18.310  0.00  0.00    +0.000 A 
ATOM     16  S   UNL     1       7.093   5.698  19.291  0.00  0.00    +0.000 S 
ENDBRANCH   4  12
ENDBRANCH   1   2
BRANCH   1  17
ATOM     17  C   UNL     1       1.675   8.310  20.194  0.00  0.00    +0.000 C 
BRANCH  17  19
ATOM     18  N   UNL     1       0.541  10.621  20.478  0.00  0.00    +0.000 N 
ATOM     19  C   UNL     1       1.118   9.447  21.064  0.00  0.00    +0.000 C 
ATOM     20  O   UNL     1       1.111   9.324  22.297  0.00  0.00    +0.000 OA
BRANCH  18  21
ATOM     21  C   UNL     1       0.032  11.602  21.502  0.00  0.00    +0.000 C 
ATOM     22  C   UNL     1      -1.471  11.718  21.852  0.00  0.00    +0.000 C 
ATOM     23  C   UNL     1      -2.097  12.823  21.021  0.00  0.00    +0.000 C 
ATOM     24  S   UNL     1      -0.824  14.049  20.857  0.00  0.00    +0.000 S 
ATOM     25  O   UNL     1      -0.989  15.017  21.923  0.00  0.00    +0.000 OA
ATOM     26  O   UNL     1      -0.754  14.447  19.467  0.00  0.00    +0.000 OA
ATOM     27  C   UNL     1       0.569  13.014  21.248  0.00  0.00    +0.000 C 
ENDBRANCH  18  21
BRANCH  18  28
ATOM     28  C   UNL     1       0.492  10.976  19.021  0.00  0.00    +0.000 C 
ATOM     29  C   UNL     1      -0.486  10.093  18.234  0.00  0.00    +0.000 C 
BRANCH  28  31
ATOM     30  C   UNL     1       2.521  12.373  18.126  0.00  0.00    +0.000 C 
ATOM     31  C   UNL     1       1.824  11.033  18.234  0.00  0.00    +0.000 C 
ENDBRANCH  28  31
ENDBRANCH  18  28
ENDBRANCH  17  19
ENDBRANCH   1  17
TORSDOF 7
ENDMDL
MODEL 5
REMARK VINA RESULT:      -6.8      2.923      9.304
REMARK  Name = 
REMARK  9 active torsions:
REMARK  status: ('A' for Active; 'I' for Inactive)
REMARK    1  A    between atoms: C_1  and  C_2
REMARK    2  A    between atoms: C_2  and  C_3
REMARK    3  A    between atoms: C_3  and  C_4
REMARK    4  A    between atoms: C_3  and  N_5
REMARK    5  A    between atoms: N_5  and  C_25
REMARK    6  A    between atoms: C_6  and  C_8
REMARK    7  A    between atoms: C_8  and  S_9
REMARK    8  A    between atoms: S_9  and  C_10
REMARK    9  A    between atoms: C_12  and  C_13
REMARK                            x       y       z     vdW  Elec       q    Type
REMARK                         _______ _______ _______ _____ _____    ______ ____
ROOT
ATOM      1  S   UNL     1       1.664  10.422  18.328  0.00  0.00    +0.000 S 
ENDROOT
BRANCH   1   2
ATOM      2  C   UNL     1       0.055  11.048  18.892  0.00  0.00    +0.000 A 
ATOM      3  N   UNL     1       0.144  11.836  19.974  0.00  0.00    +0.000 NA
ATOM      4  C   UNL     1      -0.998  12.351  20.441  0.00  0.00    +0.000 A 
ATOM      5  N   UNL     1      -2.215  12.161  19.918  0.00  0.00    +0.000 NA
ATOM      6  C   UNL     1      -2.298  11.386  18.842  0.00  0.00    +0.000 A 
ATOM      7  C   UNL     1      -3.581  11.215  18.319  0.00  0.00    +0.000 A 
ATOM      8  C   UNL     1      -3.804  10.425  17.197  0.00  0.00    +0.000 A 
ATOM      9  C   UNL     1      -2.734   9.789  16.592  0.00  0.00    +0.000 A 
ATOM     10  C   UNL     1      -1.435   9.946  17.110  0.00  0.00    +0.000 A 
ATOM     11  C   UNL     1      -1.191  10.761  18.251  0.00  0.00    +0.000 A 
BRANCH   4  12
ATOM     12  C   UNL     1      -0.948  13.214  21.617  0.00  0.00    +0.000 A 
ATOM     13  C   UNL     1      -1.665  13.085  22.800  0.00  0.00    +0.000 A 
ATOM     14  C   UNL     1      -1.378  14.115  23.732  0.00  0.00    +0.000 A 
ATOM     15  C   UNL     1      -0.449  15.003  23.247  0.00  0.00    +0.000 A 
ATOM     16  S   UNL     1       0.076  14.590  21.676  0.00  0.00    +0.000 S 
ENDBRANCH   4  12
ENDBRANCH   1   2
BRANCH   1  17
ATOM     17  C   UNL     1       1.555   8.624  18.840  0.00  0.00    +0.000 C 
BRANCH  17  19
ATOM     18  N   UNL     1       2.605   6.301  18.388  0.00  0.00    +0.000 N 
ATOM     19  C   UNL     1       2.533   7.702  18.097  0.00  0.00    +0.000 C 
ATOM     20  O   UNL     1       3.233   8.164  17.185  0.00  0.00    +0.000 OA
BRANCH  18  21
ATOM     21  C   UNL     1       3.609   5.571  17.532  0.00  0.00    +0.000 C 
ATOM     22  C   UNL     1       3.713   4.028  17.525  0.00  0.00    +0.000 C 
ATOM     23  C   UNL     1       4.784   3.592  18.508  0.00  0.00    +0.000 C 
ATOM     24  S   UNL     1       6.024   4.860  18.427  0.00  0.00    +0.000 S 
ATOM     25  O   UNL     1       7.020   4.457  17.454  0.00  0.00    +0.000 OA
ATOM     26  O   UNL     1       6.381   5.231  19.779  0.00  0.00    +0.000 OA
ATOM     27  C   UNL     1       5.020   6.141  17.707  0.00  0.00    +0.000 C 
ENDBRANCH  18  21
BRANCH  18  28
ATOM     28  C   UNL     1       1.879   5.562  19.473  0.00  0.00    +0.000 C 
ATOM     29  C   UNL     1       2.732   5.393  20.740  0.00  0.00    +0.000 C 
BRANCH  28  31
ATOM     30  C   UNL     1       1.100   3.186  20.259  0.00  0.00    +0.000 C 
ATOM     31  C   UNL     1       1.251   4.189  19.133  0.00  0.00    +0.000 C 
ENDBRANCH  28  31
ENDBRANCH  18  28
ENDBRANCH  17  19
ENDBRANCH   1  17
TORSDOF 7
ENDMDL
MODEL 6
REMARK VINA RESULT:      -6.6      2.973      8.973
REMARK  Name = 
REMARK  9 active torsions:
REMARK  status: ('A' for Active; 'I' for Inactive)
REMARK    1  A    between atoms: C_1  and  C_2
REMARK    2  A    between atoms: C_2  and  C_3
REMARK    3  A    between atoms: C_3  and  C_4
REMARK    4  A    between atoms: C_3  and  N_5
REMARK    5  A    between atoms: N_5  and  C_25
REMARK    6  A    between atoms: C_6  and  C_8
REMARK    7  A    between atoms: C_8  and  S_9
REMARK    8  A    between atoms: S_9  and  C_10
REMARK    9  A    between atoms: C_12  and  C_13
REMARK                            x       y       z     vdW  Elec       q    Type
REMARK                         _______ _______ _______ _____ _____    ______ ____
ROOT
ATOM      1  S   UNL     1       0.996   9.337  19.980  0.00  0.00    +0.000 S 
ENDROOT
BRANCH   1   2
ATOM      2  C   UNL     1      -0.452  10.407  19.737  0.00  0.00    +0.000 A 
ATOM      3  N   UNL     1      -1.053  10.222  18.552  0.00  0.00    +0.000 NA
ATOM      4  C   UNL     1      -2.139  10.961  18.304  0.00  0.00    +0.000 A 
ATOM      5  N   UNL     1      -2.684  11.856  19.136  0.00  0.00    +0.000 NA
ATOM      6  C   UNL     1      -2.091  12.031  20.312  0.00  0.00    +0.000 A 
ATOM      7  C   UNL     1      -2.689  12.966  21.157  0.00  0.00    +0.000 A 
ATOM      8  C   UNL     1      -2.164  13.244  22.414  0.00  0.00    +0.000 A 
ATOM      9  C   UNL     1      -1.021  12.587  22.831  0.00  0.00    +0.000 A 
ATOM     10  C   UNL     1      -0.400  11.645  21.989  0.00  0.00    +0.000 A 
ATOM     11  C   UNL     1      -0.934  11.342  20.704  0.00  0.00    +0.000 A 
BRANCH   4  12
ATOM     12  C   UNL     1      -2.824  10.794  17.026  0.00  0.00    +0.000 A 
ATOM     13  C   UNL     1      -2.381  10.106  15.904  0.00  0.00    +0.000 A 
ATOM     14  C   UNL     1      -3.302  10.159  14.827  0.00  0.00    +0.000 A 
ATOM     15  C   UNL     1      -4.427  10.879  15.147  0.00  0.00    +0.000 A 
ATOM     16  S   UNL     1      -4.371  11.483  16.743  0.00  0.00    +0.000 S 
ENDBRANCH   4  12
ENDBRANCH   1   2
BRANCH   1  17
ATOM     17  C   UNL     1       1.162   8.561  18.284  0.00  0.00    +0.000 C 
BRANCH  17  19
ATOM     18  N   UNL     1       2.956   6.707  18.062  0.00  0.00    +0.000 N 
ATOM     19  C   UNL     1       2.585   8.086  17.951  0.00  0.00    +0.000 C 
ATOM     20  O   UNL     1       3.414   8.900  17.520  0.00  0.00    +0.000 OA
BRANCH  18  21
ATOM     21  C   UNL     1       4.387   6.447  17.665  0.00  0.00    +0.000 C 
ATOM     22  C   UNL     1       4.754   5.566  16.448  0.00  0.00    +0.000 C 
ATOM     23  C   UNL     1       5.011   4.145  16.914  0.00  0.00    +0.000 C 
ATOM     24  S   UNL     1       5.758   4.318  18.516  0.00  0.00    +0.000 S 
ATOM     25  O   UNL     1       7.197   4.321  18.345  0.00  0.00    +0.000 OA
ATOM     26  O   UNL     1       5.097   3.406  19.424  0.00  0.00    +0.000 OA
ATOM     27  C   UNL     1       5.228   5.982  18.857  0.00  0.00    +0.000 C 
ENDBRANCH  18  21
BRANCH  18  28
ATOM     28  C   UNL     1       2.120   5.583  18.599  0.00  0.00    +0.000 C 
ATOM     29  C   UNL     1       2.475   5.230  20.051  0.00  0.00    +0.000 C 
BRANCH  28  31
ATOM     30  C   UNL     1       1.601   3.016  18.516  0.00  0.00    +0.000 C 
ATOM     31  C   UNL     1       2.053   4.265  17.789  0.00  0.00    +0.000 C 
ENDBRANCH  28  31
ENDBRANCH  18  28
ENDBRANCH  17  19
ENDBRANCH   1  17
TORSDOF 7
ENDMDL
MODEL 7
REMARK VINA RESULT:      -6.6      1.852      4.375
REMARK  Name = 
REMARK  9 active torsions:
REMARK  status: ('A' for Active; 'I' for Inactive)
REMARK    1  A    between atoms: C_1  and  C_2
REMARK    2  A    between atoms: C_2  and  C_3
REMARK    3  A    between atoms: C_3  and  C_4
REMARK    4  A    between atoms: C_3  and  N_5
REMARK    5  A    between atoms: N_5  and  C_25
REMARK    6  A    between atoms: C_6  and  C_8
REMARK    7  A    between atoms: C_8  and  S_9
REMARK    8  A    between atoms: S_9  and  C_10
REMARK    9  A    between atoms: C_12  and  C_13
REMARK                            x       y       z     vdW  Elec       q    Type
REMARK                         _______ _______ _______ _____ _____    ______ ____
ROOT
ATOM      1  S   UNL     1       3.512   8.112  17.574  0.00  0.00    +0.000 S 
ENDROOT
BRANCH   1   2
ATOM      2  C   UNL     1       3.852   6.328  17.639  0.00  0.00    +0.000 A 
ATOM      3  N   UNL     1       3.251   5.712  18.669  0.00  0.00    +0.000 NA
ATOM      4  C   UNL     1       3.439   4.394  18.775  0.00  0.00    +0.000 A 
ATOM      5  N   UNL     1       4.160   3.635  17.942  0.00  0.00    +0.000 NA
ATOM      6  C   UNL     1       4.747   4.247  16.919  0.00  0.00    +0.000 A 
ATOM      7  C   UNL     1       5.485   3.425  16.066  0.00  0.00    +0.000 A 
ATOM      8  C   UNL     1       6.151   3.942  14.961  0.00  0.00    +0.000 A 
ATOM      9  C   UNL     1       6.087   5.300  14.707  0.00  0.00    +0.000 A 
ATOM     10  C   UNL     1       5.353   6.145  15.561  0.00  0.00    +0.000 A 
ATOM     11  C   UNL     1       4.657   5.626  16.689  0.00  0.00    +0.000 A 
BRANCH   4  12
ATOM     12  C   UNL     1       2.804   3.682  19.881  0.00  0.00    +0.000 A 
ATOM     13  C   UNL     1       3.371   2.734  20.722  0.00  0.00    +0.000 A 
ATOM     14  C   UNL     1       2.457   2.236  21.685  0.00  0.00    +0.000 A 
ATOM     15  C   UNL     1       1.217   2.814  21.564  0.00  0.00    +0.000 A 
ATOM     16  S   UNL     1       1.161   3.956  20.297  0.00  0.00    +0.000 S 
ENDBRANCH   4  12
ENDBRANCH   1   2
BRANCH   1  17
ATOM     17  C   UNL     1       1.723   8.160  18.126  0.00  0.00    +0.000 C 
BRANCH  17  19
ATOM     18  N   UNL     1       0.876  10.096  19.624  0.00  0.00    +0.000 N 
ATOM     19  C   UNL     1       1.510   8.817  19.499  0.00  0.00    +0.000 C 
ATOM     20  O   UNL     1       1.837   8.203  20.525  0.00  0.00    +0.000 OA
BRANCH  18  21
ATOM     21  C   UNL     1       0.741  10.549  21.055  0.00  0.00    +0.000 C 
ATOM     22  C   UNL     1      -0.532  10.270  21.887  0.00  0.00    +0.000 C 
ATOM     23  C   UNL     1      -1.460  11.467  21.805  0.00  0.00    +0.000 C 
ATOM     24  S   UNL     1      -0.383  12.876  21.732  0.00  0.00    +0.000 S 
ATOM     25  O   UNL     1      -0.182  13.363  23.082  0.00  0.00    +0.000 OA
ATOM     26  O   UNL     1      -0.841  13.742  20.667  0.00  0.00    +0.000 OA
ATOM     27  C   UNL     1       1.094  12.031  21.214  0.00  0.00    +0.000 C 
ENDBRANCH  18  21
BRANCH  18  28
ATOM     28  C   UNL     1       0.450  11.009  18.513  0.00  0.00    +0.000 C 
ATOM     29  C   UNL     1       1.239  12.326  18.500  0.00  0.00    +0.000 C 
BRANCH  28  31
ATOM     30  C   UNL     1      -2.018  10.207  18.144  0.00  0.00    +0.000 C 
ATOM     31  C   UNL     1      -1.054  11.352  18.381  0.00  0.00    +0.000 C 
ENDBRANCH  28  31
ENDBRANCH  18  28
ENDBRANCH  17  19
ENDBRANCH   1  17
TORSDOF 7
ENDMDL
MODEL 8
REMARK VINA RESULT:      -6.6      2.643      9.197
REMARK  Name = 
REMARK  9 active torsions:
REMARK  status: ('A' for Active; 'I' for Inactive)
REMARK    1  A    between atoms: C_1  and  C_2
REMARK    2  A    between atoms: C_2  and  C_3
REMARK    3  A    between atoms: C_3  and  C_4
REMARK    4  A    between atoms: C_3  and  N_5
REMARK    5  A    between atoms: N_5  and  C_25
REMARK    6  A    between atoms: C_6  and  C_8
REMARK    7  A    between atoms: C_8  and  S_9
REMARK    8  A    between atoms: S_9  and  C_10
REMARK    9  A    between atoms: C_12  and  C_13
REMARK                            x       y       z     vdW  Elec       q    Type
REMARK                         _______ _______ _______ _____ _____    ______ ____
ROOT
ATOM      1  S   UNL     1       1.208   9.261  20.127  0.00  0.00    +0.000 S 
ENDROOT
BRANCH   1   2
ATOM      2  C   UNL     1       0.424  10.771  19.490  0.00  0.00    +0.000 A 
ATOM      3  N   UNL     1      -0.676  10.528  18.761  0.00  0.00    +0.000 NA
ATOM      4  C   UNL     1      -1.321  11.591  18.270  0.00  0.00    +0.000 A 
ATOM      5  N   UNL     1      -0.975  12.870  18.452  0.00  0.00    +0.000 NA
ATOM      6  C   UNL     1       0.111  13.107  19.181  0.00  0.00    +0.000 A 
ATOM      7  C   UNL     1       0.439  14.452  19.357  0.00  0.00    +0.000 A 
ATOM      8  C   UNL     1       1.553  14.834  20.096  0.00  0.00    +0.000 A 
ATOM      9  C   UNL     1       2.356  13.860  20.661  0.00  0.00    +0.000 A 
ATOM     10  C   UNL     1       2.044  12.498  20.489  0.00  0.00    +0.000 A 
ATOM     11  C   UNL     1       0.899  12.094  19.744  0.00  0.00    +0.000 A 
BRANCH   4  12
ATOM     12  C   UNL     1      -2.523  11.374  17.470  0.00  0.00    +0.000 A 
ATOM     13  C   UNL     1      -2.603  10.970  16.144  0.00  0.00    +0.000 A 
ATOM     14  C   UNL     1      -3.939  10.873  15.678  0.00  0.00    +0.000 A 
ATOM     15  C   UNL     1      -4.849  11.199  16.654  0.00  0.00    +0.000 A 
ATOM     16  S   UNL     1      -4.091  11.614  18.126  0.00  0.00    +0.000 S 
ENDBRANCH   4  12
ENDBRANCH   1   2
BRANCH   1  17
ATOM     17  C   UNL     1       1.301   8.217  18.575  0.00  0.00    +0.000 C 
BRANCH  17  19
ATOM     18  N   UNL     1       3.375   6.748  18.079  0.00  0.00    +0.000 N 
ATOM     19  C   UNL     1       2.726   8.025  18.036  0.00  0.00    +0.000 C 
ATOM     20  O   UNL     1       3.308   8.978  17.497  0.00  0.00    +0.000 OA
BRANCH  18  21
ATOM     21  C   UNL     1       4.757   6.768  17.477  0.00  0.00    +0.000 C 
ATOM     22  C   UNL     1       4.986   6.730  15.949  0.00  0.00    +0.000 C 
ATOM     23  C   UNL     1       5.214   5.296  15.508  0.00  0.00    +0.000 C 
ATOM     24  S   UNL     1       6.091   4.539  16.854  0.00  0.00    +0.000 S 
ATOM     25  O   UNL     1       7.511   4.647  16.585  0.00  0.00    +0.000 OA
ATOM     26  O   UNL     1       5.463   3.269  17.146  0.00  0.00    +0.000 OA
ATOM     27  C   UNL     1       5.667   5.715  18.119  0.00  0.00    +0.000 C 
ENDBRANCH  18  21
BRANCH  18  28
ATOM     28  C   UNL     1       2.863   5.493  18.721  0.00  0.00    +0.000 C 
ATOM     29  C   UNL     1       1.882   4.730  17.819  0.00  0.00    +0.000 C 
BRANCH  28  31
ATOM     30  C   UNL     1       2.076   4.313  20.925  0.00  0.00    +0.000 C 
ATOM     31  C   UNL     1       2.234   5.594  20.132  0.00  0.00    +0.000 C 
ENDBRANCH  28  31
ENDBRANCH  18  28
ENDBRANCH  17  19
ENDBRANCH   1  17
TORSDOF 7
ENDMDL
MODEL 9
REMARK VINA RESULT:      -6.6      3.297      8.707
REMARK  Name = 
REMARK  9 active torsions:
REMARK  status: ('A' for Active; 'I' for Inactive)
REMARK    1  A    between atoms: C_1  and  C_2
REMARK    2  A    between atoms: C_2  and  C_3
REMARK    3  A    between atoms: C_3  and  C_4
REMARK    4  A    between atoms: C_3  and  N_5
REMARK    5  A    between atoms: N_5  and  C_25
REMARK    6  A    between atoms: C_6  and  C_8
REMARK    7  A    between atoms: C_8  and  S_9
REMARK    8  A    between atoms: S_9  and  C_10
REMARK    9  A    between atoms: C_12  and  C_13
REMARK                            x       y       z     vdW  Elec       q    Type
REMARK                         _______ _______ _______ _____ _____    ______ ____
ROOT
ATOM      1  S   UNL     1       2.205   8.959  17.830  0.00  0.00    +0.000 S 
ENDROOT
BRANCH   1   2
ATOM      2  C   UNL     1       0.760   9.531  18.770  0.00  0.00    +0.000 A 
ATOM      3  N   UNL     1      -0.259   9.922  17.989  0.00  0.00    +0.000 NA
ATOM      4  C   UNL     1      -1.367  10.340  18.607  0.00  0.00    +0.000 A 
ATOM      5  N   UNL     1      -1.554  10.391  19.931  0.00  0.00    +0.000 NA
ATOM      6  C   UNL     1      -0.546   9.996  20.702  0.00  0.00    +0.000 A 
ATOM      7  C   UNL     1      -0.778  10.056  22.076  0.00  0.00    +0.000 A 
ATOM      8  C   UNL     1       0.197   9.675  22.991  0.00  0.00    +0.000 A 
ATOM      9  C   UNL     1       1.424   9.235  22.528  0.00  0.00    +0.000 A 
ATOM     10  C   UNL     1       1.677   9.174  21.144  0.00  0.00    +0.000 A 
ATOM     11  C   UNL     1       0.683   9.551  20.197  0.00  0.00    +0.000 A 
BRANCH   4  12
ATOM     12  C   UNL     1      -2.500  10.775  17.796  0.00  0.00    +0.000 A 
ATOM     13  C   UNL     1      -3.622  11.483  18.208  0.00  0.00    +0.000 A 
ATOM     14  C   UNL     1      -4.537  11.727  17.152  0.00  0.00    +0.000 A 
ATOM     15  C   UNL     1      -4.096  11.208  15.959  0.00  0.00    +0.000 A 
ATOM     16  S   UNL     1      -2.583  10.435  16.115  0.00  0.00    +0.000 S 
ENDBRANCH   4  12
ENDBRANCH   1   2
BRANCH   1  17
ATOM     17  C   UNL     1       2.176   7.123  18.199  0.00  0.00    +0.000 C 
BRANCH  17  19
ATOM     18  N   UNL     1       3.746   5.098  18.573  0.00  0.00    +0.000 N 
ATOM     19  C   UNL     1       3.558   6.454  18.149  0.00  0.00    +0.000 C 
ATOM     20  O   UNL     1       4.520   7.076  17.676  0.00  0.00    +0.000 OA
BRANCH  18  21
ATOM     21  C   UNL     1       5.168   4.625  18.420  0.00  0.00    +0.000 C 
ATOM     22  C   UNL     1       6.373   5.493  18.851  0.00  0.00    +0.000 C 
ATOM     23  C   UNL     1       6.890   6.267  17.653  0.00  0.00    +0.000 C 
ATOM     24  S   UNL     1       6.652   5.181  16.269  0.00  0.00    +0.000 S 
ATOM     25  O   UNL     1       7.874   4.427  16.071  0.00  0.00    +0.000 OA
ATOM     26  O   UNL     1       6.038   5.937  15.200  0.00  0.00    +0.000 OA
ATOM     27  C   UNL     1       5.441   4.105  17.005  0.00  0.00    +0.000 C 
ENDBRANCH  18  21
BRANCH  18  28
ATOM     28  C   UNL     1       2.728   4.198  19.208  0.00  0.00    +0.000 C 
ATOM     29  C   UNL     1       3.352   3.231  20.225  0.00  0.00    +0.000 C 
BRANCH  28  31
ATOM     30  C   UNL     1       2.360   2.139  17.629  0.00  0.00    +0.000 C 
ATOM     31  C   UNL     1       1.792   3.381  18.284  0.00  0.00    +0.000 C 
ENDBRANCH  28  31
ENDBRANCH  18  28
ENDBRANCH  17  19
ENDBRANCH   1  17
TORSDOF 7
ENDMDL
