MODEL 1
REMARK VINA RESULT:      -7.6      0.000      0.000
REMARK  Name = 
REMARK  13 active torsions:
REMARK  status: ('A' for Active; 'I' for Inactive)
REMARK    1  A    between atoms: C_1  and  O_2
REMARK    2  A    between atoms: O_2  and  C_3
REMARK    3  A    between atoms: C_6  and  O_7
REMARK    4  A    between atoms: O_7  and  C_8
REMARK    5  A    between atoms: C_9  and  C_10
REMARK    6  A    between atoms: C_11  and  C_12
REMARK    7  A    between atoms: C_12  and  C_14
REMARK    8  A    between atoms: C_17  and  O_18
REMARK    9  A    between atoms: O_18  and  C_19
REMARK   10  A    between atoms: C_19  and  C_20
REMARK   11  A    between atoms: C_20  and  N_21
REMARK   12  A    between atoms: C_22  and  N_23
REMARK   13  A    between atoms: C_28  and  C_29
REMARK                            x       y       z     vdW  Elec       q    Type
REMARK                         _______ _______ _______ _____ _____    ______ ____
ROOT
ATOM      1  C   UNL     1       0.903  10.785  19.143  0.00  0.00    +0.000 A 
ATOM      2  C   UNL     1       1.538  10.029  18.170  0.00  0.00    +0.000 A 
ATOM      3  C   UNL     1       1.951   8.742  18.468  0.00  0.00    +0.000 A 
ATOM      4  C   UNL     1       1.789   8.194  19.738  0.00  0.00    +0.000 A 
ATOM      5  C   UNL     1       1.158   8.954  20.721  0.00  0.00    +0.000 A 
ATOM      6  C   UNL     1       0.711  10.250  20.427  0.00  0.00    +0.000 A 
ENDROOT
BRANCH   1   7
ATOM      7  C   UNL     1       0.476  12.141  18.753  0.00  0.00    +0.000 C 
ATOM      8  O   UNL     1       1.299  12.976  18.391  0.00  0.00    +0.000 OA
BRANCH   7  10
ATOM      9  C   UNL     1      -1.779  11.581  18.114  0.00  0.00    +0.000 C 
ATOM     10  C   UNL     1      -0.978  12.409  18.789  0.00  0.00    +0.000 C 
BRANCH   9  15
ATOM     11  C   UNL     1      -5.360  11.997  19.096  0.00  0.00    +0.000 A 
ATOM     12  C   UNL     1      -6.041  11.870  17.888  0.00  0.00    +0.000 A 
ATOM     13  C   UNL     1      -5.338  11.651  16.703  0.00  0.00    +0.000 A 
ATOM     14  C   UNL     1      -3.945  11.529  16.699  0.00  0.00    +0.000 A 
ATOM     15  C   UNL     1      -3.241  11.683  17.915  0.00  0.00    +0.000 A 
ATOM     16  C   UNL     1      -3.970  11.915  19.097  0.00  0.00    +0.000 A 
BRANCH  11  18
ATOM     17  C   UNL     1      -7.157  11.196  20.417  0.00  0.00    +0.000 C 
ATOM     18  O   UNL     1      -6.158  12.185  20.184  0.00  0.00    +0.000 OA
ENDBRANCH  11  18
BRANCH  14  19
ATOM     19  O   UNL     1      -3.245  11.288  15.543  0.00  0.00    +0.000 OA
ATOM     20  C   UNL     1      -3.361   9.973  15.000  0.00  0.00    +0.000 C 
ENDBRANCH  14  19
ENDBRANCH   9  15
ENDBRANCH   7  10
ENDBRANCH   1   7
BRANCH   4  21
ATOM     21  O   UNL     1       2.223   6.947  20.099  0.00  0.00    +0.000 OA
BRANCH  21  22
ATOM     22  C   UNL     1       2.525   6.029  19.035  0.00  0.00    +0.000 C 
BRANCH  22  23
ATOM     23  C   UNL     1       3.729   5.144  19.381  0.00  0.00    +0.000 C 
BRANCH  23  24
ATOM     24  N   UNL     1       3.514   3.756  19.012  0.00  0.00    +0.000 N 
ATOM     25  C   UNL     1       2.817   2.784  19.693  0.00  0.00    +0.000 A 
ATOM     26  C   UNL     1       2.809   1.677  18.886  0.00  0.00    +0.000 A 
ATOM     27  N   UNL     1       3.506   1.923  17.738  0.00  0.00    +0.000 NA
ATOM     28  C   UNL     1       3.947   3.161  17.831  0.00  0.00    +0.000 A 
ATOM     29  C   UNL     1       4.774   3.813  16.782  0.00  0.00    +0.000 C 
BRANCH  25  30
ATOM     30  N   UNL     1       2.204   2.910  20.971  0.00  0.00    +0.000 N 
ATOM     31  O   UNL     1       2.865   2.599  21.966  0.00  0.00    +0.000 OA
ATOM     32  O   UNL     1       1.045   3.337  20.984  0.00  0.00    +0.000 OA
ENDBRANCH  25  30
ENDBRANCH  23  24
ENDBRANCH  22  23
ENDBRANCH  21  22
ENDBRANCH   4  21
TORSDOF 10
ENDMDL
MODEL 2
REMARK VINA RESULT:      -7.6      0.963      1.081
REMARK  Name = 
REMARK  13 active torsions:
REMARK  status: ('A' for Active; 'I' for Inactive)
REMARK    1  A    between atoms: C_1  and  O_2
REMARK    2  A    between atoms: O_2  and  C_3
REMARK    3  A    between atoms: C_6  and  O_7
REMARK    4  A    between atoms: O_7  and  C_8
REMARK    5  A    between atoms: C_9  and  C_10
REMARK    6  A    between atoms: C_11  and  C_12
REMARK    7  A    between atoms: C_12  and  C_14
REMARK    8  A    between atoms: C_17  and  O_18
REMARK    9  A    between atoms: O_18  and  C_19
REMARK   10  A    between atoms: C_19  and  C_20
REMARK   11  A    between atoms: C_20  and  N_21
REMARK   12  A    between atoms: C_22  and  N_23
REMARK   13  A    between atoms: C_28  and  C_29
REMARK                            x       y       z     vdW  Elec       q    Type
REMARK                         _______ _______ _______ _____ _____    ______ ____
ROOT
ATOM      1  C   UNL     1       1.386   9.821  19.091  0.00  0.00    +0.000 A 
ATOM      2  C   UNL     1       1.973   9.373  17.918  0.00  0.00    +0.000 A 
ATOM      3  C   UNL     1       2.453   8.076  17.848  0.00  0.00    +0.000 A 
ATOM      4  C   UNL     1       2.404   7.216  18.941  0.00  0.00    +0.000 A 
ATOM      5  C   UNL     1       1.822   7.665  20.125  0.00  0.00    +0.000 A 
ATOM      6  C   UNL     1       1.308   8.968  20.203  0.00  0.00    +0.000 A 
ENDROOT
BRANCH   1   7
ATOM      7  C   UNL     1       0.883  11.207  19.090  0.00  0.00    +0.000 C 
ATOM      8  O   UNL     1       1.646  12.149  18.894  0.00  0.00    +0.000 OA
BRANCH   7  10
ATOM      9  C   UNL     1      -1.379  11.128  18.266  0.00  0.00    +0.000 C 
ATOM     10  C   UNL     1      -0.571  11.381  19.298  0.00  0.00    +0.000 C 
BRANCH   9  15
ATOM     11  C   UNL     1      -4.745  12.382  19.295  0.00  0.00    +0.000 A 
ATOM     12  C   UNL     1      -5.600  11.819  18.352  0.00  0.00    +0.000 A 
ATOM     13  C   UNL     1      -5.093  11.011  17.334  0.00  0.00    +0.000 A 
ATOM     14  C   UNL     1      -3.725  10.725  17.250  0.00  0.00    +0.000 A 
ATOM     15  C   UNL     1      -2.845  11.314  18.186  0.00  0.00    +0.000 A 
ATOM     16  C   UNL     1      -3.378  12.135  19.197  0.00  0.00    +0.000 A 
BRANCH  11  18
ATOM     17  C   UNL     1      -6.041  12.416  21.280  0.00  0.00    +0.000 C 
ATOM     18  O   UNL     1      -5.364  13.132  20.251  0.00  0.00    +0.000 OA
ENDBRANCH  11  18
BRANCH  14  19
ATOM     19  O   UNL     1      -3.218   9.911  16.268  0.00  0.00    +0.000 OA
ATOM     20  C   UNL     1      -3.257  10.429  14.939  0.00  0.00    +0.000 C 
ENDBRANCH  14  19
ENDBRANCH   9  15
ENDBRANCH   7  10
ENDBRANCH   1   7
BRANCH   4  21
ATOM     21  O   UNL     1       2.907   5.942  18.941  0.00  0.00    +0.000 OA
BRANCH  21  22
ATOM     22  C   UNL     1       4.256   5.775  19.407  0.00  0.00    +0.000 C 
BRANCH  22  23
ATOM     23  C   UNL     1       4.659   4.295  19.447  0.00  0.00    +0.000 C 
BRANCH  23  24
ATOM     24  N   UNL     1       3.594   3.424  18.981  0.00  0.00    +0.000 N 
ATOM     25  C   UNL     1       2.577   2.847  19.705  0.00  0.00    +0.000 A 
ATOM     26  C   UNL     1       1.772   2.208  18.798  0.00  0.00    +0.000 A 
ATOM     27  N   UNL     1       2.276   2.345  17.537  0.00  0.00    +0.000 NA
ATOM     28  C   UNL     1       3.382   3.053  17.656  0.00  0.00    +0.000 A 
ATOM     29  C   UNL     1       4.248   3.412  16.503  0.00  0.00    +0.000 C 
BRANCH  25  30
ATOM     30  N   UNL     1       2.383   2.919  21.113  0.00  0.00    +0.000 N 
ATOM     31  O   UNL     1       3.100   2.220  21.835  0.00  0.00    +0.000 OA
ATOM     32  O   UNL     1       1.506   3.695  21.507  0.00  0.00    +0.000 OA
ENDBRANCH  25  30
ENDBRANCH  23  24
ENDBRANCH  22  23
ENDBRANCH  21  22
ENDBRANCH   4  21
TORSDOF 10
ENDMDL
MODEL 3
REMARK VINA RESULT:      -7.5      2.057      3.055
REMARK  Name = 
REMARK  13 active torsions:
REMARK  status: ('A' for Active; 'I' for Inactive)
REMARK    1  A    between atoms: C_1  and  O_2
REMARK    2  A    between atoms: O_2  and  C_3
REMARK    3  A    between atoms: C_6  and  O_7
REMARK    4  A    between atoms: O_7  and  C_8
REMARK    5  A    between atoms: C_9  and  C_10
REMARK    6  A    between atoms: C_11  and  C_12
REMARK    7  A    between atoms: C_12  and  C_14
REMARK    8  A    between atoms: C_17  and  O_18
REMARK    9  A    between atoms: O_18  and  C_19
REMARK   10  A    between atoms: C_19  and  C_20
REMARK   11  A    between atoms: C_20  and  N_21
REMARK   12  A    between atoms: C_22  and  N_23
REMARK   13  A    between atoms: C_28  and  C_29
REMARK                            x       y       z     vdW  Elec       q    Type
REMARK                         _______ _______ _______ _____ _____    ______ ____
ROOT
ATOM      1  C   UNL     1       1.116   9.729  19.166  0.00  0.00    +0.000 A 
ATOM      2  C   UNL     1       1.211   8.908  20.279  0.00  0.00    +0.000 A 
ATOM      3  C   UNL     1       1.825   7.673  20.163  0.00  0.00    +0.000 A 
ATOM      4  C   UNL     1       2.315   7.207  18.946  0.00  0.00    +0.000 A 
ATOM      5  C   UNL     1       2.214   8.026  17.823  0.00  0.00    +0.000 A 
ATOM      6  C   UNL     1       1.617   9.291  17.930  0.00  0.00    +0.000 A 
ENDROOT
BRANCH   1   7
ATOM      7  C   UNL     1       0.464  11.036  19.364  0.00  0.00    +0.000 C 
ATOM      8  O   UNL     1       0.908  11.840  20.178  0.00  0.00    +0.000 OA
BRANCH   7  10
ATOM      9  C   UNL     1      -1.891  11.483  19.113  0.00  0.00    +0.000 C 
ATOM     10  C   UNL     1      -0.710  11.323  18.510  0.00  0.00    +0.000 C 
BRANCH   9  15
ATOM     11  C   UNL     1      -5.543  12.255  18.973  0.00  0.00    +0.000 A 
ATOM     12  C   UNL     1      -5.858  12.080  17.628  0.00  0.00    +0.000 A 
ATOM     13  C   UNL     1      -4.869  11.709  16.716  0.00  0.00    +0.000 A 
ATOM     14  C   UNL     1      -3.552  11.479  17.129  0.00  0.00    +0.000 A 
ATOM     15  C   UNL     1      -3.216  11.681  18.487  0.00  0.00    +0.000 A 
ATOM     16  C   UNL     1      -4.228  12.067  19.387  0.00  0.00    +0.000 A 
BRANCH  11  18
ATOM     17  C   UNL     1      -7.248  11.527  20.451  0.00  0.00    +0.000 C 
ATOM     18  O   UNL     1      -6.599  12.595  19.767  0.00  0.00    +0.000 OA
ENDBRANCH  11  18
BRANCH  14  19
ATOM     19  O   UNL     1      -2.577  11.089  16.245  0.00  0.00    +0.000 OA
ATOM     20  C   UNL     1      -2.923  10.029  15.355  0.00  0.00    +0.000 C 
ENDBRANCH  14  19
ENDBRANCH   9  15
ENDBRANCH   7  10
ENDBRANCH   1   7
BRANCH   4  21
ATOM     21  O   UNL     1       2.886   5.975  18.767  0.00  0.00    +0.000 OA
BRANCH  21  22
ATOM     22  C   UNL     1       2.181   5.046  17.928  0.00  0.00    +0.000 C 
BRANCH  22  23
ATOM     23  C   UNL     1       3.134   4.028  17.290  0.00  0.00    +0.000 C 
BRANCH  23  24
ATOM     24  N   UNL     1       4.517   4.258  17.669  0.00  0.00    +0.000 N 
ATOM     25  C   UNL     1       5.477   4.994  17.013  0.00  0.00    +0.000 A 
ATOM     26  C   UNL     1       6.582   4.998  17.824  0.00  0.00    +0.000 A 
ATOM     27  N   UNL     1       6.346   4.262  18.950  0.00  0.00    +0.000 NA
ATOM     28  C   UNL     1       5.116   3.801  18.839  0.00  0.00    +0.000 A 
ATOM     29  C   UNL     1       4.477   2.930  19.860  0.00  0.00    +0.000 C 
BRANCH  25  30
ATOM     30  N   UNL     1       5.343   5.642  15.754  0.00  0.00    +0.000 N 
ATOM     31  O   UNL     1       5.139   6.860  15.745  0.00  0.00    +0.000 OA
ATOM     32  O   UNL     1       5.453   4.926  14.753  0.00  0.00    +0.000 OA
ENDBRANCH  25  30
ENDBRANCH  23  24
ENDBRANCH  22  23
ENDBRANCH  21  22
ENDBRANCH   4  21
TORSDOF 10
ENDMDL
MODEL 4
REMARK VINA RESULT:      -7.4      3.373      4.682
REMARK  Name = 
REMARK  13 active torsions:
REMARK  status: ('A' for Active; 'I' for Inactive)
REMARK    1  A    between atoms: C_1  and  O_2
REMARK    2  A    between atoms: O_2  and  C_3
REMARK    3  A    between atoms: C_6  and  O_7
REMARK    4  A    between atoms: O_7  and  C_8
REMARK    5  A    between atoms: C_9  and  C_10
REMARK    6  A    between atoms: C_11  and  C_12
REMARK    7  A    between atoms: C_12  and  C_14
REMARK    8  A    between atoms: C_17  and  O_18
REMARK    9  A    between atoms: O_18  and  C_19
REMARK   10  A    between atoms: C_19  and  C_20
REMARK   11  A    between atoms: C_20  and  N_21
REMARK   12  A    between atoms: C_22  and  N_23
REMARK   13  A    between atoms: C_28  and  C_29
REMARK                            x       y       z     vdW  Elec       q    Type
REMARK                         _______ _______ _______ _____ _____    ______ ____
ROOT
ATOM      1  C   UNL     1       0.780   9.405  21.270  0.00  0.00    +0.000 A 
ATOM      2  C   UNL     1       0.714  10.108  20.076  0.00  0.00    +0.000 A 
ATOM      3  C   UNL     1       1.238   9.545  18.925  0.00  0.00    +0.000 A 
ATOM      4  C   UNL     1       1.874   8.306  18.936  0.00  0.00    +0.000 A 
ATOM      5  C   UNL     1       1.949   7.601  20.136  0.00  0.00    +0.000 A 
ATOM      6  C   UNL     1       1.400   8.146  21.306  0.00  0.00    +0.000 A 
ENDROOT
BRANCH   1   7
ATOM      7  C   UNL     1       0.188  10.057  22.452  0.00  0.00    +0.000 C 
ATOM      8  O   UNL     1       0.334   9.574  23.571  0.00  0.00    +0.000 OA
BRANCH   7  10
ATOM      9  C   UNL     1      -1.504  11.654  23.076  0.00  0.00    +0.000 C 
ATOM     10  C   UNL     1      -0.542  11.320  22.212  0.00  0.00    +0.000 C 
BRANCH   9  15
ATOM     11  C   UNL     1      -4.606  13.513  22.139  0.00  0.00    +0.000 A 
ATOM     12  C   UNL     1      -4.387  14.787  22.656  0.00  0.00    +0.000 A 
ATOM     13  C   UNL     1      -3.208  15.074  23.343  0.00  0.00    +0.000 A 
ATOM     14  C   UNL     1      -2.210  14.106  23.507  0.00  0.00    +0.000 A 
ATOM     15  C   UNL     1      -2.435  12.802  23.009  0.00  0.00    +0.000 A 
ATOM     16  C   UNL     1      -3.637  12.532  22.330  0.00  0.00    +0.000 A 
BRANCH  11  18
ATOM     17  C   UNL     1      -5.998  14.229  20.358  0.00  0.00    +0.000 C 
ATOM     18  O   UNL     1      -5.785  13.364  21.470  0.00  0.00    +0.000 OA
ENDBRANCH  11  18
BRANCH  14  19
ATOM     19  O   UNL     1      -1.035  14.385  24.159  0.00  0.00    +0.000 OA
ATOM     20  C   UNL     1      -0.839  15.744  24.549  0.00  0.00    +0.000 C 
ENDBRANCH  14  19
ENDBRANCH   9  15
ENDBRANCH   7  10
ENDBRANCH   1   7
BRANCH   4  21
ATOM     21  O   UNL     1       2.452   7.728  17.838  0.00  0.00    +0.000 OA
BRANCH  21  22
ATOM     22  C   UNL     1       3.821   7.312  17.965  0.00  0.00    +0.000 C 
BRANCH  22  23
ATOM     23  C   UNL     1       4.088   6.009  17.200  0.00  0.00    +0.000 C 
BRANCH  23  24
ATOM     24  N   UNL     1       4.045   4.845  18.067  0.00  0.00    +0.000 N 
ATOM     25  C   UNL     1       5.057   4.299  18.822  0.00  0.00    +0.000 A 
ATOM     26  C   UNL     1       4.492   3.282  19.548  0.00  0.00    +0.000 A 
ATOM     27  N   UNL     1       3.167   3.161  19.242  0.00  0.00    +0.000 NA
ATOM     28  C   UNL     1       2.911   4.084  18.336  0.00  0.00    +0.000 A 
ATOM     29  C   UNL     1       1.571   4.275  17.723  0.00  0.00    +0.000 C 
BRANCH  25  30
ATOM     30  N   UNL     1       6.415   4.720  18.863  0.00  0.00    +0.000 N 
ATOM     31  O   UNL     1       6.774   5.438  19.801  0.00  0.00    +0.000 OA
ATOM     32  O   UNL     1       7.142   4.321  17.947  0.00  0.00    +0.000 OA
ENDBRANCH  25  30
ENDBRANCH  23  24
ENDBRANCH  22  23
ENDBRANCH  21  22
ENDBRANCH   4  21
TORSDOF 10
ENDMDL
MODEL 5
REMARK VINA RESULT:      -7.4      0.860      1.340
REMARK  Name = 
REMARK  13 active torsions:
REMARK  status: ('A' for Active; 'I' for Inactive)
REMARK    1  A    between atoms: C_1  and  O_2
REMARK    2  A    between atoms: O_2  and  C_3
REMARK    3  A    between atoms: C_6  and  O_7
REMARK    4  A    between atoms: O_7  and  C_8
REMARK    5  A    between atoms: C_9  and  C_10
REMARK    6  A    between atoms: C_11  and  C_12
REMARK    7  A    between atoms: C_12  and  C_14
REMARK    8  A    between atoms: C_17  and  O_18
REMARK    9  A    between atoms: O_18  and  C_19
REMARK   10  A    between atoms: C_19  and  C_20
REMARK   11  A    between atoms: C_20  and  N_21
REMARK   12  A    between atoms: C_22  and  N_23
REMARK   13  A    between atoms: C_28  and  C_29
REMARK                            x       y       z     vdW  Elec       q    Type
REMARK                         _______ _______ _______ _____ _____    ______ ____
ROOT
ATOM      1  C   UNL     1       1.289  10.059  19.153  0.00  0.00    +0.000 A 
ATOM      2  C   UNL     1       1.069   9.395  20.350  0.00  0.00    +0.000 A 
ATOM      3  C   UNL     1       1.524   8.097  20.503  0.00  0.00    +0.000 A 
ATOM      4  C   UNL     1       2.161   7.415  19.470  0.00  0.00    +0.000 A 
ATOM      5  C   UNL     1       2.377   8.076  18.262  0.00  0.00    +0.000 A 
ATOM      6  C   UNL     1       1.945   9.400  18.100  0.00  0.00    +0.000 A 
ENDROOT
BRANCH   1   7
ATOM      7  C   UNL     1       0.792  11.444  19.064  0.00  0.00    +0.000 C 
ATOM      8  O   UNL     1       1.434  12.371  19.548  0.00  0.00    +0.000 OA
BRANCH   7  10
ATOM      9  C   UNL     1      -1.613  11.590  19.048  0.00  0.00    +0.000 C 
ATOM     10  C   UNL     1      -0.482  11.641  18.340  0.00  0.00    +0.000 C 
BRANCH   9  15
ATOM     11  C   UNL     1      -5.262  12.385  19.155  0.00  0.00    +0.000 A 
ATOM     12  C   UNL     1      -5.733  11.898  17.939  0.00  0.00    +0.000 A 
ATOM     13  C   UNL     1      -4.858  11.296  17.034  0.00  0.00    +0.000 A 
ATOM     14  C   UNL     1      -3.499  11.144  17.333  0.00  0.00    +0.000 A 
ATOM     15  C   UNL     1      -3.005  11.660  18.553  0.00  0.00    +0.000 A 
ATOM     16  C   UNL     1      -3.905  12.274  19.445  0.00  0.00    +0.000 A 
BRANCH  11  18
ATOM     17  C   UNL     1      -7.572  12.684  19.593  0.00  0.00    +0.000 C 
ATOM     18  O   UNL     1      -6.218  12.929  19.961  0.00  0.00    +0.000 OA
ENDBRANCH  11  18
BRANCH  14  19
ATOM     19  O   UNL     1      -2.634  10.531  16.462  0.00  0.00    +0.000 OA
ATOM     20  C   UNL     1      -3.021  10.528  15.088  0.00  0.00    +0.000 C 
ENDBRANCH  14  19
ENDBRANCH   9  15
ENDBRANCH   7  10
ENDBRANCH   1   7
BRANCH   4  21
ATOM     21  O   UNL     1       2.586   6.116  19.552  0.00  0.00    +0.000 OA
BRANCH  21  22
ATOM     22  C   UNL     1       3.975   5.867  19.286  0.00  0.00    +0.000 C 
BRANCH  22  23
ATOM     23  C   UNL     1       4.365   4.424  19.630  0.00  0.00    +0.000 C 
BRANCH  23  24
ATOM     24  N   UNL     1       3.449   3.456  19.054  0.00  0.00    +0.000 N 
ATOM     25  C   UNL     1       2.452   2.740  19.676  0.00  0.00    +0.000 A 
ATOM     26  C   UNL     1       1.801   2.048  18.688  0.00  0.00    +0.000 A 
ATOM     27  N   UNL     1       2.383   2.288  17.477  0.00  0.00    +0.000 NA
ATOM     28  C   UNL     1       3.386   3.113  17.707  0.00  0.00    +0.000 A 
ATOM     29  C   UNL     1       4.293   3.610  16.639  0.00  0.00    +0.000 C 
BRANCH  25  30
ATOM     30  N   UNL     1       2.142   2.737  21.064  0.00  0.00    +0.000 N 
ATOM     31  O   UNL     1       1.036   3.160  21.413  0.00  0.00    +0.000 OA
ATOM     32  O   UNL     1       3.014   2.297  21.821  0.00  0.00    +0.000 OA
ENDBRANCH  25  30
ENDBRANCH  23  24
ENDBRANCH  22  23
ENDBRANCH  21  22
ENDBRANCH   4  21
TORSDOF 10
ENDMDL
MODEL 6
REMARK VINA RESULT:      -7.4      4.579     10.645
REMARK  Name = 
REMARK  13 active torsions:
REMARK  status: ('A' for Active; 'I' for Inactive)
REMARK    1  A    between atoms: C_1  and  O_2
REMARK    2  A    between atoms: O_2  and  C_3
REMARK    3  A    between atoms: C_6  and  O_7
REMARK    4  A    between atoms: O_7  and  C_8
REMARK    5  A    between atoms: C_9  and  C_10
REMARK    6  A    between atoms: C_11  and  C_12
REMARK    7  A    between atoms: C_12  and  C_14
REMARK    8  A    between atoms: C_17  and  O_18
REMARK    9  A    between atoms: O_18  and  C_19
REMARK   10  A    between atoms: C_19  and  C_20
REMARK   11  A    between atoms: C_20  and  N_21
REMARK   12  A    between atoms: C_22  and  N_23
REMARK   13  A    between atoms: C_28  and  C_29
REMARK                            x       y       z     vdW  Elec       q    Type
REMARK                         _______ _______ _______ _____ _____    ______ ____
ROOT
ATOM      1  C   UNL     1       1.969   8.072  19.046  0.00  0.00    +0.000 A 
ATOM      2  C   UNL     1       1.932   8.925  17.953  0.00  0.00    +0.000 A 
ATOM      3  C   UNL     1       1.262  10.132  18.054  0.00  0.00    +0.000 A 
ATOM      4  C   UNL     1       0.582  10.500  19.211  0.00  0.00    +0.000 A 
ATOM      5  C   UNL     1       0.610   9.642  20.309  0.00  0.00    +0.000 A 
ATOM      6  C   UNL     1       1.306   8.427  20.231  0.00  0.00    +0.000 A 
ENDROOT
BRANCH   1   7
ATOM      7  C   UNL     1       2.713   6.811  18.874  0.00  0.00    +0.000 C 
ATOM      8  O   UNL     1       2.449   5.831  19.562  0.00  0.00    +0.000 OA
BRANCH   7  10
ATOM      9  C   UNL     1       4.150   5.607  17.360  0.00  0.00    +0.000 C 
ATOM     10  C   UNL     1       3.748   6.795  17.817  0.00  0.00    +0.000 C 
BRANCH   9  15
ATOM     11  C   UNL     1       5.685   4.236  14.242  0.00  0.00    +0.000 A 
ATOM     12  C   UNL     1       7.031   4.566  14.375  0.00  0.00    +0.000 A 
ATOM     13  C   UNL     1       7.478   5.263  15.497  0.00  0.00    +0.000 A 
ATOM     14  C   UNL     1       6.599   5.623  16.524  0.00  0.00    +0.000 A 
ATOM     15  C   UNL     1       5.225   5.318  16.387  0.00  0.00    +0.000 A 
ATOM     16  C   UNL     1       4.795   4.624  15.240  0.00  0.00    +0.000 A 
BRANCH  11  18
ATOM     17  C   UNL     1       6.420   3.388  12.155  0.00  0.00    +0.000 C 
ATOM     18  O   UNL     1       5.377   3.536  13.114  0.00  0.00    +0.000 OA
ENDBRANCH  11  18
BRANCH  14  19
ATOM     19  O   UNL     1       7.032   6.287  17.645  0.00  0.00    +0.000 OA
ATOM     20  C   UNL     1       7.654   5.485  18.649  0.00  0.00    +0.000 C 
ENDBRANCH  14  19
ENDBRANCH   9  15
ENDBRANCH   7  10
ENDBRANCH   1   7
BRANCH   4  21
ATOM     21  O   UNL     1      -0.137  11.658  19.346  0.00  0.00    +0.000 OA
BRANCH  21  22
ATOM     22  C   UNL     1      -1.540  11.526  19.625  0.00  0.00    +0.000 C 
BRANCH  22  23
ATOM     23  C   UNL     1      -2.135  12.836  20.157  0.00  0.00    +0.000 C 
BRANCH  23  24
ATOM     24  N   UNL     1      -2.880  12.641  21.388  0.00  0.00    +0.000 N 
ATOM     25  C   UNL     1      -2.400  12.462  22.664  0.00  0.00    +0.000 A 
ATOM     26  C   UNL     1      -3.495  12.434  23.488  0.00  0.00    +0.000 A 
ATOM     27  N   UNL     1      -4.641  12.559  22.758  0.00  0.00    +0.000 NA
ATOM     28  C   UNL     1      -4.268  12.657  21.498  0.00  0.00    +0.000 A 
ATOM     29  C   UNL     1      -5.228  12.792  20.372  0.00  0.00    +0.000 C 
BRANCH  25  30
ATOM     30  N   UNL     1      -1.036  12.352  23.056  0.00  0.00    +0.000 N 
ATOM     31  O   UNL     1      -0.411  13.393  23.281  0.00  0.00    +0.000 OA
ATOM     32  O   UNL     1      -0.582  11.207  23.150  0.00  0.00    +0.000 OA
ENDBRANCH  25  30
ENDBRANCH  23  24
ENDBRANCH  22  23
ENDBRANCH  21  22
ENDBRANCH   4  21
TORSDOF 10
ENDMDL
MODEL 7
REMARK VINA RESULT:      -7.4      1.505      2.924
REMARK  Name = 
REMARK  13 active torsions:
REMARK  status: ('A' for Active; 'I' for Inactive)
REMARK    1  A    between atoms: C_1  and  O_2
REMARK    2  A    between atoms: O_2  and  C_3
REMARK    3  A    between atoms: C_6  and  O_7
REMARK    4  A    between atoms: O_7  and  C_8
REMARK    5  A    between atoms: C_9  and  C_10
REMARK    6  A    between atoms: C_11  and  C_12
REMARK    7  A    between atoms: C_12  and  C_14
REMARK    8  A    between atoms: C_17  and  O_18
REMARK    9  A    between atoms: O_18  and  C_19
REMARK   10  A    between atoms: C_19  and  C_20
REMARK   11  A    between atoms: C_20  and  N_21
REMARK   12  A    between atoms: C_22  and  N_23
REMARK   13  A    between atoms: C_28  and  C_29
REMARK                            x       y       z     vdW  Elec       q    Type
REMARK                         _______ _______ _______ _____ _____    ______ ____
ROOT
ATOM      1  C   UNL     1       0.668  10.334  20.638  0.00  0.00    +0.000 A 
ATOM      2  C   UNL     1       0.723   9.341  21.604  0.00  0.00    +0.000 A 
ATOM      3  C   UNL     1       1.316   8.128  21.300  0.00  0.00    +0.000 A 
ATOM      4  C   UNL     1       1.823   7.855  20.033  0.00  0.00    +0.000 A 
ATOM      5  C   UNL     1       1.762   8.847  19.057  0.00  0.00    +0.000 A 
ATOM      6  C   UNL     1       1.187  10.091  19.357  0.00  0.00    +0.000 A 
ENDROOT
BRANCH   1   7
ATOM      7  C   UNL     1       0.036  11.606  21.034  0.00  0.00    +0.000 C 
ATOM      8  O   UNL     1       0.662  12.440  21.681  0.00  0.00    +0.000 OA
BRANCH   7  10
ATOM      9  C   UNL     1      -1.689  11.366  19.369  0.00  0.00    +0.000 C 
ATOM     10  C   UNL     1      -1.355  11.820  20.580  0.00  0.00    +0.000 C 
BRANCH   9  15
ATOM     11  C   UNL     1      -4.091  11.114  16.518  0.00  0.00    +0.000 A 
ATOM     12  C   UNL     1      -5.234  11.743  17.004  0.00  0.00    +0.000 A 
ATOM     13  C   UNL     1      -5.254  12.266  18.298  0.00  0.00    +0.000 A 
ATOM     14  C   UNL     1      -4.129  12.195  19.126  0.00  0.00    +0.000 A 
ATOM     15  C   UNL     1      -2.972  11.534  18.652  0.00  0.00    +0.000 A 
ATOM     16  C   UNL     1      -2.978  11.004  17.348  0.00  0.00    +0.000 A 
BRANCH  11  18
ATOM     17  C   UNL     1      -2.995  10.151  14.650  0.00  0.00    +0.000 C 
ATOM     18  O   UNL     1      -4.188  10.667  15.234  0.00  0.00    +0.000 OA
ENDBRANCH  11  18
BRANCH  14  19
ATOM     19  O   UNL     1      -4.129  12.728  20.390  0.00  0.00    +0.000 OA
ATOM     20  C   UNL     1      -5.314  12.522  21.159  0.00  0.00    +0.000 C 
ENDBRANCH  14  19
ENDBRANCH   9  15
ENDBRANCH   7  10
ENDBRANCH   1   7
BRANCH   4  21
ATOM     21  O   UNL     1       2.375   6.656  19.666  0.00  0.00    +0.000 OA
BRANCH  21  22
ATOM     22  C   UNL     1       3.036   6.606  18.392  0.00  0.00    +0.000 C 
BRANCH  22  23
ATOM     23  C   UNL     1       2.986   5.198  17.786  0.00  0.00    +0.000 C 
BRANCH  23  24
ATOM     24  N   UNL     1       3.444   4.183  18.719  0.00  0.00    +0.000 N 
ATOM     25  C   UNL     1       2.696   3.302  19.465  0.00  0.00    +0.000 A 
ATOM     26  C   UNL     1       3.589   2.478  20.099  0.00  0.00    +0.000 A 
ATOM     27  N   UNL     1       4.869   2.841  19.793  0.00  0.00    +0.000 NA
ATOM     28  C   UNL     1       4.776   3.879  18.985  0.00  0.00    +0.000 A 
ATOM     29  C   UNL     1       5.958   4.589  18.432  0.00  0.00    +0.000 C 
BRANCH  25  30
ATOM     30  N   UNL     1       1.277   3.241  19.545  0.00  0.00    +0.000 N 
ATOM     31  O   UNL     1       0.707   3.981  20.353  0.00  0.00    +0.000 OA
ATOM     32  O   UNL     1       0.718   2.447  18.781  0.00  0.00    +0.000 OA
ENDBRANCH  25  30
ENDBRANCH  23  24
ENDBRANCH  22  23
ENDBRANCH  21  22
ENDBRANCH   4  21
TORSDOF 10
ENDMDL
MODEL 8
REMARK VINA RESULT:      -7.4      4.908     10.268
REMARK  Name = 
REMARK  13 active torsions:
REMARK  status: ('A' for Active; 'I' for Inactive)
REMARK    1  A    between atoms: C_1  and  O_2
REMARK    2  A    between atoms: O_2  and  C_3
REMARK    3  A    between atoms: C_6  and  O_7
REMARK    4  A    between atoms: O_7  and  C_8
REMARK    5  A    between atoms: C_9  and  C_10
REMARK    6  A    between atoms: C_11  and  C_12
REMARK    7  A    between atoms: C_12  and  C_14
REMARK    8  A    between atoms: C_17  and  O_18
REMARK    9  A    between atoms: O_18  and  C_19
REMARK   10  A    between atoms: C_19  and  C_20
REMARK   11  A    between atoms: C_20  and  N_21
REMARK   12  A    between atoms: C_22  and  N_23
REMARK   13  A    between atoms: C_28  and  C_29
REMARK                            x       y       z     vdW  Elec       q    Type
REMARK                         _______ _______ _______ _____ _____    ______ ____
ROOT
ATOM      1  C   UNL     1       0.942   9.727  19.491  0.00  0.00    +0.000 A 
ATOM      2  C   UNL     1       1.049   8.916  20.610  0.00  0.00    +0.000 A 
ATOM      3  C   UNL     1       0.340   9.238  21.755  0.00  0.00    +0.000 A 
ATOM      4  C   UNL     1      -0.447  10.383  21.834  0.00  0.00    +0.000 A 
ATOM      5  C   UNL     1      -0.551  11.206  20.713  0.00  0.00    +0.000 A 
ATOM      6  C   UNL     1       0.140  10.879  19.538  0.00  0.00    +0.000 A 
ENDROOT
BRANCH   1   7
ATOM      7  C   UNL     1       1.711   9.317  18.302  0.00  0.00    +0.000 C 
ATOM      8  O   UNL     1       2.292  10.151  17.615  0.00  0.00    +0.000 OA
BRANCH   7  10
ATOM      9  C   UNL     1       2.929   7.240  18.218  0.00  0.00    +0.000 C 
ATOM     10  C   UNL     1       1.766   7.866  18.021  0.00  0.00    +0.000 C 
BRANCH   9  15
ATOM     11  C   UNL     1       2.746   3.522  18.542  0.00  0.00    +0.000 A 
ATOM     12  C   UNL     1       3.713   3.073  17.646  0.00  0.00    +0.000 A 
ATOM     13  C   UNL     1       4.454   3.986  16.894  0.00  0.00    +0.000 A 
ATOM     14  C   UNL     1       4.266   5.365  17.037  0.00  0.00    +0.000 A 
ATOM     15  C   UNL     1       3.268   5.830  17.925  0.00  0.00    +0.000 A 
ATOM     16  C   UNL     1       2.525   4.891  18.664  0.00  0.00    +0.000 A 
BRANCH  11  18
ATOM     17  C   UNL     1       0.741   2.311  18.899  0.00  0.00    +0.000 C 
ATOM     18  O   UNL     1       2.107   2.536  19.233  0.00  0.00    +0.000 OA
ENDBRANCH  11  18
BRANCH  14  19
ATOM     19  O   UNL     1       5.007   6.272  16.322  0.00  0.00    +0.000 OA
ATOM     20  C   UNL     1       5.768   5.745  15.236  0.00  0.00    +0.000 C 
ENDBRANCH  14  19
ENDBRANCH   9  15
ENDBRANCH   7  10
ENDBRANCH   1   7
BRANCH   4  21
ATOM     21  O   UNL     1      -1.128  10.773  22.955  0.00  0.00    +0.000 OA
BRANCH  21  22
ATOM     22  C   UNL     1      -1.694  12.094  22.949  0.00  0.00    +0.000 C 
BRANCH  22  23
ATOM     23  C   UNL     1      -3.058  12.127  23.649  0.00  0.00    +0.000 C 
BRANCH  23  24
ATOM     24  N   UNL     1      -3.810  13.328  23.330  0.00  0.00    +0.000 N 
ATOM     25  C   UNL     1      -4.707  13.533  22.307  0.00  0.00    +0.000 A 
ATOM     26  C   UNL     1      -5.228  14.787  22.497  0.00  0.00    +0.000 A 
ATOM     27  N   UNL     1      -4.659  15.377  23.589  0.00  0.00    +0.000 NA
ATOM     28  C   UNL     1      -3.792  14.507  24.068  0.00  0.00    +0.000 A 
ATOM     29  C   UNL     1      -2.942  14.775  25.258  0.00  0.00    +0.000 C 
BRANCH  25  30
ATOM     30  N   UNL     1      -5.046  12.619  21.271  0.00  0.00    +0.000 N 
ATOM     31  O   UNL     1      -6.031  11.894  21.436  0.00  0.00    +0.000 OA
ATOM     32  O   UNL     1      -4.321  12.629  20.271  0.00  0.00    +0.000 OA
ENDBRANCH  25  30
ENDBRANCH  23  24
ENDBRANCH  22  23
ENDBRANCH  21  22
ENDBRANCH   4  21
TORSDOF 10
ENDMDL
MODEL 9
REMARK VINA RESULT:      -7.3      1.839      3.308
REMARK  Name = 
REMARK  13 active torsions:
REMARK  status: ('A' for Active; 'I' for Inactive)
REMARK    1  A    between atoms: C_1  and  O_2
REMARK    2  A    between atoms: O_2  and  C_3
REMARK    3  A    between atoms: C_6  and  O_7
REMARK    4  A    between atoms: O_7  and  C_8
REMARK    5  A    between atoms: C_9  and  C_10
REMARK    6  A    between atoms: C_11  and  C_12
REMARK    7  A    between atoms: C_12  and  C_14
REMARK    8  A    between atoms: C_17  and  O_18
REMARK    9  A    between atoms: O_18  and  C_19
REMARK   10  A    between atoms: C_19  and  C_20
REMARK   11  A    between atoms: C_20  and  N_21
REMARK   12  A    between atoms: C_22  and  N_23
REMARK   13  A    between atoms: C_28  and  C_29
REMARK                            x       y       z     vdW  Elec       q    Type
REMARK                         _______ _______ _______ _____ _____    ______ ____
ROOT
ATOM      1  C   UNL     1       0.852  10.446  20.350  0.00  0.00    +0.000 A 
ATOM      2  C   UNL     1       0.897   9.628  21.468  0.00  0.00    +0.000 A 
ATOM      3  C   UNL     1       1.398   8.342  21.351  0.00  0.00    +0.000 A 
ATOM      4  C   UNL     1       1.819   7.826  20.129  0.00  0.00    +0.000 A 
ATOM      5  C   UNL     1       1.768   8.642  19.001  0.00  0.00    +0.000 A 
ATOM      6  C   UNL     1       1.287   9.956  19.108  0.00  0.00    +0.000 A 
ENDROOT
BRANCH   1   7
ATOM      7  C   UNL     1       0.322  11.807  20.548  0.00  0.00    +0.000 C 
ATOM      8  O   UNL     1       0.820  12.556  21.383  0.00  0.00    +0.000 OA
BRANCH   7  10
ATOM      9  C   UNL     1      -1.983  11.632  19.869  0.00  0.00    +0.000 C 
ATOM     10  C   UNL     1      -0.797  12.213  19.671  0.00  0.00    +0.000 C 
BRANCH   9  15
ATOM     11  C   UNL     1      -4.218  11.333  16.891  0.00  0.00    +0.000 A 
ATOM     12  C   UNL     1      -5.385  11.973  17.299  0.00  0.00    +0.000 A 
ATOM     13  C   UNL     1      -5.478  12.520  18.579  0.00  0.00    +0.000 A 
ATOM     14  C   UNL     1      -4.401  12.462  19.471  0.00  0.00    +0.000 A 
ATOM     15  C   UNL     1      -3.222  11.790  19.076  0.00  0.00    +0.000 A 
ATOM     16  C   UNL     1      -3.155  11.237  17.784  0.00  0.00    +0.000 A 
BRANCH  11  18
ATOM     17  C   UNL     1      -2.986  10.520  15.036  0.00  0.00    +0.000 C 
ATOM     18  O   UNL     1      -4.243  10.863  15.611  0.00  0.00    +0.000 OA
ENDBRANCH  11  18
BRANCH  14  19
ATOM     19  O   UNL     1      -4.472  13.018  20.724  0.00  0.00    +0.000 OA
ATOM     20  C   UNL     1      -5.587  12.625  21.524  0.00  0.00    +0.000 C 
ENDBRANCH  14  19
ENDBRANCH   9  15
ENDBRANCH   7  10
ENDBRANCH   1   7
BRANCH   4  21
ATOM     21  O   UNL     1       2.275   6.548  19.950  0.00  0.00    +0.000 OA
BRANCH  21  22
ATOM     22  C   UNL     1       3.113   6.308  18.807  0.00  0.00    +0.000 C 
BRANCH  22  23
ATOM     23  C   UNL     1       4.335   5.457  19.173  0.00  0.00    +0.000 C 
BRANCH  23  24
ATOM     24  N   UNL     1       4.969   4.876  18.003  0.00  0.00    +0.000 N 
ATOM     25  C   UNL     1       4.546   3.818  17.233  0.00  0.00    +0.000 A 
ATOM     26  C   UNL     1       5.425   3.726  16.185  0.00  0.00    +0.000 A 
ATOM     27  N   UNL     1       6.399   4.676  16.300  0.00  0.00    +0.000 NA
ATOM     28  C   UNL     1       6.135   5.345  17.404  0.00  0.00    +0.000 A 
ATOM     29  C   UNL     1       6.977   6.464  17.901  0.00  0.00    +0.000 C 
BRANCH  25  30
ATOM     30  N   UNL     1       3.407   2.996  17.462  0.00  0.00    +0.000 N 
ATOM     31  O   UNL     1       3.550   1.984  18.154  0.00  0.00    +0.000 OA
ATOM     32  O   UNL     1       2.347   3.372  16.950  0.00  0.00    +0.000 OA
ENDBRANCH  25  30
ENDBRANCH  23  24
ENDBRANCH  22  23
ENDBRANCH  21  22
ENDBRANCH   4  21
TORSDOF 10
ENDMDL
