MODEL 1
REMARK VINA RESULT:      -6.8      0.000      0.000
REMARK  Name = 
REMARK  8 active torsions:
REMARK  status: ('A' for Active; 'I' for Inactive)
REMARK    1  A    between atoms: C_1  and  N_2
REMARK    2  A    between atoms: N_2  and  C_3
REMARK    3  A    between atoms: N_2  and  C_4
REMARK    4  A    between atoms: C_4  and  C_5
REMARK    5  A    between atoms: C_4  and  C_20
REMARK    6  A    between atoms: N_10  and  C_11
REMARK    7  A    between atoms: C_11  and  C_12
REMARK    8  A    between atoms: C_12  and  N_13
REMARK                            x       y       z     vdW  Elec       q    Type
REMARK                         _______ _______ _______ _____ _____    ______ ____
ROOT
ATOM      1  C   UNL     1       3.211   5.689  19.127  0.00  0.00    +0.000 C 
ATOM      2  O   UNL     1       3.399   5.020  20.167  0.00  0.00    +0.000 OA
ATOM      3  N   UNL     1       2.269   6.712  19.138  0.00  0.00    +0.000 N 
ATOM      4  C   UNL     1       1.627   7.127  20.394  0.00  0.00    +0.000 C 
ATOM      5  C   UNL     1       1.765   8.658  20.607  0.00  0.00    +0.000 C 
ATOM      6  N   UNL     1       1.396   9.514  19.453  0.00  0.00    +0.000 NA
ATOM      7  C   UNL     1       2.069   8.983  18.237  0.00  0.00    +0.000 C 
ATOM      8  C   UNL     1       1.825   7.488  17.991  0.00  0.00    +0.000 C 
ENDROOT
BRANCH   1   9
ATOM      9  C   UNL     1       4.119   5.354  17.876  0.00  0.00    +0.000 C 
BRANCH   9  10
ATOM     10  C   UNL     1       5.533   5.936  18.047  0.00  0.00    +0.000 A 
ATOM     11  C   UNL     1       5.923   7.055  17.287  0.00  0.00    +0.000 A 
ATOM     12  C   UNL     1       7.196   7.621  17.437  0.00  0.00    +0.000 A 
ATOM     13  C   UNL     1       8.099   7.076  18.348  0.00  0.00    +0.000 A 
ATOM     14  C   UNL     1       7.735   5.959  19.081  0.00  0.00    +0.000 A 
ATOM     15  F   UNL     1       8.604   5.417  19.943  0.00  0.00    +0.000 F 
ATOM     16  C   UNL     1       6.478   5.388  18.932  0.00  0.00    +0.000 A 
ENDBRANCH   9  10
BRANCH   9  18
ATOM     17  C   UNL     1       2.693   3.457  17.187  0.00  0.00    +0.000 C 
ATOM     18  N   UNL     1       4.069   3.907  17.472  0.00  0.00    +0.000 NA
ATOM     19  C   UNL     1       4.856   3.660  16.245  0.00  0.00    +0.000 C 
ENDBRANCH   9  18
ENDBRANCH   1   9
BRANCH   6  20
ATOM     20  C   UNL     1      -0.060   9.623  19.230  0.00  0.00    +0.000 C 
BRANCH  20  21
ATOM     21  C   UNL     1      -0.525  10.968  18.653  0.00  0.00    +0.000 C 
BRANCH  21  22
ATOM     22  N   UNL     1      -1.738  10.801  17.865  0.00  0.00    +0.000 N 
ATOM     23  C   UNL     1      -1.919   9.849  16.895  0.00  0.00    +0.000 A 
ATOM     24  C   UNL     1      -3.166  10.039  16.348  0.00  0.00    +0.000 A 
ATOM     25  C   UNL     1      -3.764  11.133  17.016  0.00  0.00    +0.000 A 
ATOM     26  C   UNL     1      -2.860  11.582  17.957  0.00  0.00    +0.000 A 
ENDBRANCH  21  22
ENDBRANCH  20  21
ENDBRANCH   6  20
TORSDOF 6
ENDMDL
MODEL 2
REMARK VINA RESULT:      -6.6      3.610      7.848
REMARK  Name = 
REMARK  8 active torsions:
REMARK  status: ('A' for Active; 'I' for Inactive)
REMARK    1  A    between atoms: C_1  and  N_2
REMARK    2  A    between atoms: N_2  and  C_3
REMARK    3  A    between atoms: N_2  and  C_4
REMARK    4  A    between atoms: C_4  and  C_5
REMARK    5  A    between atoms: C_4  and  C_20
REMARK    6  A    between atoms: N_10  and  C_11
REMARK    7  A    between atoms: C_11  and  C_12
REMARK    8  A    between atoms: C_12  and  N_13
REMARK                            x       y       z     vdW  Elec       q    Type
REMARK                         _______ _______ _______ _____ _____    ______ ____
ROOT
ATOM      1  C   UNL     1       5.086   5.431  18.863  0.00  0.00    +0.000 C 
ATOM      2  O   UNL     1       5.893   5.583  19.806  0.00  0.00    +0.000 OA
ATOM      3  N   UNL     1       5.562   5.410  17.557  0.00  0.00    +0.000 N 
ATOM      4  C   UNL     1       7.007   5.389  17.286  0.00  0.00    +0.000 C 
ATOM      5  C   UNL     1       7.376   4.218  16.337  0.00  0.00    +0.000 C 
ATOM      6  N   UNL     1       6.551   4.086  15.112  0.00  0.00    +0.000 NA
ATOM      7  C   UNL     1       5.116   4.156  15.498  0.00  0.00    +0.000 C 
ATOM      8  C   UNL     1       4.758   5.385  16.346  0.00  0.00    +0.000 C 
ENDROOT
BRANCH   1   9
ATOM      9  C   UNL     1       3.566   5.206  19.240  0.00  0.00    +0.000 C 
BRANCH   9  10
ATOM     10  C   UNL     1       2.796   6.537  19.249  0.00  0.00    +0.000 A 
ATOM     11  C   UNL     1       2.760   7.330  18.086  0.00  0.00    +0.000 A 
ATOM     12  C   UNL     1       2.048   8.537  18.057  0.00  0.00    +0.000 A 
ATOM     13  C   UNL     1       1.362   8.970  19.189  0.00  0.00    +0.000 A 
ATOM     14  C   UNL     1       1.413   8.211  20.347  0.00  0.00    +0.000 A 
ATOM     15  F   UNL     1       0.774   8.630  21.446  0.00  0.00    +0.000 F 
ATOM     16  C   UNL     1       2.123   7.018  20.385  0.00  0.00    +0.000 A 
ENDBRANCH   9  10
BRANCH   9  18
ATOM     17  C   UNL     1       3.509   2.781  18.768  0.00  0.00    +0.000 C 
ATOM     18  N   UNL     1       2.915   4.096  18.463  0.00  0.00    +0.000 NA
ATOM     19  C   UNL     1       1.474   3.991  18.773  0.00  0.00    +0.000 C 
ENDBRANCH   9  18
ENDBRANCH   1   9
BRANCH   6  20
ATOM     20  C   UNL     1       6.856   5.092  14.073  0.00  0.00    +0.000 C 
BRANCH  20  21
ATOM     21  C   UNL     1       7.438   4.519  12.773  0.00  0.00    +0.000 C 
BRANCH  21  22
ATOM     22  N   UNL     1       6.509   3.581  12.159  0.00  0.00    +0.000 N 
ATOM     23  C   UNL     1       5.165   3.798  12.002  0.00  0.00    +0.000 A 
ATOM     24  C   UNL     1       4.622   2.673  11.429  0.00  0.00    +0.000 A 
ATOM     25  C   UNL     1       5.674   1.749  11.220  0.00  0.00    +0.000 A 
ATOM     26  C   UNL     1       6.833   2.341  11.675  0.00  0.00    +0.000 A 
ENDBRANCH  21  22
ENDBRANCH  20  21
ENDBRANCH   6  20
TORSDOF 6
ENDMDL
MODEL 3
REMARK VINA RESULT:      -6.6      3.660      7.816
REMARK  Name = 
REMARK  8 active torsions:
REMARK  status: ('A' for Active; 'I' for Inactive)
REMARK    1  A    between atoms: C_1  and  N_2
REMARK    2  A    between atoms: N_2  and  C_3
REMARK    3  A    between atoms: N_2  and  C_4
REMARK    4  A    between atoms: C_4  and  C_5
REMARK    5  A    between atoms: C_4  and  C_20
REMARK    6  A    between atoms: N_10  and  C_11
REMARK    7  A    between atoms: C_11  and  C_12
REMARK    8  A    between atoms: C_12  and  N_13
REMARK                            x       y       z     vdW  Elec       q    Type
REMARK                         _______ _______ _______ _____ _____    ______ ____
ROOT
ATOM      1  C   UNL     1       5.111   5.338  18.958  0.00  0.00    +0.000 C 
ATOM      2  O   UNL     1       5.927   5.513  19.890  0.00  0.00    +0.000 OA
ATOM      3  N   UNL     1       5.569   5.337  17.645  0.00  0.00    +0.000 N 
ATOM      4  C   UNL     1       7.009   5.363  17.353  0.00  0.00    +0.000 C 
ATOM      5  C   UNL     1       7.401   4.207  16.394  0.00  0.00    +0.000 C 
ATOM      6  N   UNL     1       6.563   4.053  15.180  0.00  0.00    +0.000 NA
ATOM      7  C   UNL     1       5.132   4.077  15.588  0.00  0.00    +0.000 C 
ATOM      8  C   UNL     1       4.748   5.291  16.446  0.00  0.00    +0.000 C 
ENDROOT
BRANCH   1   9
ATOM      9  C   UNL     1       3.605   5.063  19.356  0.00  0.00    +0.000 C 
BRANCH   9  10
ATOM     10  C   UNL     1       2.803   6.374  19.423  0.00  0.00    +0.000 A 
ATOM     11  C   UNL     1       2.115   6.712  20.604  0.00  0.00    +0.000 A 
ATOM     12  C   UNL     1       1.394   7.910  20.702  0.00  0.00    +0.000 A 
ATOM     13  C   UNL     1       1.350   8.788  19.622  0.00  0.00    +0.000 A 
ATOM     14  C   UNL     1       1.999   8.452  18.446  0.00  0.00    +0.000 A 
ATOM     15  F   UNL     1       1.944   9.280  17.395  0.00  0.00    +0.000 F 
ATOM     16  C   UNL     1       2.709   7.264  18.339  0.00  0.00    +0.000 A 
ENDBRANCH   9  10
BRANCH   9  18
ATOM     17  C   UNL     1       3.284   2.627  19.093  0.00  0.00    +0.000 C 
ATOM     18  N   UNL     1       2.966   3.964  18.555  0.00  0.00    +0.000 NA
ATOM     19  C   UNL     1       1.492   4.079  18.557  0.00  0.00    +0.000 C 
ENDBRANCH   9  18
ENDBRANCH   1   9
BRANCH   6  20
ATOM     20  C   UNL     1       6.821   5.072  14.142  0.00  0.00    +0.000 C 
BRANCH  20  21
ATOM     21  C   UNL     1       7.366   4.518  12.817  0.00  0.00    +0.000 C 
BRANCH  21  22
ATOM     22  N   UNL     1       6.420   3.586  12.219  0.00  0.00    +0.000 N 
ATOM     23  C   UNL     1       6.734   2.327  11.777  0.00  0.00    +0.000 A 
ATOM     24  C   UNL     1       5.596   1.776  11.237  0.00  0.00    +0.000 A 
ATOM     25  C   UNL     1       4.557   2.727  11.368  0.00  0.00    +0.000 A 
ATOM     26  C   UNL     1       5.094   3.837  11.987  0.00  0.00    +0.000 A 
ENDBRANCH  21  22
ENDBRANCH  20  21
ENDBRANCH   6  20
TORSDOF 6
ENDMDL
MODEL 4
REMARK VINA RESULT:      -6.3      1.035      1.612
REMARK  Name = 
REMARK  8 active torsions:
REMARK  status: ('A' for Active; 'I' for Inactive)
REMARK    1  A    between atoms: C_1  and  N_2
REMARK    2  A    between atoms: N_2  and  C_3
REMARK    3  A    between atoms: N_2  and  C_4
REMARK    4  A    between atoms: C_4  and  C_5
REMARK    5  A    between atoms: C_4  and  C_20
REMARK    6  A    between atoms: N_10  and  C_11
REMARK    7  A    between atoms: C_11  and  C_12
REMARK    8  A    between atoms: C_12  and  N_13
REMARK                            x       y       z     vdW  Elec       q    Type
REMARK                         _______ _______ _______ _____ _____    ______ ____
ROOT
ATOM      1  C   UNL     1       3.212   5.820  19.116  0.00  0.00    +0.000 C 
ATOM      2  O   UNL     1       3.339   5.191  20.189  0.00  0.00    +0.000 OA
ATOM      3  N   UNL     1       2.280   6.849  19.037  0.00  0.00    +0.000 N 
ATOM      4  C   UNL     1       1.575   7.315  20.240  0.00  0.00    +0.000 C 
ATOM      5  C   UNL     1       1.714   8.853  20.402  0.00  0.00    +0.000 C 
ATOM      6  N   UNL     1       1.415   9.666  19.198  0.00  0.00    +0.000 NA
ATOM      7  C   UNL     1       2.148   9.085  18.041  0.00  0.00    +0.000 C 
ATOM      8  C   UNL     1       1.905   7.583  17.839  0.00  0.00    +0.000 C 
ENDROOT
BRANCH   1   9
ATOM      9  C   UNL     1       4.184   5.431  17.929  0.00  0.00    +0.000 C 
BRANCH   9  10
ATOM     10  C   UNL     1       5.605   5.961  18.182  0.00  0.00    +0.000 A 
ATOM     11  C   UNL     1       6.423   5.333  19.141  0.00  0.00    +0.000 A 
ATOM     12  C   UNL     1       7.731   5.780  19.378  0.00  0.00    +0.000 A 
ATOM     13  C   UNL     1       8.240   6.860  18.661  0.00  0.00    +0.000 A 
ATOM     14  C   UNL     1       7.434   7.502  17.735  0.00  0.00    +0.000 A 
ATOM     15  F   UNL     1       7.908   8.554  17.057  0.00  0.00    +0.000 F 
ATOM     16  C   UNL     1       6.135   7.070  17.501  0.00  0.00    +0.000 A 
ENDBRANCH   9  10
BRANCH   9  18
ATOM     17  C   UNL     1       2.717   3.560  17.257  0.00  0.00    +0.000 C 
ATOM     18  N   UNL     1       4.102   3.982  17.540  0.00  0.00    +0.000 NA
ATOM     19  C   UNL     1       4.887   3.704  16.318  0.00  0.00    +0.000 C 
ENDBRANCH   9  18
ENDBRANCH   1   9
BRANCH   6  20
ATOM     20  C   UNL     1      -0.027   9.776  18.893  0.00  0.00    +0.000 C 
BRANCH  20  21
ATOM     21  C   UNL     1      -0.686  11.082  19.360  0.00  0.00    +0.000 C 
BRANCH  21  22
ATOM     22  N   UNL     1      -2.040  11.195  18.834  0.00  0.00    +0.000 N 
ATOM     23  C   UNL     1      -2.991  12.066  19.297  0.00  0.00    +0.000 A 
ATOM     24  C   UNL     1      -4.146  11.843  18.585  0.00  0.00    +0.000 A 
ATOM     25  C   UNL     1      -3.881  10.813  17.652  0.00  0.00    +0.000 A 
ATOM     26  C   UNL     1      -2.566  10.435  17.823  0.00  0.00    +0.000 A 
ENDBRANCH  21  22
ENDBRANCH  20  21
ENDBRANCH   6  20
TORSDOF 6
ENDMDL
MODEL 5
REMARK VINA RESULT:      -6.3      3.232      8.580
REMARK  Name = 
REMARK  8 active torsions:
REMARK  status: ('A' for Active; 'I' for Inactive)
REMARK    1  A    between atoms: C_1  and  N_2
REMARK    2  A    between atoms: N_2  and  C_3
REMARK    3  A    between atoms: N_2  and  C_4
REMARK    4  A    between atoms: C_4  and  C_5
REMARK    5  A    between atoms: C_4  and  C_20
REMARK    6  A    between atoms: N_10  and  C_11
REMARK    7  A    between atoms: C_11  and  C_12
REMARK    8  A    between atoms: C_12  and  N_13
REMARK                            x       y       z     vdW  Elec       q    Type
REMARK                         _______ _______ _______ _____ _____    ______ ____
ROOT
ATOM      1  C   UNL     1       0.625   9.600  19.856  0.00  0.00    +0.000 C 
ATOM      2  O   UNL     1      -0.113   9.660  20.864  0.00  0.00    +0.000 OA
ATOM      3  N   UNL     1       1.575   8.589  19.768  0.00  0.00    +0.000 N 
ATOM      4  C   UNL     1       1.601   7.497  20.753  0.00  0.00    +0.000 C 
ATOM      5  C   UNL     1       1.579   6.114  20.048  0.00  0.00    +0.000 C 
ATOM      6  N   UNL     1       2.552   5.928  18.944  0.00  0.00    +0.000 NA
ATOM      7  C   UNL     1       2.465   7.101  18.034  0.00  0.00    +0.000 C 
ATOM      8  C   UNL     1       2.600   8.455  18.746  0.00  0.00    +0.000 C 
ENDROOT
BRANCH   1   9
ATOM      9  C   UNL     1       0.374  10.662  18.710  0.00  0.00    +0.000 C 
BRANCH   9  10
ATOM     10  C   UNL     1      -1.112  10.707  18.315  0.00  0.00    +0.000 A 
ATOM     11  C   UNL     1      -1.979  11.608  18.964  0.00  0.00    +0.000 A 
ATOM     12  C   UNL     1      -3.333  11.688  18.610  0.00  0.00    +0.000 A 
ATOM     13  C   UNL     1      -3.841  10.869  17.604  0.00  0.00    +0.000 A 
ATOM     14  C   UNL     1      -3.003   9.961  16.979  0.00  0.00    +0.000 A 
ATOM     15  F   UNL     1      -3.487   9.155  16.026  0.00  0.00    +0.000 F 
ATOM     16  C   UNL     1      -1.662   9.870  17.329  0.00  0.00    +0.000 A 
ENDBRANCH   9  10
BRANCH   9  18
ATOM     17  C   UNL     1       1.384  12.152  20.403  0.00  0.00    +0.000 C 
ATOM     18  N   UNL     1       1.003  11.998  18.986  0.00  0.00    +0.000 NA
ATOM     19  C   UNL     1       2.237  12.189  18.194  0.00  0.00    +0.000 C 
ENDBRANCH   9  18
ENDBRANCH   1   9
BRANCH   6  20
ATOM     20  C   UNL     1       3.944   5.731  19.401  0.00  0.00    +0.000 C 
BRANCH  20  21
ATOM     21  C   UNL     1       4.521   4.335  19.126  0.00  0.00    +0.000 C 
BRANCH  21  22
ATOM     22  N   UNL     1       5.352   4.344  17.930  0.00  0.00    +0.000 N 
ATOM     23  C   UNL     1       4.922   4.004  16.674  0.00  0.00    +0.000 A 
ATOM     24  C   UNL     1       5.999   4.091  15.825  0.00  0.00    +0.000 A 
ATOM     25  C   UNL     1       7.114   4.510  16.588  0.00  0.00    +0.000 A 
ATOM     26  C   UNL     1       6.683   4.666  17.889  0.00  0.00    +0.000 A 
ENDBRANCH  21  22
ENDBRANCH  20  21
ENDBRANCH   6  20
TORSDOF 6
ENDMDL
MODEL 6
REMARK VINA RESULT:      -6.3      1.525      2.322
REMARK  Name = 
REMARK  8 active torsions:
REMARK  status: ('A' for Active; 'I' for Inactive)
REMARK    1  A    between atoms: C_1  and  N_2
REMARK    2  A    between atoms: N_2  and  C_3
REMARK    3  A    between atoms: N_2  and  C_4
REMARK    4  A    between atoms: C_4  and  C_5
REMARK    5  A    between atoms: C_4  and  C_20
REMARK    6  A    between atoms: N_10  and  C_11
REMARK    7  A    between atoms: C_11  and  C_12
REMARK    8  A    between atoms: C_12  and  N_13
REMARK                            x       y       z     vdW  Elec       q    Type
REMARK                         _______ _______ _______ _____ _____    ______ ____
ROOT
ATOM      1  C   UNL     1       3.210   5.750  19.089  0.00  0.00    +0.000 C 
ATOM      2  O   UNL     1       3.351   5.079  20.134  0.00  0.00    +0.000 OA
ATOM      3  N   UNL     1       2.299   6.800  19.072  0.00  0.00    +0.000 N 
ATOM      4  C   UNL     1       1.635   7.236  20.309  0.00  0.00    +0.000 C 
ATOM      5  C   UNL     1       1.812   8.763  20.524  0.00  0.00    +0.000 C 
ATOM      6  N   UNL     1       1.499   9.627  19.359  0.00  0.00    +0.000 NA
ATOM      7  C   UNL     1       2.190   9.074  18.162  0.00  0.00    +0.000 C 
ATOM      8  C   UNL     1       1.909   7.585  17.912  0.00  0.00    +0.000 C 
ENDROOT
BRANCH   1   9
ATOM      9  C   UNL     1       4.142   5.385  17.863  0.00  0.00    +0.000 C 
BRANCH   9  10
ATOM     10  C   UNL     1       5.558   5.954  18.057  0.00  0.00    +0.000 A 
ATOM     11  C   UNL     1       5.969   7.075  17.310  0.00  0.00    +0.000 A 
ATOM     12  C   UNL     1       7.245   7.628  17.481  0.00  0.00    +0.000 A 
ATOM     13  C   UNL     1       8.130   7.070  18.400  0.00  0.00    +0.000 A 
ATOM     14  C   UNL     1       7.747   5.951  19.120  0.00  0.00    +0.000 A 
ATOM     15  F   UNL     1       8.599   5.395  19.990  0.00  0.00    +0.000 F 
ATOM     16  C   UNL     1       6.487   5.392  18.950  0.00  0.00    +0.000 A 
ENDBRANCH   9  10
BRANCH   9  18
ATOM     17  C   UNL     1       2.703   3.481  17.226  0.00  0.00    +0.000 C 
ATOM     18  N   UNL     1       4.084   3.934  17.479  0.00  0.00    +0.000 NA
ATOM     19  C   UNL     1       4.848   3.670  16.241  0.00  0.00    +0.000 C 
ENDBRANCH   9  18
ENDBRANCH   1   9
BRANCH   6  20
ATOM     20  C   UNL     1       0.053   9.778  19.097  0.00  0.00    +0.000 C 
BRANCH  20  21
ATOM     21  C   UNL     1      -0.451  11.228  19.079  0.00  0.00    +0.000 C 
BRANCH  21  22
ATOM     22  N   UNL     1      -0.516  11.770  20.429  0.00  0.00    +0.000 N 
ATOM     23  C   UNL     1      -0.933  11.073  21.534  0.00  0.00    +0.000 A 
ATOM     24  C   UNL     1      -0.901  11.932  22.607  0.00  0.00    +0.000 A 
ATOM     25  C   UNL     1      -0.436  13.184  22.140  0.00  0.00    +0.000 A 
ATOM     26  C   UNL     1      -0.198  13.053  20.788  0.00  0.00    +0.000 A 
ENDBRANCH  21  22
ENDBRANCH  20  21
ENDBRANCH   6  20
TORSDOF 6
ENDMDL
MODEL 7
REMARK VINA RESULT:      -6.3      1.469      2.038
REMARK  Name = 
REMARK  8 active torsions:
REMARK  status: ('A' for Active; 'I' for Inactive)
REMARK    1  A    between atoms: C_1  and  N_2
REMARK    2  A    between atoms: N_2  and  C_3
REMARK    3  A    between atoms: N_2  and  C_4
REMARK    4  A    between atoms: C_4  and  C_5
REMARK    5  A    between atoms: C_4  and  C_20
REMARK    6  A    between atoms: N_10  and  C_11
REMARK    7  A    between atoms: C_11  and  C_12
REMARK    8  A    between atoms: C_12  and  N_13
REMARK                            x       y       z     vdW  Elec       q    Type
REMARK                         _______ _______ _______ _____ _____    ______ ____
ROOT
ATOM      1  C   UNL     1       3.231   5.709  19.124  0.00  0.00    +0.000 C 
ATOM      2  O   UNL     1       3.383   5.037  20.168  0.00  0.00    +0.000 OA
ATOM      3  N   UNL     1       2.308   6.747  19.112  0.00  0.00    +0.000 N 
ATOM      4  C   UNL     1       1.641   7.172  20.352  0.00  0.00    +0.000 C 
ATOM      5  C   UNL     1       1.799   8.701  20.570  0.00  0.00    +0.000 C 
ATOM      6  N   UNL     1       1.474   9.563  19.408  0.00  0.00    +0.000 NA
ATOM      7  C   UNL     1       2.168   9.023  18.209  0.00  0.00    +0.000 C 
ATOM      8  C   UNL     1       1.906   7.531  17.955  0.00  0.00    +0.000 C 
ENDROOT
BRANCH   1   9
ATOM      9  C   UNL     1       4.166   5.359  17.896  0.00  0.00    +0.000 C 
BRANCH   9  10
ATOM     10  C   UNL     1       5.581   5.928  18.098  0.00  0.00    +0.000 A 
ATOM     11  C   UNL     1       5.996   7.047  17.351  0.00  0.00    +0.000 A 
ATOM     12  C   UNL     1       7.271   7.601  17.529  0.00  0.00    +0.000 A 
ATOM     13  C   UNL     1       8.150   7.044  18.455  0.00  0.00    +0.000 A 
ATOM     14  C   UNL     1       7.762   5.926  19.174  0.00  0.00    +0.000 A 
ATOM     15  F   UNL     1       8.609   5.371  20.051  0.00  0.00    +0.000 F 
ATOM     16  C   UNL     1       6.503   5.367  18.998  0.00  0.00    +0.000 A 
ENDBRANCH   9  10
BRANCH   9  18
ATOM     17  C   UNL     1       2.731   3.463  17.222  0.00  0.00    +0.000 C 
ATOM     18  N   UNL     1       4.109   3.912  17.496  0.00  0.00    +0.000 NA
ATOM     19  C   UNL     1       4.888   3.660  16.264  0.00  0.00    +0.000 C 
ENDBRANCH   9  18
ENDBRANCH   1   9
BRANCH   6  20
ATOM     20  C   UNL     1       0.025   9.697  19.149  0.00  0.00    +0.000 C 
BRANCH  20  21
ATOM     21  C   UNL     1      -0.690  10.745  20.015  0.00  0.00    +0.000 C 
BRANCH  21  22
ATOM     22  N   UNL     1      -0.290  12.092  19.634  0.00  0.00    +0.000 N 
ATOM     23  C   UNL     1       0.668  12.836  20.273  0.00  0.00    +0.000 A 
ATOM     24  C   UNL     1       0.728  14.062  19.654  0.00  0.00    +0.000 A 
ATOM     25  C   UNL     1      -0.214  14.056  18.598  0.00  0.00    +0.000 A 
ATOM     26  C   UNL     1      -0.825  12.819  18.604  0.00  0.00    +0.000 A 
ENDBRANCH  21  22
ENDBRANCH  20  21
ENDBRANCH   6  20
TORSDOF 6
ENDMDL
MODEL 8
REMARK VINA RESULT:      -6.3      4.850      7.208
REMARK  Name = 
REMARK  8 active torsions:
REMARK  status: ('A' for Active; 'I' for Inactive)
REMARK    1  A    between atoms: C_1  and  N_2
REMARK    2  A    between atoms: N_2  and  C_3
REMARK    3  A    between atoms: N_2  and  C_4
REMARK    4  A    between atoms: C_4  and  C_5
REMARK    5  A    between atoms: C_4  and  C_20
REMARK    6  A    between atoms: N_10  and  C_11
REMARK    7  A    between atoms: C_11  and  C_12
REMARK    8  A    between atoms: C_12  and  N_13
REMARK                            x       y       z     vdW  Elec       q    Type
REMARK                         _______ _______ _______ _____ _____    ______ ____
ROOT
ATOM      1  C   UNL     1       0.783  12.044  20.341  0.00  0.00    +0.000 C 
ATOM      2  O   UNL     1       0.754  11.700  21.543  0.00  0.00    +0.000 OA
ATOM      3  N   UNL     1       1.379  13.251  19.994  0.00  0.00    +0.000 N 
ATOM      4  C   UNL     1       2.121  14.035  20.991  0.00  0.00    +0.000 C 
ATOM      5  C   UNL     1       3.546  14.377  20.478  0.00  0.00    +0.000 C 
ATOM      6  N   UNL     1       3.629  14.945  19.110  0.00  0.00    +0.000 NA
ATOM      7  C   UNL     1       2.816  14.097  18.196  0.00  0.00    +0.000 C 
ATOM      8  C   UNL     1       1.376  13.866  18.676  0.00  0.00    +0.000 C 
ENDROOT
BRANCH   1   9
ATOM      9  C   UNL     1       0.186  11.030  19.283  0.00  0.00    +0.000 C 
BRANCH   9  10
ATOM     10  C   UNL     1       1.009   9.731  19.236  0.00  0.00    +0.000 A 
ATOM     11  C   UNL     1       1.004   8.861  20.343  0.00  0.00    +0.000 A 
ATOM     12  C   UNL     1       1.727   7.661  20.320  0.00  0.00    +0.000 A 
ATOM     13  C   UNL     1       2.464   7.312  19.192  0.00  0.00    +0.000 A 
ATOM     14  C   UNL     1       2.498   8.173  18.108  0.00  0.00    +0.000 A 
ATOM     15  F   UNL     1       3.222   7.855  17.027  0.00  0.00    +0.000 F 
ATOM     16  C   UNL     1       1.791   9.368  18.126  0.00  0.00    +0.000 A 
ENDBRANCH   9  10
BRANCH   9  18
ATOM     17  C   UNL     1      -2.017  12.125  19.517  0.00  0.00    +0.000 C 
ATOM     18  N   UNL     1      -1.300  10.841  19.410  0.00  0.00    +0.000 NA
ATOM     19  C   UNL     1      -1.859  10.141  18.234  0.00  0.00    +0.000 C 
ENDBRANCH   9  18
ENDBRANCH   1   9
BRANCH   6  20
ATOM     20  C   UNL     1       3.201  16.356  19.021  0.00  0.00    +0.000 C 
BRANCH  20  21
ATOM     21  C   UNL     1       2.982  16.875  17.593  0.00  0.00    +0.000 C 
BRANCH  21  22
ATOM     22  N   UNL     1       1.673  17.501  17.465  0.00  0.00    +0.000 N 
ATOM     23  C   UNL     1       0.661  17.396  18.383  0.00  0.00    +0.000 A 
ATOM     24  C   UNL     1      -0.425  18.080  17.890  0.00  0.00    +0.000 A 
ATOM     25  C   UNL     1      -0.054  18.628  16.640  0.00  0.00    +0.000 A 
ATOM     26  C   UNL     1       1.254  18.260  16.404  0.00  0.00    +0.000 A 
ENDBRANCH  21  22
ENDBRANCH  20  21
ENDBRANCH   6  20
TORSDOF 6
ENDMDL
MODEL 9
REMARK VINA RESULT:      -6.2      3.218      5.050
REMARK  Name = 
REMARK  8 active torsions:
REMARK  status: ('A' for Active; 'I' for Inactive)
REMARK    1  A    between atoms: C_1  and  N_2
REMARK    2  A    between atoms: N_2  and  C_3
REMARK    3  A    between atoms: N_2  and  C_4
REMARK    4  A    between atoms: C_4  and  C_5
REMARK    5  A    between atoms: C_4  and  C_20
REMARK    6  A    between atoms: N_10  and  C_11
REMARK    7  A    between atoms: C_11  and  C_12
REMARK    8  A    between atoms: C_12  and  N_13
REMARK                            x       y       z     vdW  Elec       q    Type
REMARK                         _______ _______ _______ _____ _____    ______ ____
ROOT
ATOM      1  C   UNL     1       5.197   6.049  16.366  0.00  0.00    +0.000 C 
ATOM      2  O   UNL     1       4.972   6.868  15.448  0.00  0.00    +0.000 OA
ATOM      3  N   UNL     1       4.361   6.026  17.476  0.00  0.00    +0.000 N 
ATOM      4  C   UNL     1       3.127   6.824  17.502  0.00  0.00    +0.000 C 
ATOM      5  C   UNL     1       1.903   5.939  17.858  0.00  0.00    +0.000 C 
ATOM      6  N   UNL     1       2.054   5.060  19.044  0.00  0.00    +0.000 NA
ATOM      7  C   UNL     1       3.347   4.332  18.930  0.00  0.00    +0.000 C 
ATOM      8  C   UNL     1       4.557   5.244  18.687  0.00  0.00    +0.000 C 
ENDROOT
BRANCH   1   9
ATOM      9  C   UNL     1       6.400   5.042  16.159  0.00  0.00    +0.000 C 
BRANCH   9  10
ATOM     10  C   UNL     1       6.595   4.712  14.669  0.00  0.00    +0.000 A 
ATOM     11  C   UNL     1       7.622   5.347  13.943  0.00  0.00    +0.000 A 
ATOM     12  C   UNL     1       7.839   5.050  12.590  0.00  0.00    +0.000 A 
ATOM     13  C   UNL     1       7.032   4.117  11.943  0.00  0.00    +0.000 A 
ATOM     14  C   UNL     1       6.002   3.509  12.640  0.00  0.00    +0.000 A 
ATOM     15  F   UNL     1       5.208   2.627  12.019  0.00  0.00    +0.000 F 
ATOM     16  C   UNL     1       5.777   3.803  13.978  0.00  0.00    +0.000 A 
ENDBRANCH   9  10
BRANCH   9  18
ATOM     17  C   UNL     1       7.572   6.824  17.406  0.00  0.00    +0.000 C 
ATOM     18  N   UNL     1       7.648   5.443  16.893  0.00  0.00    +0.000 NA
ATOM     19  C   UNL     1       7.892   4.571  18.062  0.00  0.00    +0.000 C 
ENDBRANCH   9  18
ENDBRANCH   1   9
BRANCH   6  20
ATOM     20  C   UNL     1       1.977   5.777  20.333  0.00  0.00    +0.000 C 
BRANCH  20  21
ATOM     21  C   UNL     1       2.450   7.237  20.289  0.00  0.00    +0.000 C 
BRANCH  21  22
ATOM     22  N   UNL     1       1.351   8.146  20.586  0.00  0.00    +0.000 N 
ATOM     23  C   UNL     1       0.967   9.197  19.794  0.00  0.00    +0.000 A 
ATOM     24  C   UNL     1      -0.067   9.843  20.428  0.00  0.00    +0.000 A 
ATOM     25  C   UNL     1      -0.326   9.154  21.636  0.00  0.00    +0.000 A 
ATOM     26  C   UNL     1       0.563   8.102  21.705  0.00  0.00    +0.000 A 
ENDBRANCH  21  22
ENDBRANCH  20  21
ENDBRANCH   6  20
TORSDOF 6
ENDMDL
