MODEL 1
REMARK VINA RESULT:      -8.2      0.000      0.000
REMARK  Name = 
REMARK  3 active torsions:
REMARK  status: ('A' for Active; 'I' for Inactive)
REMARK    1  A    between atoms: C_6  and  C_7
REMARK    2  A    between atoms: C_7  and  S_8
REMARK    3  A    between atoms: S_8  and  C_9
REMARK                            x       y       z     vdW  Elec       q    Type
REMARK                         _______ _______ _______ _____ _____    ______ ____
ROOT
ATOM      1  C   UNL     1       5.532   6.295  18.084  0.00  0.00    +0.000 C 
ENDROOT
BRANCH   1   7
ATOM      2  C   UNL     1       0.865   3.321  20.407  0.00  0.00    +0.000 A 
ATOM      3  C   UNL     1       0.835   2.699  19.157  0.00  0.00    +0.000 A 
ATOM      4  C   UNL     1       1.752   3.036  18.154  0.00  0.00    +0.000 A 
ATOM      5  C   UNL     1       2.693   4.019  18.470  0.00  0.00    +0.000 A 
ATOM      6  N   UNL     1       3.718   4.581  17.756  0.00  0.00    +0.000 N 
ATOM      7  C   UNL     1       4.361   5.495  18.557  0.00  0.00    +0.000 A 
ATOM      8  N   UNL     1       3.777   5.566  19.739  0.00  0.00    +0.000 NA
ATOM      9  C   UNL     1       2.750   4.653  19.705  0.00  0.00    +0.000 A 
ATOM     10  C   UNL     1       1.820   4.306  20.697  0.00  0.00    +0.000 A 
ATOM     11  H   UNL     1       3.982   4.341  16.812  0.00  0.00    +0.000 HD
ENDBRANCH   1   7
BRANCH   1  12
ATOM     12  S   UNL     1       7.006   5.247  17.892  0.00  0.00    +0.000 S 
BRANCH  12  13
ATOM     13  C   UNL     1       6.904   4.875  16.194  0.00  0.00    +0.000 A 
ATOM     14  N   UNL     1       6.087   3.973  15.685  0.00  0.00    +0.000 NA
ATOM     15  C   UNL     1       6.348   4.015  14.338  0.00  0.00    +0.000 A 
ATOM     16  C   UNL     1       5.794   3.300  13.268  0.00  0.00    +0.000 A 
ATOM     17  C   UNL     1       6.277   3.562  11.977  0.00  0.00    +0.000 A 
ATOM     18  C   UNL     1       7.283   4.513  11.759  0.00  0.00    +0.000 A 
ATOM     19  C   UNL     1       7.844   5.236  12.819  0.00  0.00    +0.000 A 
ATOM     20  C   UNL     1       7.338   4.948  14.080  0.00  0.00    +0.000 A 
ATOM     21  O   UNL     1       7.702   5.503  15.271  0.00  0.00    +0.000 OA
ENDBRANCH  12  13
ENDBRANCH   1  12
TORSDOF 3
ENDMDL
MODEL 2
REMARK VINA RESULT:      -8.1      1.159      1.570
REMARK  Name = 
REMARK  3 active torsions:
REMARK  status: ('A' for Active; 'I' for Inactive)
REMARK    1  A    between atoms: C_6  and  C_7
REMARK    2  A    between atoms: C_7  and  S_8
REMARK    3  A    between atoms: S_8  and  C_9
REMARK                            x       y       z     vdW  Elec       q    Type
REMARK                         _______ _______ _______ _____ _____    ______ ____
ROOT
ATOM      1  C   UNL     1       6.525   4.834  18.584  0.00  0.00    +0.000 C 
ENDROOT
BRANCH   1   7
ATOM      2  C   UNL     1       0.834   3.382  19.824  0.00  0.00    +0.000 A 
ATOM      3  C   UNL     1       1.050   2.366  18.891  0.00  0.00    +0.000 A 
ATOM      4  C   UNL     1       2.281   2.230  18.236  0.00  0.00    +0.000 A 
ATOM      5  C   UNL     1       3.273   3.155  18.567  0.00  0.00    +0.000 A 
ATOM      6  N   UNL     1       4.565   3.317  18.141  0.00  0.00    +0.000 N 
ATOM      7  C   UNL     1       5.118   4.381  18.814  0.00  0.00    +0.000 A 
ATOM      8  N   UNL     1       4.233   4.926  19.627  0.00  0.00    +0.000 NA
ATOM      9  C   UNL     1       3.090   4.173  19.494  0.00  0.00    +0.000 A 
ATOM     10  C   UNL     1       1.848   4.299  20.137  0.00  0.00    +0.000 A 
ATOM     11  H   UNL     1       5.045   2.733  17.472  0.00  0.00    +0.000 HD
ENDBRANCH   1   7
BRANCH   1  12
ATOM     12  S   UNL     1       6.574   6.301  17.510  0.00  0.00    +0.000 S 
BRANCH  12  13
ATOM     13  C   UNL     1       6.558   5.541  15.944  0.00  0.00    +0.000 A 
ATOM     14  N   UNL     1       7.535   5.644  15.064  0.00  0.00    +0.000 NA
ATOM     15  C   UNL     1       7.096   4.902  13.996  0.00  0.00    +0.000 A 
ATOM     16  C   UNL     1       7.694   4.621  12.760  0.00  0.00    +0.000 A 
ATOM     17  C   UNL     1       6.986   3.820  11.851  0.00  0.00    +0.000 A 
ATOM     18  C   UNL     1       5.719   3.312  12.166  0.00  0.00    +0.000 A 
ATOM     19  C   UNL     1       5.110   3.583  13.398  0.00  0.00    +0.000 A 
ATOM     20  C   UNL     1       5.844   4.379  14.269  0.00  0.00    +0.000 A 
ATOM     21  O   UNL     1       5.490   4.788  15.521  0.00  0.00    +0.000 OA
ENDBRANCH  12  13
ENDBRANCH   1  12
TORSDOF 3
ENDMDL
MODEL 3
REMARK VINA RESULT:      -8.1      1.136      1.220
REMARK  Name = 
REMARK  3 active torsions:
REMARK  status: ('A' for Active; 'I' for Inactive)
REMARK    1  A    between atoms: C_6  and  C_7
REMARK    2  A    between atoms: C_7  and  S_8
REMARK    3  A    between atoms: S_8  and  C_9
REMARK                            x       y       z     vdW  Elec       q    Type
REMARK                         _______ _______ _______ _____ _____    ______ ____
ROOT
ATOM      1  C   UNL     1       6.755   4.636  18.604  0.00  0.00    +0.000 C 
ENDROOT
BRANCH   1   7
ATOM      2  C   UNL     1       1.092   4.380  20.577  0.00  0.00    +0.000 A 
ATOM      3  C   UNL     1       1.328   3.003  20.611  0.00  0.00    +0.000 A 
ATOM      4  C   UNL     1       2.560   2.466  20.220  0.00  0.00    +0.000 A 
ATOM      5  C   UNL     1       3.535   3.375  19.802  0.00  0.00    +0.000 A 
ATOM      6  N   UNL     1       4.824   3.211  19.366  0.00  0.00    +0.000 N 
ATOM      7  C   UNL     1       5.357   4.452  19.102  0.00  0.00    +0.000 A 
ATOM      8  N   UNL     1       4.462   5.397  19.318  0.00  0.00    +0.000 NA
ATOM      9  C   UNL     1       3.333   4.748  19.761  0.00  0.00    +0.000 A 
ATOM     10  C   UNL     1       2.089   5.269  20.151  0.00  0.00    +0.000 A 
ATOM     11  H   UNL     1       5.315   2.334  19.286  0.00  0.00    +0.000 HD
ENDBRANCH   1   7
BRANCH   1  12
ATOM     12  S   UNL     1       6.894   6.130  17.576  0.00  0.00    +0.000 S 
BRANCH  12  13
ATOM     13  C   UNL     1       6.733   5.433  15.990  0.00  0.00    +0.000 A 
ATOM     14  N   UNL     1       5.746   4.633  15.632  0.00  0.00    +0.000 NA
ATOM     15  C   UNL     1       6.025   4.331  14.323  0.00  0.00    +0.000 A 
ATOM     16  C   UNL     1       5.342   3.534  13.395  0.00  0.00    +0.000 A 
ATOM     17  C   UNL     1       5.884   3.408  12.106  0.00  0.00    +0.000 A 
ATOM     18  C   UNL     1       7.073   4.060  11.753  0.00  0.00    +0.000 A 
ATOM     19  C   UNL     1       7.766   4.861  12.671  0.00  0.00    +0.000 A 
ATOM     20  C   UNL     1       7.195   4.960  13.934  0.00  0.00    +0.000 A 
ATOM     21  O   UNL     1       7.657   5.670  15.003  0.00  0.00    +0.000 OA
ENDBRANCH  12  13
ENDBRANCH   1  12
TORSDOF 3
ENDMDL
MODEL 4
REMARK VINA RESULT:      -8.0      0.747      1.850
REMARK  Name = 
REMARK  3 active torsions:
REMARK  status: ('A' for Active; 'I' for Inactive)
REMARK    1  A    between atoms: C_6  and  C_7
REMARK    2  A    between atoms: C_7  and  S_8
REMARK    3  A    between atoms: S_8  and  C_9
REMARK                            x       y       z     vdW  Elec       q    Type
REMARK                         _______ _______ _______ _____ _____    ______ ____
ROOT
ATOM      1  C   UNL     1       5.540   6.214  18.003  0.00  0.00    +0.000 C 
ENDROOT
BRANCH   1   7
ATOM      2  C   UNL     1       0.736   2.920  19.455  0.00  0.00    +0.000 A 
ATOM      3  C   UNL     1       0.979   3.409  20.740  0.00  0.00    +0.000 A 
ATOM      4  C   UNL     1       2.052   4.271  21.000  0.00  0.00    +0.000 A 
ATOM      5  C   UNL     1       2.857   4.615  19.911  0.00  0.00    +0.000 A 
ATOM      6  N   UNL     1       3.962   5.418  19.796  0.00  0.00    +0.000 N 
ATOM      7  C   UNL     1       4.357   5.432  18.479  0.00  0.00    +0.000 A 
ATOM      8  N   UNL     1       3.577   4.653  17.752  0.00  0.00    +0.000 NA
ATOM      9  C   UNL     1       2.639   4.148  18.621  0.00  0.00    +0.000 A 
ATOM     10  C   UNL     1       1.562   3.281  18.380  0.00  0.00    +0.000 A 
ATOM     11  H   UNL     1       4.393   5.941  20.543  0.00  0.00    +0.000 HD
ENDBRANCH   1   7
BRANCH   1  12
ATOM     12  S   UNL     1       7.000   5.146  17.818  0.00  0.00    +0.000 S 
BRANCH  12  13
ATOM     13  C   UNL     1       6.949   4.842  16.105  0.00  0.00    +0.000 A 
ATOM     14  N   UNL     1       7.678   5.491  15.218  0.00  0.00    +0.000 NA
ATOM     15  C   UNL     1       7.313   4.933  14.019  0.00  0.00    +0.000 A 
ATOM     16  C   UNL     1       7.745   5.193  12.711  0.00  0.00    +0.000 A 
ATOM     17  C   UNL     1       7.174   4.449  11.667  0.00  0.00    +0.000 A 
ATOM     18  C   UNL     1       6.200   3.474  11.920  0.00  0.00    +0.000 A 
ATOM     19  C   UNL     1       5.761   3.203  13.222  0.00  0.00    +0.000 A 
ATOM     20  C   UNL     1       6.352   3.959  14.226  0.00  0.00    +0.000 A 
ATOM     21  O   UNL     1       6.111   3.897  15.567  0.00  0.00    +0.000 OA
ENDBRANCH  12  13
ENDBRANCH   1  12
TORSDOF 3
ENDMDL
MODEL 5
REMARK VINA RESULT:      -8.0      1.172      1.530
REMARK  Name = 
REMARK  3 active torsions:
REMARK  status: ('A' for Active; 'I' for Inactive)
REMARK    1  A    between atoms: C_6  and  C_7
REMARK    2  A    between atoms: C_7  and  S_8
REMARK    3  A    between atoms: S_8  and  C_9
REMARK                            x       y       z     vdW  Elec       q    Type
REMARK                         _______ _______ _______ _____ _____    ______ ____
ROOT
ATOM      1  C   UNL     1       6.711   5.164  18.750  0.00  0.00    +0.000 C 
ENDROOT
BRANCH   1   7
ATOM      2  C   UNL     1       1.431   2.813  20.370  0.00  0.00    +0.000 A 
ATOM      3  C   UNL     1       1.070   4.147  20.566  0.00  0.00    +0.000 A 
ATOM      4  C   UNL     1       1.978   5.188  20.335  0.00  0.00    +0.000 A 
ATOM      5  C   UNL     1       3.252   4.822  19.897  0.00  0.00    +0.000 A 
ATOM      6  N   UNL     1       4.364   5.555  19.574  0.00  0.00    +0.000 N 
ATOM      7  C   UNL     1       5.357   4.691  19.172  0.00  0.00    +0.000 A 
ATOM      8  N   UNL     1       4.942   3.440  19.252  0.00  0.00    +0.000 NA
ATOM      9  C   UNL     1       3.640   3.504  19.689  0.00  0.00    +0.000 A 
ATOM     10  C   UNL     1       2.719   2.474  19.931  0.00  0.00    +0.000 A 
ATOM     11  H   UNL     1       4.436   6.561  19.593  0.00  0.00    +0.000 HD
ENDBRANCH   1   7
BRANCH   1  12
ATOM     12  S   UNL     1       6.586   6.574  17.609  0.00  0.00    +0.000 S 
BRANCH  12  13
ATOM     13  C   UNL     1       6.497   5.736  16.086  0.00  0.00    +0.000 A 
ATOM     14  N   UNL     1       5.472   4.994  15.711  0.00  0.00    +0.000 NA
ATOM     15  C   UNL     1       5.833   4.537  14.469  0.00  0.00    +0.000 A 
ATOM     16  C   UNL     1       5.159   3.713  13.558  0.00  0.00    +0.000 A 
ATOM     17  C   UNL     1       5.796   3.409  12.345  0.00  0.00    +0.000 A 
ATOM     18  C   UNL     1       7.069   3.913  12.049  0.00  0.00    +0.000 A 
ATOM     19  C   UNL     1       7.754   4.739  12.949  0.00  0.00    +0.000 A 
ATOM     20  C   UNL     1       7.088   5.017  14.137  0.00  0.00    +0.000 A 
ATOM     21  O   UNL     1       7.522   5.788  15.175  0.00  0.00    +0.000 OA
ENDBRANCH  12  13
ENDBRANCH   1  12
TORSDOF 3
ENDMDL
MODEL 6
REMARK VINA RESULT:      -8.0      1.742      6.881
REMARK  Name = 
REMARK  3 active torsions:
REMARK  status: ('A' for Active; 'I' for Inactive)
REMARK    1  A    between atoms: C_6  and  C_7
REMARK    2  A    between atoms: C_7  and  S_8
REMARK    3  A    between atoms: S_8  and  C_9
REMARK                            x       y       z     vdW  Elec       q    Type
REMARK                         _______ _______ _______ _____ _____    ______ ____
ROOT
ATOM      1  C   UNL     1       6.485   6.281  17.436  0.00  0.00    +0.000 C 
ENDROOT
BRANCH   1   7
ATOM      2  C   UNL     1       5.786   3.354  12.242  0.00  0.00    +0.000 A 
ATOM      3  C   UNL     1       7.046   3.882  11.951  0.00  0.00    +0.000 A 
ATOM      4  C   UNL     1       7.720   4.702  12.864  0.00  0.00    +0.000 A 
ATOM      5  C   UNL     1       7.070   4.959  14.074  0.00  0.00    +0.000 A 
ATOM      6  N   UNL     1       7.424   5.694  15.175  0.00  0.00    +0.000 N 
ATOM      7  C   UNL     1       6.420   5.593  16.109  0.00  0.00    +0.000 A 
ATOM      8  N   UNL     1       5.429   4.854  15.647  0.00  0.00    +0.000 NA
ATOM      9  C   UNL     1       5.819   4.446  14.394  0.00  0.00    +0.000 A 
ATOM     10  C   UNL     1       5.156   3.630  13.464  0.00  0.00    +0.000 A 
ATOM     11  H   UNL     1       8.290   6.197  15.297  0.00  0.00    +0.000 HD
ENDBRANCH   1   7
BRANCH   1  12
ATOM     12  S   UNL     1       6.891   5.106  18.764  0.00  0.00    +0.000 S 
BRANCH  12  13
ATOM     13  C   UNL     1       5.291   4.621  19.250  0.00  0.00    +0.000 A 
ATOM     14  N   UNL     1       4.909   3.365  19.378  0.00  0.00    +0.000 NA
ATOM     15  C   UNL     1       3.596   3.458  19.767  0.00  0.00    +0.000 A 
ATOM     16  C   UNL     1       2.651   2.469  20.070  0.00  0.00    +0.000 A 
ATOM     17  C   UNL     1       1.361   2.879  20.441  0.00  0.00    +0.000 A 
ATOM     18  C   UNL     1       1.024   4.237  20.509  0.00  0.00    +0.000 A 
ATOM     19  C   UNL     1       1.959   5.236  20.211  0.00  0.00    +0.000 A 
ATOM     20  C   UNL     1       3.224   4.789  19.850  0.00  0.00    +0.000 A 
ATOM     21  O   UNL     1       4.310   5.543  19.516  0.00  0.00    +0.000 OA
ENDBRANCH  12  13
ENDBRANCH   1  12
TORSDOF 3
ENDMDL
MODEL 7
REMARK VINA RESULT:      -7.9      1.371      1.945
REMARK  Name = 
REMARK  3 active torsions:
REMARK  status: ('A' for Active; 'I' for Inactive)
REMARK    1  A    between atoms: C_6  and  C_7
REMARK    2  A    between atoms: C_7  and  S_8
REMARK    3  A    between atoms: S_8  and  C_9
REMARK                            x       y       z     vdW  Elec       q    Type
REMARK                         _______ _______ _______ _____ _____    ______ ____
ROOT
ATOM      1  C   UNL     1       6.673   4.846  18.566  0.00  0.00    +0.000 C 
ENDROOT
BRANCH   1   7
ATOM      2  C   UNL     1       1.376   2.984  20.687  0.00  0.00    +0.000 A 
ATOM      3  C   UNL     1       1.020   4.327  20.547  0.00  0.00    +0.000 A 
ATOM      4  C   UNL     1       1.933   5.276  20.071  0.00  0.00    +0.000 A 
ATOM      5  C   UNL     1       3.208   4.809  19.743  0.00  0.00    +0.000 A 
ATOM      6  N   UNL     1       4.325   5.436  19.256  0.00  0.00    +0.000 N 
ATOM      7  C   UNL     1       5.315   4.497  19.085  0.00  0.00    +0.000 A 
ATOM      8  N   UNL     1       4.895   3.305  19.468  0.00  0.00    +0.000 NA
ATOM      9  C   UNL     1       3.591   3.479  19.868  0.00  0.00    +0.000 A 
ATOM     10  C   UNL     1       2.664   2.543  20.353  0.00  0.00    +0.000 A 
ATOM     11  H   UNL     1       4.400   6.416  19.026  0.00  0.00    +0.000 HD
ENDBRANCH   1   7
BRANCH   1  12
ATOM     12  S   UNL     1       6.606   6.310  17.488  0.00  0.00    +0.000 S 
BRANCH  12  13
ATOM     13  C   UNL     1       6.573   5.544  15.925  0.00  0.00    +0.000 A 
ATOM     14  N   UNL     1       7.548   5.631  15.040  0.00  0.00    +0.000 NA
ATOM     15  C   UNL     1       7.096   4.890  13.977  0.00  0.00    +0.000 A 
ATOM     16  C   UNL     1       7.684   4.598  12.740  0.00  0.00    +0.000 A 
ATOM     17  C   UNL     1       6.963   3.801  11.837  0.00  0.00    +0.000 A 
ATOM     18  C   UNL     1       5.691   3.310  12.159  0.00  0.00    +0.000 A 
ATOM     19  C   UNL     1       5.092   3.593  13.393  0.00  0.00    +0.000 A 
ATOM     20  C   UNL     1       5.839   4.383  14.258  0.00  0.00    +0.000 A 
ATOM     21  O   UNL     1       5.495   4.802  15.510  0.00  0.00    +0.000 OA
ENDBRANCH  12  13
ENDBRANCH   1  12
TORSDOF 3
ENDMDL
MODEL 8
REMARK VINA RESULT:      -7.9      1.388      6.753
REMARK  Name = 
REMARK  3 active torsions:
REMARK  status: ('A' for Active; 'I' for Inactive)
REMARK    1  A    between atoms: C_6  and  C_7
REMARK    2  A    between atoms: C_7  and  S_8
REMARK    3  A    between atoms: S_8  and  C_9
REMARK                            x       y       z     vdW  Elec       q    Type
REMARK                         _______ _______ _______ _____ _____    ______ ____
ROOT
ATOM      1  C   UNL     1       6.380   6.263  17.277  0.00  0.00    +0.000 C 
ENDROOT
BRANCH   1   7
ATOM      2  C   UNL     1       6.995   3.784  11.845  0.00  0.00    +0.000 A 
ATOM      3  C   UNL     1       5.728   3.260  12.109  0.00  0.00    +0.000 A 
ATOM      4  C   UNL     1       5.068   3.525  13.315  0.00  0.00    +0.000 A 
ATOM      5  C   UNL     1       5.738   4.339  14.231  0.00  0.00    +0.000 A 
ATOM      6  N   UNL     1       5.402   4.800  15.477  0.00  0.00    +0.000 N 
ATOM      7  C   UNL     1       6.423   5.597  15.939  0.00  0.00    +0.000 A 
ATOM      8  N   UNL     1       7.409   5.643  15.062  0.00  0.00    +0.000 NA
ATOM      9  C   UNL     1       6.997   4.878  13.996  0.00  0.00    +0.000 A 
ATOM     10  C   UNL     1       7.646   4.597  12.784  0.00  0.00    +0.000 A 
ATOM     11  H   UNL     1       4.536   4.616  15.962  0.00  0.00    +0.000 HD
ENDBRANCH   1   7
BRANCH   1  12
ATOM     12  S   UNL     1       6.642   5.061  18.617  0.00  0.00    +0.000 S 
BRANCH  12  13
ATOM     13  C   UNL     1       5.005   4.535  18.889  0.00  0.00    +0.000 A 
ATOM     14  N   UNL     1       4.193   5.081  19.774  0.00  0.00    +0.000 NA
ATOM     15  C   UNL     1       3.034   4.358  19.647  0.00  0.00    +0.000 A 
ATOM     16  C   UNL     1       1.803   4.465  20.308  0.00  0.00    +0.000 A 
ATOM     17  C   UNL     1       0.785   3.564  19.960  0.00  0.00    +0.000 A 
ATOM     18  C   UNL     1       0.989   2.584  18.979  0.00  0.00    +0.000 A 
ATOM     19  C   UNL     1       2.213   2.467  18.309  0.00  0.00    +0.000 A 
ATOM     20  C   UNL     1       3.193   3.379  18.682  0.00  0.00    +0.000 A 
ATOM     21  O   UNL     1       4.461   3.486  18.191  0.00  0.00    +0.000 OA
ENDBRANCH  12  13
ENDBRANCH   1  12
TORSDOF 3
ENDMDL
MODEL 9
REMARK VINA RESULT:      -7.9      1.582      7.010
REMARK  Name = 
REMARK  3 active torsions:
REMARK  status: ('A' for Active; 'I' for Inactive)
REMARK    1  A    between atoms: C_6  and  C_7
REMARK    2  A    between atoms: C_7  and  S_8
REMARK    3  A    between atoms: S_8  and  C_9
REMARK                            x       y       z     vdW  Elec       q    Type
REMARK                         _______ _______ _______ _____ _____    ______ ____
ROOT
ATOM      1  C   UNL     1       6.621   5.611  17.490  0.00  0.00    +0.000 C 
ENDROOT
BRANCH   1   7
ATOM      2  C   UNL     1       7.242   4.232  11.682  0.00  0.00    +0.000 A 
ATOM      3  C   UNL     1       6.128   3.421  11.912  0.00  0.00    +0.000 A 
ATOM      4  C   UNL     1       5.534   3.343  13.178  0.00  0.00    +0.000 A 
ATOM      5  C   UNL     1       6.109   4.118  14.188  0.00  0.00    +0.000 A 
ATOM      6  N   UNL     1       5.797   4.290  15.511  0.00  0.00    +0.000 N 
ATOM      7  C   UNL     1       6.679   5.195  16.055  0.00  0.00    +0.000 A 
ATOM      8  N   UNL     1       7.558   5.586  15.151  0.00  0.00    +0.000 NA
ATOM      9  C   UNL     1       7.213   4.937  13.989  0.00  0.00    +0.000 A 
ATOM     10  C   UNL     1       7.799   4.998  12.715  0.00  0.00    +0.000 A 
ATOM     11  H   UNL     1       5.028   3.855  15.999  0.00  0.00    +0.000 HD
ENDBRANCH   1   7
BRANCH   1  12
ATOM     12  S   UNL     1       5.275   6.801  17.774  0.00  0.00    +0.000 S 
BRANCH  12  13
ATOM     13  C   UNL     1       4.040   5.736  18.382  0.00  0.00    +0.000 A 
ATOM     14  N   UNL     1       3.321   4.931  17.623  0.00  0.00    +0.000 NA
ATOM     15  C   UNL     1       2.487   4.299  18.510  0.00  0.00    +0.000 A 
ATOM     16  C   UNL     1       1.500   3.324  18.315  0.00  0.00    +0.000 A 
ATOM     17  C   UNL     1       0.796   2.862  19.437  0.00  0.00    +0.000 A 
ATOM     18  C   UNL     1       1.069   3.357  20.719  0.00  0.00    +0.000 A 
ATOM     19  C   UNL     1       2.054   4.330  20.929  0.00  0.00    +0.000 A 
ATOM     20  C   UNL     1       2.729   4.759  19.793  0.00  0.00    +0.000 A 
ATOM     21  O   UNL     1       3.726   5.687  19.717  0.00  0.00    +0.000 OA
ENDBRANCH  12  13
ENDBRANCH   1  12
TORSDOF 3
ENDMDL
