MODEL 1
REMARK VINA RESULT:      -8.4      0.000      0.000
REMARK  Name = 
REMARK  5 active torsions:
REMARK  status: ('A' for Active; 'I' for Inactive)
REMARK    1  A    between atoms: C_1  and  C_2
REMARK    2  A    between atoms: C_4  and  C_5
REMARK    3  A    between atoms: C_12  and  C_13
REMARK    4  A    between atoms: N_18  and  C_19
REMARK    5  A    between atoms: C_23  and  N_24
REMARK                            x       y       z     vdW  Elec       q    Type
REMARK                         _______ _______ _______ _____ _____    ______ ____
ROOT
ATOM      1  C   UNL     1       1.390   9.510  19.655  0.00  0.00    +0.000 A 
ATOM      2  C   UNL     1       1.681   9.453  18.306  0.00  0.00    +0.000 A 
ATOM      3  C   UNL     1       2.147   8.255  17.846  0.00  0.00    +0.000 A 
ATOM      4  N   UNL     1       2.312   7.187  18.634  0.00  0.00    +0.000 NA
ATOM      5  C   UNL     1       2.036   7.325  19.945  0.00  0.00    +0.000 A 
ATOM      6  N   UNL     1       2.222   6.223  20.779  0.00  0.00    +0.000 N 
ATOM      7  N   UNL     1       1.602   8.469  20.494  0.00  0.00    +0.000 NA
ATOM      8  H   UNL     1       2.117   6.468  21.752  0.00  0.00    +0.000 HD
ENDROOT
BRANCH   1  14
ATOM      9  C   UNL     1       1.913  12.670  19.085  0.00  0.00    +0.000 C 
ATOM     10  C   UNL     1       0.980  12.049  20.063  0.00  0.00    +0.000 A 
ATOM     11  N   UNL     1       0.216  12.897  20.861  0.00  0.00    +0.000 NA
ATOM     12  C   UNL     1      -0.563  12.203  21.673  0.00  0.00    +0.000 A 
ATOM     13  S   UNL     1      -0.410  10.501  21.511  0.00  0.00    +0.000 S 
ATOM     14  C   UNL     1       0.768  10.693  20.269  0.00  0.00    +0.000 A 
BRANCH  12  15
ATOM     15  C   UNL     1      -1.498  12.779  22.660  0.00  0.00    +0.000 A 
ATOM     16  C   UNL     1      -1.194  13.965  23.324  0.00  0.00    +0.000 A 
ATOM     17  C   UNL     1      -2.108  14.477  24.242  0.00  0.00    +0.000 A 
ATOM     18  C   UNL     1      -3.296  13.798  24.475  0.00  0.00    +0.000 A 
ATOM     19  C   UNL     1      -3.524  12.625  23.777  0.00  0.00    +0.000 A 
ATOM     20  N   UNL     1      -2.659  12.103  22.882  0.00  0.00    +0.000 NA
ENDBRANCH  12  15
ENDBRANCH   1  14
BRANCH   6  21
ATOM     21  C   UNL     1       2.048   4.871  20.442  0.00  0.00    +0.000 A 
ATOM     22  C   UNL     1       0.775   4.319  20.223  0.00  0.00    +0.000 A 
ATOM     23  C   UNL     1       0.608   2.997  19.807  0.00  0.00    +0.000 A 
ATOM     24  C   UNL     1       1.725   2.197  19.591  0.00  0.00    +0.000 A 
ATOM     25  C   UNL     1       3.002   2.730  19.812  0.00  0.00    +0.000 A 
ATOM     26  C   UNL     1       3.168   4.054  20.252  0.00  0.00    +0.000 A 
BRANCH  25  27
ATOM     27  N   UNL     1       4.182   1.897  19.556  0.00  0.00    +0.000 N 
ATOM     28  O   UNL     1       4.113   1.065  18.640  0.00  0.00    +0.000 OA
ATOM     29  O   UNL     1       5.180   2.074  20.270  0.00  0.00    +0.000 OA
ENDBRANCH  25  27
ENDBRANCH   6  21
TORSDOF 4
ENDMDL
MODEL 2
REMARK VINA RESULT:      -8.2      0.905      1.258
REMARK  Name = 
REMARK  5 active torsions:
REMARK  status: ('A' for Active; 'I' for Inactive)
REMARK    1  A    between atoms: C_1  and  C_2
REMARK    2  A    between atoms: C_4  and  C_5
REMARK    3  A    between atoms: C_12  and  C_13
REMARK    4  A    between atoms: N_18  and  C_19
REMARK    5  A    between atoms: C_23  and  N_24
REMARK                            x       y       z     vdW  Elec       q    Type
REMARK                         _______ _______ _______ _____ _____    ______ ____
ROOT
ATOM      1  C   UNL     1       1.364   9.715  19.568  0.00  0.00    +0.000 A 
ATOM      2  C   UNL     1       1.557   9.710  18.201  0.00  0.00    +0.000 A 
ATOM      3  C   UNL     1       1.996   8.533  17.665  0.00  0.00    +0.000 A 
ATOM      4  N   UNL     1       2.227   7.440  18.400  0.00  0.00    +0.000 NA
ATOM      5  C   UNL     1       2.046   7.527  19.731  0.00  0.00    +0.000 A 
ATOM      6  N   UNL     1       2.300   6.398  20.508  0.00  0.00    +0.000 N 
ATOM      7  N   UNL     1       1.644   8.647  20.351  0.00  0.00    +0.000 NA
ATOM      8  H   UNL     1       2.265   6.607  21.495  0.00  0.00    +0.000 HD
ENDROOT
BRANCH   1  14
ATOM      9  C   UNL     1       2.124  12.872  19.374  0.00  0.00    +0.000 C 
ATOM     10  C   UNL     1       1.092  12.220  20.224  0.00  0.00    +0.000 A 
ATOM     11  N   UNL     1       0.332  13.033  21.062  0.00  0.00    +0.000 NA
ATOM     12  C   UNL     1      -0.541  12.315  21.748  0.00  0.00    +0.000 A 
ATOM     13  S   UNL     1      -0.486  10.633  21.412  0.00  0.00    +0.000 S 
ATOM     14  C   UNL     1       0.780  10.868  20.269  0.00  0.00    +0.000 A 
BRANCH  12  15
ATOM     15  C   UNL     1      -1.500  12.850  22.735  0.00  0.00    +0.000 A 
ATOM     16  C   UNL     1      -2.700  12.192  22.993  0.00  0.00    +0.000 A 
ATOM     17  C   UNL     1      -3.573  12.727  23.936  0.00  0.00    +0.000 A 
ATOM     18  C   UNL     1      -3.232  13.900  24.596  0.00  0.00    +0.000 A 
ATOM     19  C   UNL     1      -2.022  14.495  24.283  0.00  0.00    +0.000 A 
ATOM     20  N   UNL     1      -1.155  14.002  23.374  0.00  0.00    +0.000 NA
ENDBRANCH  12  15
ENDBRANCH   1  14
BRANCH   6  21
ATOM     21  C   UNL     1       2.113   5.057  20.136  0.00  0.00    +0.000 A 
ATOM     22  C   UNL     1       0.964   4.338  20.508  0.00  0.00    +0.000 A 
ATOM     23  C   UNL     1       0.740   3.033  20.067  0.00  0.00    +0.000 A 
ATOM     24  C   UNL     1       1.665   2.419  19.229  0.00  0.00    +0.000 A 
ATOM     25  C   UNL     1       2.819   3.121  18.855  0.00  0.00    +0.000 A 
ATOM     26  C   UNL     1       3.055   4.427  19.316  0.00  0.00    +0.000 A 
BRANCH  25  27
ATOM     27  N   UNL     1       3.780   2.488  17.946  0.00  0.00    +0.000 N 
ATOM     28  O   UNL     1       4.448   3.225  17.206  0.00  0.00    +0.000 OA
ATOM     29  O   UNL     1       3.869   1.251  17.969  0.00  0.00    +0.000 OA
ENDBRANCH  25  27
ENDBRANCH   6  21
TORSDOF 4
ENDMDL
MODEL 3
REMARK VINA RESULT:      -8.2      1.438      1.714
REMARK  Name = 
REMARK  5 active torsions:
REMARK  status: ('A' for Active; 'I' for Inactive)
REMARK    1  A    between atoms: C_1  and  C_2
REMARK    2  A    between atoms: C_4  and  C_5
REMARK    3  A    between atoms: C_12  and  C_13
REMARK    4  A    between atoms: N_18  and  C_19
REMARK    5  A    between atoms: C_23  and  N_24
REMARK                            x       y       z     vdW  Elec       q    Type
REMARK                         _______ _______ _______ _____ _____    ______ ____
ROOT
ATOM      1  C   UNL     1       0.865   9.717  19.425  0.00  0.00    +0.000 A 
ATOM      2  C   UNL     1       1.498   9.693  18.198  0.00  0.00    +0.000 A 
ATOM      3  C   UNL     1       2.237   8.576  17.930  0.00  0.00    +0.000 A 
ATOM      4  N   UNL     1       2.351   7.556  18.786  0.00  0.00    +0.000 NA
ATOM      5  C   UNL     1       1.730   7.662  19.976  0.00  0.00    +0.000 A 
ATOM      6  N   UNL     1       1.857   6.610  20.884  0.00  0.00    +0.000 N 
ATOM      7  N   UNL     1       1.006   8.730  20.341  0.00  0.00    +0.000 NA
ATOM      8  H   UNL     1       1.470   6.846  21.786  0.00  0.00    +0.000 HD
ENDROOT
BRANCH   1  14
ATOM      9  C   UNL     1      -1.890  10.693  17.997  0.00  0.00    +0.000 C 
ATOM     10  C   UNL     1      -1.230  11.248  19.209  0.00  0.00    +0.000 A 
ATOM     11  N   UNL     1      -1.838  12.330  19.842  0.00  0.00    +0.000 NA
ATOM     12  C   UNL     1      -1.141  12.707  20.899  0.00  0.00    +0.000 A 
ATOM     13  S   UNL     1       0.274  11.777  21.178  0.00  0.00    +0.000 S 
ATOM     14  C   UNL     1      -0.061  10.795  19.803  0.00  0.00    +0.000 A 
BRANCH  12  15
ATOM     15  C   UNL     1      -1.490  13.826  21.798  0.00  0.00    +0.000 A 
ATOM     16  C   UNL     1      -1.088  13.822  23.132  0.00  0.00    +0.000 A 
ATOM     17  C   UNL     1      -1.432  14.899  23.943  0.00  0.00    +0.000 A 
ATOM     18  C   UNL     1      -2.166  15.951  23.409  0.00  0.00    +0.000 A 
ATOM     19  C   UNL     1      -2.529  15.881  22.075  0.00  0.00    +0.000 A 
ATOM     20  N   UNL     1      -2.210  14.850  21.264  0.00  0.00    +0.000 NA
ENDBRANCH  12  15
ENDBRANCH   1  14
BRANCH   6  21
ATOM     21  C   UNL     1       1.977   5.245  20.582  0.00  0.00    +0.000 A 
ATOM     22  C   UNL     1       0.851   4.428  20.383  0.00  0.00    +0.000 A 
ATOM     23  C   UNL     1       0.972   3.090  20.000  0.00  0.00    +0.000 A 
ATOM     24  C   UNL     1       2.235   2.543  19.799  0.00  0.00    +0.000 A 
ATOM     25  C   UNL     1       3.367   3.343  20.000  0.00  0.00    +0.000 A 
ATOM     26  C   UNL     1       3.246   4.682  20.406  0.00  0.00    +0.000 A 
BRANCH  25  27
ATOM     27  N   UNL     1       4.698   2.776  19.757  0.00  0.00    +0.000 N 
ATOM     28  O   UNL     1       4.986   1.712  20.325  0.00  0.00    +0.000 OA
ATOM     29  O   UNL     1       5.460   3.395  19.000  0.00  0.00    +0.000 OA
ENDBRANCH  25  27
ENDBRANCH   6  21
TORSDOF 4
ENDMDL
MODEL 4
REMARK VINA RESULT:      -8.1      1.510      1.904
REMARK  Name = 
REMARK  5 active torsions:
REMARK  status: ('A' for Active; 'I' for Inactive)
REMARK    1  A    between atoms: C_1  and  C_2
REMARK    2  A    between atoms: C_4  and  C_5
REMARK    3  A    between atoms: C_12  and  C_13
REMARK    4  A    between atoms: N_18  and  C_19
REMARK    5  A    between atoms: C_23  and  N_24
REMARK                            x       y       z     vdW  Elec       q    Type
REMARK                         _______ _______ _______ _____ _____    ______ ____
ROOT
ATOM      1  C   UNL     1       0.551  10.059  19.778  0.00  0.00    +0.000 A 
ATOM      2  C   UNL     1       1.029  10.195  18.490  0.00  0.00    +0.000 A 
ATOM      3  C   UNL     1       1.811   9.173  18.033  0.00  0.00    +0.000 A 
ATOM      4  N   UNL     1       2.105   8.096  18.769  0.00  0.00    +0.000 NA
ATOM      5  C   UNL     1       1.628   8.046  20.027  0.00  0.00    +0.000 A 
ATOM      6  N   UNL     1       1.944   6.936  20.810  0.00  0.00    +0.000 N 
ATOM      7  N   UNL     1       0.876   9.013  20.573  0.00  0.00    +0.000 NA
ATOM      8  H   UNL     1       1.654   7.059  21.769  0.00  0.00    +0.000 HD
ENDROOT
BRANCH   1  14
ATOM      9  C   UNL     1      -2.082  11.445  18.462  0.00  0.00    +0.000 C 
ATOM     10  C   UNL     1      -1.518  11.640  19.824  0.00  0.00    +0.000 A 
ATOM     11  N   UNL     1      -2.171  12.526  20.677  0.00  0.00    +0.000 NA
ATOM     12  C   UNL     1      -1.559  12.591  21.847  0.00  0.00    +0.000 A 
ATOM     13  S   UNL     1      -0.172  11.587  21.971  0.00  0.00    +0.000 S 
ATOM     14  C   UNL     1      -0.400  11.017  20.361  0.00  0.00    +0.000 A 
BRANCH  12  15
ATOM     15  C   UNL     1      -1.975  13.435  22.984  0.00  0.00    +0.000 A 
ATOM     16  C   UNL     1      -3.301  13.457  23.410  0.00  0.00    +0.000 A 
ATOM     17  C   UNL     1      -3.649  14.262  24.491  0.00  0.00    +0.000 A 
ATOM     18  C   UNL     1      -2.672  15.023  25.119  0.00  0.00    +0.000 A 
ATOM     19  C   UNL     1      -1.377  14.949  24.637  0.00  0.00    +0.000 A 
ATOM     20  N   UNL     1      -1.009  14.179  23.591  0.00  0.00    +0.000 NA
ENDBRANCH  12  15
ENDBRANCH   1  14
BRANCH   6  21
ATOM     21  C   UNL     1       2.128   5.616  20.367  0.00  0.00    +0.000 A 
ATOM     22  C   UNL     1       1.134   4.635  20.525  0.00  0.00    +0.000 A 
ATOM     23  C   UNL     1       1.285   3.347  20.010  0.00  0.00    +0.000 A 
ATOM     24  C   UNL     1       2.441   3.015  19.312  0.00  0.00    +0.000 A 
ATOM     25  C   UNL     1       3.444   3.979  19.152  0.00  0.00    +0.000 A 
ATOM     26  C   UNL     1       3.301   5.270  19.688  0.00  0.00    +0.000 A 
BRANCH  25  27
ATOM     27  N   UNL     1       4.650   3.641  18.388  0.00  0.00    +0.000 N 
ATOM     28  O   UNL     1       5.749   3.863  18.916  0.00  0.00    +0.000 OA
ATOM     29  O   UNL     1       4.501   3.153  17.258  0.00  0.00    +0.000 OA
ENDBRANCH  25  27
ENDBRANCH   6  21
TORSDOF 4
ENDMDL
MODEL 5
REMARK VINA RESULT:      -8.1      1.449      1.544
REMARK  Name = 
REMARK  5 active torsions:
REMARK  status: ('A' for Active; 'I' for Inactive)
REMARK    1  A    between atoms: C_1  and  C_2
REMARK    2  A    between atoms: C_4  and  C_5
REMARK    3  A    between atoms: C_12  and  C_13
REMARK    4  A    between atoms: N_18  and  C_19
REMARK    5  A    between atoms: C_23  and  N_24
REMARK                            x       y       z     vdW  Elec       q    Type
REMARK                         _______ _______ _______ _____ _____    ______ ____
ROOT
ATOM      1  C   UNL     1       0.538   9.925  19.732  0.00  0.00    +0.000 A 
ATOM      2  C   UNL     1       1.082  10.095  18.474  0.00  0.00    +0.000 A 
ATOM      3  C   UNL     1       1.923   9.106  18.049  0.00  0.00    +0.000 A 
ATOM      4  N   UNL     1       2.212   8.030  18.788  0.00  0.00    +0.000 NA
ATOM      5  C   UNL     1       1.669   7.946  20.017  0.00  0.00    +0.000 A 
ATOM      6  N   UNL     1       1.979   6.836  20.802  0.00  0.00    +0.000 N 
ATOM      7  N   UNL     1       0.855   8.880  20.531  0.00  0.00    +0.000 NA
ATOM      8  H   UNL     1       1.632   6.936  21.745  0.00  0.00    +0.000 HD
ENDROOT
BRANCH   1  14
ATOM      9  C   UNL     1      -1.651  11.762  18.177  0.00  0.00    +0.000 C 
ATOM     10  C   UNL     1      -1.409  11.652  19.640  0.00  0.00    +0.000 A 
ATOM     11  N   UNL     1      -2.200  12.422  20.489  0.00  0.00    +0.000 NA
ATOM     12  C   UNL     1      -1.872  12.216  21.753  0.00  0.00    +0.000 A 
ATOM     13  S   UNL     1      -0.600  11.085  21.974  0.00  0.00    +0.000 S 
ATOM     14  C   UNL     1      -0.476  10.843  20.273  0.00  0.00    +0.000 A 
BRANCH  12  15
ATOM     15  C   UNL     1      -2.500  12.871  22.917  0.00  0.00    +0.000 A 
ATOM     16  C   UNL     1      -1.998  14.070  23.419  0.00  0.00    +0.000 A 
ATOM     17  C   UNL     1      -2.624  14.658  24.514  0.00  0.00    +0.000 A 
ATOM     18  C   UNL     1      -3.731  14.041  25.081  0.00  0.00    +0.000 A 
ATOM     19  C   UNL     1      -4.169  12.851  24.527  0.00  0.00    +0.000 A 
ATOM     20  N   UNL     1      -3.583  12.256  23.466  0.00  0.00    +0.000 NA
ENDBRANCH  12  15
ENDBRANCH   1  14
BRANCH   6  21
ATOM     21  C   UNL     1       2.233   5.530  20.354  0.00  0.00    +0.000 A 
ATOM     22  C   UNL     1       1.304   4.491  20.535  0.00  0.00    +0.000 A 
ATOM     23  C   UNL     1       1.521   3.213  20.016  0.00  0.00    +0.000 A 
ATOM     24  C   UNL     1       2.679   2.951  19.291  0.00  0.00    +0.000 A 
ATOM     25  C   UNL     1       3.618   3.975  19.108  0.00  0.00    +0.000 A 
ATOM     26  C   UNL     1       3.409   5.255  19.649  0.00  0.00    +0.000 A 
BRANCH  25  27
ATOM     27  N   UNL     1       4.824   3.710  18.317  0.00  0.00    +0.000 N 
ATOM     28  O   UNL     1       4.677   3.255  17.173  0.00  0.00    +0.000 OA
ATOM     29  O   UNL     1       5.922   3.956  18.838  0.00  0.00    +0.000 OA
ENDBRANCH  25  27
ENDBRANCH   6  21
TORSDOF 4
ENDMDL
MODEL 6
REMARK VINA RESULT:      -8.1      5.569     10.583
REMARK  Name = 
REMARK  5 active torsions:
REMARK  status: ('A' for Active; 'I' for Inactive)
REMARK    1  A    between atoms: C_1  and  C_2
REMARK    2  A    between atoms: C_4  and  C_5
REMARK    3  A    between atoms: C_12  and  C_13
REMARK    4  A    between atoms: N_18  and  C_19
REMARK    5  A    between atoms: C_23  and  N_24
REMARK                            x       y       z     vdW  Elec       q    Type
REMARK                         _______ _______ _______ _____ _____    ______ ____
ROOT
ATOM      1  C   UNL     1       3.316   6.285  18.454  0.00  0.00    +0.000 A 
ATOM      2  C   UNL     1       2.939   5.802  19.691  0.00  0.00    +0.000 A 
ATOM      3  C   UNL     1       2.153   6.630  20.441  0.00  0.00    +0.000 A 
ATOM      4  N   UNL     1       1.757   7.835  20.020  0.00  0.00    +0.000 NA
ATOM      5  C   UNL     1       2.187   8.253  18.815  0.00  0.00    +0.000 A 
ATOM      6  N   UNL     1       1.795   9.517  18.374  0.00  0.00    +0.000 N 
ATOM      7  N   UNL     1       2.984   7.523  18.020  0.00  0.00    +0.000 NA
ATOM      8  H   UNL     1       2.276   9.784  17.528  0.00  0.00    +0.000 HD
ENDROOT
BRANCH   1  14
ATOM      9  C   UNL     1       3.985   3.102  18.513  0.00  0.00    +0.000 C 
ATOM     10  C   UNL     1       4.377   4.110  17.492  0.00  0.00    +0.000 A 
ATOM     11  N   UNL     1       5.133   3.675  16.406  0.00  0.00    +0.000 NA
ATOM     12  C   UNL     1       5.399   4.678  15.587  0.00  0.00    +0.000 A 
ATOM     13  S   UNL     1       4.751   6.187  16.088  0.00  0.00    +0.000 S 
ATOM     14  C   UNL     1       4.059   5.461  17.489  0.00  0.00    +0.000 A 
BRANCH  12  15
ATOM     15  C   UNL     1       6.185   4.579  14.341  0.00  0.00    +0.000 A 
ATOM     16  C   UNL     1       5.783   3.733  13.310  0.00  0.00    +0.000 A 
ATOM     17  C   UNL     1       6.549   3.675  12.149  0.00  0.00    +0.000 A 
ATOM     18  C   UNL     1       7.692   4.457  12.043  0.00  0.00    +0.000 A 
ATOM     19  C   UNL     1       8.026   5.271  13.112  0.00  0.00    +0.000 A 
ATOM     20  N   UNL     1       7.304   5.349  14.250  0.00  0.00    +0.000 NA
ENDBRANCH  12  15
ENDBRANCH   1  14
BRANCH   6  21
ATOM     21  C   UNL     1       0.579  10.164  18.644  0.00  0.00    +0.000 A 
ATOM     22  C   UNL     1       0.434  11.048  19.727  0.00  0.00    +0.000 A 
ATOM     23  C   UNL     1      -0.749  11.755  19.946  0.00  0.00    +0.000 A 
ATOM     24  C   UNL     1      -1.819  11.595  19.071  0.00  0.00    +0.000 A 
ATOM     25  C   UNL     1      -1.693  10.712  17.991  0.00  0.00    +0.000 A 
ATOM     26  C   UNL     1      -0.509   9.985  17.783  0.00  0.00    +0.000 A 
BRANCH  25  27
ATOM     27  N   UNL     1      -2.809  10.566  17.050  0.00  0.00    +0.000 N 
ATOM     28  O   UNL     1      -2.625  10.922  15.877  0.00  0.00    +0.000 OA
ATOM     29  O   UNL     1      -3.871  10.095  17.481  0.00  0.00    +0.000 OA
ENDBRANCH  25  27
ENDBRANCH   6  21
TORSDOF 4
ENDMDL
MODEL 7
REMARK VINA RESULT:      -8.0      3.680      4.638
REMARK  Name = 
REMARK  5 active torsions:
REMARK  status: ('A' for Active; 'I' for Inactive)
REMARK    1  A    between atoms: C_1  and  C_2
REMARK    2  A    between atoms: C_4  and  C_5
REMARK    3  A    between atoms: C_12  and  C_13
REMARK    4  A    between atoms: N_18  and  C_19
REMARK    5  A    between atoms: C_23  and  N_24
REMARK                            x       y       z     vdW  Elec       q    Type
REMARK                         _______ _______ _______ _____ _____    ______ ____
ROOT
ATOM      1  C   UNL     1       0.922   9.887  19.603  0.00  0.00    +0.000 A 
ATOM      2  C   UNL     1       0.767   9.399  20.885  0.00  0.00    +0.000 A 
ATOM      3  C   UNL     1       1.304   8.167  21.123  0.00  0.00    +0.000 A 
ATOM      4  N   UNL     1       1.948   7.461  20.188  0.00  0.00    +0.000 NA
ATOM      5  C   UNL     1       2.035   7.987  18.952  0.00  0.00    +0.000 A 
ATOM      6  N   UNL     1       2.690   7.250  17.965  0.00  0.00    +0.000 N 
ATOM      7  N   UNL     1       1.515   9.176  18.616  0.00  0.00    +0.000 NA
ATOM      8  H   UNL     1       2.582   7.669  17.053  0.00  0.00    +0.000 HD
ENDROOT
BRANCH   1  14
ATOM      9  C   UNL     1      -1.798  10.904  18.135  0.00  0.00    +0.000 C 
ATOM     10  C   UNL     1      -0.635  11.712  18.589  0.00  0.00    +0.000 A 
ATOM     11  N   UNL     1      -0.676  13.088  18.374  0.00  0.00    +0.000 NA
ATOM     12  C   UNL     1       0.419  13.668  18.832  0.00  0.00    +0.000 A 
ATOM     13  S   UNL     1       1.544  12.585  19.544  0.00  0.00    +0.000 S 
ATOM     14  C   UNL     1       0.505  11.248  19.230  0.00  0.00    +0.000 A 
BRANCH  12  15
ATOM     15  C   UNL     1       0.713  15.114  18.764  0.00  0.00    +0.000 A 
ATOM     16  C   UNL     1      -0.314  16.047  18.646  0.00  0.00    +0.000 A 
ATOM     17  C   UNL     1       0.007  17.400  18.592  0.00  0.00    +0.000 A 
ATOM     18  C   UNL     1       1.339  17.790  18.656  0.00  0.00    +0.000 A 
ATOM     19  C   UNL     1       2.302  16.803  18.772  0.00  0.00    +0.000 A 
ATOM     20  N   UNL     1       2.022  15.483  18.826  0.00  0.00    +0.000 NA
ENDBRANCH  12  15
ENDBRANCH   1  14
BRANCH   6  21
ATOM     21  C   UNL     1       3.782   6.385  18.142  0.00  0.00    +0.000 A 
ATOM     22  C   UNL     1       3.722   5.286  19.015  0.00  0.00    +0.000 A 
ATOM     23  C   UNL     1       4.777   4.379  19.128  0.00  0.00    +0.000 A 
ATOM     24  C   UNL     1       5.920   4.552  18.355  0.00  0.00    +0.000 A 
ATOM     25  C   UNL     1       5.998   5.648  17.484  0.00  0.00    +0.000 A 
ATOM     26  C   UNL     1       4.944   6.572  17.387  0.00  0.00    +0.000 A 
BRANCH  25  27
ATOM     27  N   UNL     1       7.189   5.814  16.645  0.00  0.00    +0.000 N 
ATOM     28  O   UNL     1       7.617   4.818  16.045  0.00  0.00    +0.000 OA
ATOM     29  O   UNL     1       7.700   6.942  16.584  0.00  0.00    +0.000 OA
ENDBRANCH  25  27
ENDBRANCH   6  21
TORSDOF 4
ENDMDL
MODEL 8
REMARK VINA RESULT:      -8.0      1.848      2.125
REMARK  Name = 
REMARK  5 active torsions:
REMARK  status: ('A' for Active; 'I' for Inactive)
REMARK    1  A    between atoms: C_1  and  C_2
REMARK    2  A    between atoms: C_4  and  C_5
REMARK    3  A    between atoms: C_12  and  C_13
REMARK    4  A    between atoms: N_18  and  C_19
REMARK    5  A    between atoms: C_23  and  N_24
REMARK                            x       y       z     vdW  Elec       q    Type
REMARK                         _______ _______ _______ _____ _____    ______ ____
ROOT
ATOM      1  C   UNL     1       1.177   9.708  19.022  0.00  0.00    +0.000 A 
ATOM      2  C   UNL     1       1.870   9.571  17.835  0.00  0.00    +0.000 A 
ATOM      3  C   UNL     1       2.576   8.411  17.687  0.00  0.00    +0.000 A 
ATOM      4  N   UNL     1       2.604   7.452  18.618  0.00  0.00    +0.000 NA
ATOM      5  C   UNL     1       1.928   7.667  19.762  0.00  0.00    +0.000 A 
ATOM      6  N   UNL     1       1.966   6.681  20.748  0.00  0.00    +0.000 N 
ATOM      7  N   UNL     1       1.231   8.786  20.011  0.00  0.00    +0.000 NA
ATOM      8  H   UNL     1       1.544   6.996  21.609  0.00  0.00    +0.000 HD
ENDROOT
BRANCH   1  14
ATOM      9  C   UNL     1       1.823  12.895  19.109  0.00  0.00    +0.000 C 
ATOM     10  C   UNL     1       0.523  12.209  19.335  0.00  0.00    +0.000 A 
ATOM     11  N   UNL     1      -0.586  12.998  19.629  0.00  0.00    +0.000 NA
ATOM     12  C   UNL     1      -1.663  12.251  19.800  0.00  0.00    +0.000 A 
ATOM     13  S   UNL     1      -1.388  10.567  19.612  0.00  0.00    +0.000 S 
ATOM     14  C   UNL     1       0.278  10.844  19.273  0.00  0.00    +0.000 A 
BRANCH  12  15
ATOM     15  C   UNL     1      -3.011  12.756  20.130  0.00  0.00    +0.000 A 
ATOM     16  C   UNL     1      -4.132  12.306  19.437  0.00  0.00    +0.000 A 
ATOM     17  C   UNL     1      -5.384  12.803  19.785  0.00  0.00    +0.000 A 
ATOM     18  C   UNL     1      -5.490  13.733  20.811  0.00  0.00    +0.000 A 
ATOM     19  C   UNL     1      -4.330  14.132  21.451  0.00  0.00    +0.000 A 
ATOM     20  N   UNL     1      -3.101  13.669  21.136  0.00  0.00    +0.000 NA
ENDBRANCH  12  15
ENDBRANCH   1  14
BRANCH   6  21
ATOM     21  C   UNL     1       2.045   5.293  20.549  0.00  0.00    +0.000 A 
ATOM     22  C   UNL     1       0.896   4.487  20.483  0.00  0.00    +0.000 A 
ATOM     23  C   UNL     1       0.972   3.121  20.202  0.00  0.00    +0.000 A 
ATOM     24  C   UNL     1       2.211   2.533  19.972  0.00  0.00    +0.000 A 
ATOM     25  C   UNL     1       3.366   3.322  20.042  0.00  0.00    +0.000 A 
ATOM     26  C   UNL     1       3.291   4.692  20.345  0.00  0.00    +0.000 A 
BRANCH  25  27
ATOM     27  N   UNL     1       4.671   2.710  19.768  0.00  0.00    +0.000 N 
ATOM     28  O   UNL     1       5.420   3.283  18.963  0.00  0.00    +0.000 OA
ATOM     29  O   UNL     1       4.949   1.655  20.357  0.00  0.00    +0.000 OA
ENDBRANCH  25  27
ENDBRANCH   6  21
TORSDOF 4
ENDMDL
MODEL 9
REMARK VINA RESULT:      -8.0      2.165      2.563
REMARK  Name = 
REMARK  5 active torsions:
REMARK  status: ('A' for Active; 'I' for Inactive)
REMARK    1  A    between atoms: C_1  and  C_2
REMARK    2  A    between atoms: C_4  and  C_5
REMARK    3  A    between atoms: C_12  and  C_13
REMARK    4  A    between atoms: N_18  and  C_19
REMARK    5  A    between atoms: C_23  and  N_24
REMARK                            x       y       z     vdW  Elec       q    Type
REMARK                         _______ _______ _______ _____ _____    ______ ____
ROOT
ATOM      1  C   UNL     1       0.737   9.826  20.085  0.00  0.00    +0.000 A 
ATOM      2  C   UNL     1       0.922  10.371  18.830  0.00  0.00    +0.000 A 
ATOM      3  C   UNL     1       1.679   9.633  17.965  0.00  0.00    +0.000 A 
ATOM      4  N   UNL     1       2.213   8.451  18.292  0.00  0.00    +0.000 NA
ATOM      5  C   UNL     1       2.015   7.996  19.543  0.00  0.00    +0.000 A 
ATOM      6  N   UNL     1       2.582   6.773  19.900  0.00  0.00    +0.000 N 
ATOM      7  N   UNL     1       1.310   8.663  20.470  0.00  0.00    +0.000 NA
ATOM      8  H   UNL     1       2.488   6.591  20.888  0.00  0.00    +0.000 HD
ENDROOT
BRANCH   1  14
ATOM      9  C   UNL     1       0.474   9.266  23.279  0.00  0.00    +0.000 C 
ATOM     10  C   UNL     1      -0.303  10.218  22.440  0.00  0.00    +0.000 A 
ATOM     11  N   UNL     1      -1.282  10.986  23.066  0.00  0.00    +0.000 NA
ATOM     12  C   UNL     1      -1.881  11.782  22.197  0.00  0.00    +0.000 A 
ATOM     13  S   UNL     1      -1.291  11.642  20.592  0.00  0.00    +0.000 S 
ATOM     14  C   UNL     1      -0.153  10.445  21.079  0.00  0.00    +0.000 A 
BRANCH  12  15
ATOM     15  C   UNL     1      -2.972  12.726  22.514  0.00  0.00    +0.000 A 
ATOM     16  C   UNL     1      -3.031  13.978  21.907  0.00  0.00    +0.000 A 
ATOM     17  C   UNL     1      -4.081  14.834  22.229  0.00  0.00    +0.000 A 
ATOM     18  C   UNL     1      -5.042  14.424  23.143  0.00  0.00    +0.000 A 
ATOM     19  C   UNL     1      -4.913  13.166  23.704  0.00  0.00    +0.000 A 
ATOM     20  N   UNL     1      -3.907  12.313  23.413  0.00  0.00    +0.000 NA
ENDBRANCH  12  15
ENDBRANCH   1  14
BRANCH   6  21
ATOM     21  C   UNL     1       2.785   5.662  19.065  0.00  0.00    +0.000 A 
ATOM     22  C   UNL     1       1.731   4.810  18.696  0.00  0.00    +0.000 A 
ATOM     23  C   UNL     1       1.918   3.755  17.801  0.00  0.00    +0.000 A 
ATOM     24  C   UNL     1       3.174   3.538  17.244  0.00  0.00    +0.000 A 
ATOM     25  C   UNL     1       4.237   4.375  17.608  0.00  0.00    +0.000 A 
ATOM     26  C   UNL     1       4.053   5.423  18.526  0.00  0.00    +0.000 A 
BRANCH  25  27
ATOM     27  N   UNL     1       5.555   4.167  16.998  0.00  0.00    +0.000 N 
ATOM     28  O   UNL     1       6.554   4.468  17.667  0.00  0.00    +0.000 OA
ATOM     29  O   UNL     1       5.593   3.704  15.849  0.00  0.00    +0.000 OA
ENDBRANCH  25  27
ENDBRANCH   6  21
TORSDOF 4
ENDMDL
