MODEL 1
REMARK VINA RESULT:      -7.9      0.000      0.000
REMARK  Name = 
REMARK  2 active torsions:
REMARK  status: ('A' for Active; 'I' for Inactive)
REMARK    1  A    between atoms: O_1  and  C_2
REMARK    2  A    between atoms: C_3  and  C_4
REMARK                            x       y       z     vdW  Elec       q    Type
REMARK                         _______ _______ _______ _____ _____    ______ ____
ROOT
ATOM      1  C   UNL     1       4.877   4.093  16.786  0.00  0.00    +0.000 A 
ATOM      2  C   UNL     1       4.976   4.549  18.056  0.00  0.00    +0.000 A 
ATOM      3  N   UNL     1       5.971   5.431  18.443  0.00  0.00    +0.000 NA
ATOM      4  N   UNL     1       6.838   5.852  17.628  0.00  0.00    +0.000 NA
ATOM      5  C   UNL     1       6.830   5.443  16.324  0.00  0.00    +0.000 A 
ATOM      6  N   UNL     1       7.645   5.762  15.338  0.00  0.00    +0.000 NA
ATOM      7  C   UNL     1       7.190   5.072  14.246  0.00  0.00    +0.000 A 
ATOM      8  C   UNL     1       7.698   5.052  12.938  0.00  0.00    +0.000 A 
ATOM      9  C   UNL     1       7.061   4.261  11.974  0.00  0.00    +0.000 A 
ATOM     10  C   UNL     1       5.940   3.500  12.307  0.00  0.00    +0.000 A 
ATOM     11  C   UNL     1       5.420   3.506  13.608  0.00  0.00    +0.000 A 
ATOM     12  C   UNL     1       6.069   4.307  14.557  0.00  0.00    +0.000 A 
ATOM     13  N   UNL     1       5.848   4.560  15.897  0.00  0.00    +0.000 N 
ENDROOT
BRANCH   2  14
ATOM     14  C   UNL     1       4.040   4.112  19.106  0.00  0.00    +0.000 A 
ATOM     15  C   UNL     1       4.199   2.857  19.710  0.00  0.00    +0.000 A 
ATOM     16  C   UNL     1       3.300   2.427  20.689  0.00  0.00    +0.000 A 
ATOM     17  C   UNL     1       2.242   3.251  21.069  0.00  0.00    +0.000 A 
ATOM     18 CL   UNL     1       1.130   2.717  22.268  0.00  0.00    +0.000 Cl
ATOM     19  C   UNL     1       2.078   4.504  20.480  0.00  0.00    +0.000 A 
ATOM     20  C   UNL     1       2.975   4.935  19.499  0.00  0.00    +0.000 A 
ENDBRANCH   2  14
BRANCH   1  21
ATOM     21  O   UNL     1       3.905   3.217  16.333  0.00  0.00    +0.000 OA
ATOM     22  H   UNL     1       3.025   3.618  16.450  0.00  0.00    +0.000 HD
ENDBRANCH   1  21
TORSDOF 2
ENDMDL
MODEL 2
REMARK VINA RESULT:      -7.8      0.116      1.058
REMARK  Name = 
REMARK  2 active torsions:
REMARK  status: ('A' for Active; 'I' for Inactive)
REMARK    1  A    between atoms: O_1  and  C_2
REMARK    2  A    between atoms: C_3  and  C_4
REMARK                            x       y       z     vdW  Elec       q    Type
REMARK                         _______ _______ _______ _____ _____    ______ ____
ROOT
ATOM      1  C   UNL     1       4.892   4.047  16.700  0.00  0.00    +0.000 A 
ATOM      2  C   UNL     1       4.970   4.484  17.978  0.00  0.00    +0.000 A 
ATOM      3  N   UNL     1       5.956   5.366  18.393  0.00  0.00    +0.000 NA
ATOM      4  N   UNL     1       6.831   5.804  17.596  0.00  0.00    +0.000 NA
ATOM      5  C   UNL     1       6.844   5.415  16.287  0.00  0.00    +0.000 A 
ATOM      6  N   UNL     1       7.671   5.753  15.317  0.00  0.00    +0.000 NA
ATOM      7  C   UNL     1       7.235   5.076  14.209  0.00  0.00    +0.000 A 
ATOM      8  C   UNL     1       7.761   5.079  12.907  0.00  0.00    +0.000 A 
ATOM      9  C   UNL     1       7.143   4.299  11.923  0.00  0.00    +0.000 A 
ATOM     10  C   UNL     1       6.021   3.527  12.229  0.00  0.00    +0.000 A 
ATOM     11  C   UNL     1       5.483   3.510  13.522  0.00  0.00    +0.000 A 
ATOM     12  C   UNL     1       6.114   4.301  14.492  0.00  0.00    +0.000 A 
ATOM     13  N   UNL     1       5.873   4.533  15.833  0.00  0.00    +0.000 N 
ENDROOT
BRANCH   2  14
ATOM     14  C   UNL     1       4.022   4.026  19.009  0.00  0.00    +0.000 A 
ATOM     15  C   UNL     1       2.877   4.783  19.293  0.00  0.00    +0.000 A 
ATOM     16  C   UNL     1       1.987   4.366  20.287  0.00  0.00    +0.000 A 
ATOM     17  C   UNL     1       2.238   3.193  20.995  0.00  0.00    +0.000 A 
ATOM     18 CL   UNL     1       1.146   2.686  22.224  0.00  0.00    +0.000 Cl
ATOM     19  C   UNL     1       3.370   2.430  20.715  0.00  0.00    +0.000 A 
ATOM     20  C   UNL     1       4.262   2.845  19.724  0.00  0.00    +0.000 A 
ENDBRANCH   2  14
BRANCH   1  21
ATOM     21  O   UNL     1       3.931   3.172  16.221  0.00  0.00    +0.000 OA
ATOM     22  H   UNL     1       3.528   2.692  16.967  0.00  0.00    +0.000 HD
ENDBRANCH   1  21
TORSDOF 2
ENDMDL
MODEL 3
REMARK VINA RESULT:      -7.8      5.368      8.574
REMARK  Name = 
REMARK  2 active torsions:
REMARK  status: ('A' for Active; 'I' for Inactive)
REMARK    1  A    between atoms: O_1  and  C_2
REMARK    2  A    between atoms: C_3  and  C_4
REMARK                            x       y       z     vdW  Elec       q    Type
REMARK                         _______ _______ _______ _____ _____    ______ ____
ROOT
ATOM      1  C   UNL     1       1.900   8.069  19.615  0.00  0.00    +0.000 A 
ATOM      2  C   UNL     1       2.351   8.031  18.340  0.00  0.00    +0.000 A 
ATOM      3  N   UNL     1       2.057   9.032  17.429  0.00  0.00    +0.000 NA
ATOM      4  N   UNL     1       1.351  10.030  17.745  0.00  0.00    +0.000 NA
ATOM      5  C   UNL     1       0.841  10.156  19.005  0.00  0.00    +0.000 A 
ATOM      6  N   UNL     1       0.086  11.109  19.516  0.00  0.00    +0.000 NA
ATOM      7  C   UNL     1      -0.143  10.741  20.815  0.00  0.00    +0.000 A 
ATOM      8  C   UNL     1      -0.889  11.403  21.803  0.00  0.00    +0.000 A 
ATOM      9  C   UNL     1      -0.986  10.832  23.077  0.00  0.00    +0.000 A 
ATOM     10  C   UNL     1      -0.355   9.621  23.363  0.00  0.00    +0.000 A 
ATOM     11  C   UNL     1       0.392   8.945  22.390  0.00  0.00    +0.000 A 
ATOM     12  C   UNL     1       0.481   9.535  21.122  0.00  0.00    +0.000 A 
ATOM     13  N   UNL     1       1.113   9.174  19.947  0.00  0.00    +0.000 N 
ENDROOT
BRANCH   2  14
ATOM     14  C   UNL     1       3.162   6.907  17.842  0.00  0.00    +0.000 A 
ATOM     15  C   UNL     1       4.409   7.151  17.248  0.00  0.00    +0.000 A 
ATOM     16  C   UNL     1       5.172   6.091  16.752  0.00  0.00    +0.000 A 
ATOM     17  C   UNL     1       4.693   4.786  16.851  0.00  0.00    +0.000 A 
ATOM     18 CL   UNL     1       5.629   3.482  16.232  0.00  0.00    +0.000 Cl
ATOM     19  C   UNL     1       3.459   4.531  17.447  0.00  0.00    +0.000 A 
ATOM     20  C   UNL     1       2.693   5.590  17.942  0.00  0.00    +0.000 A 
ENDBRANCH   2  14
BRANCH   1  21
ATOM     21  O   UNL     1       2.162   7.105  20.575  0.00  0.00    +0.000 OA
ATOM     22  H   UNL     1       1.691   6.283  20.348  0.00  0.00    +0.000 HD
ENDBRANCH   1  21
TORSDOF 2
ENDMDL
MODEL 4
REMARK VINA RESULT:      -7.7      5.373      8.567
REMARK  Name = 
REMARK  2 active torsions:
REMARK  status: ('A' for Active; 'I' for Inactive)
REMARK    1  A    between atoms: O_1  and  C_2
REMARK    2  A    between atoms: C_3  and  C_4
REMARK                            x       y       z     vdW  Elec       q    Type
REMARK                         _______ _______ _______ _____ _____    ______ ____
ROOT
ATOM      1  C   UNL     1       1.884   8.078  19.618  0.00  0.00    +0.000 A 
ATOM      2  C   UNL     1       2.323   8.042  18.338  0.00  0.00    +0.000 A 
ATOM      3  N   UNL     1       2.020   9.044  17.431  0.00  0.00    +0.000 NA
ATOM      4  N   UNL     1       1.317  10.041  17.755  0.00  0.00    +0.000 NA
ATOM      5  C   UNL     1       0.818  10.164  19.021  0.00  0.00    +0.000 A 
ATOM      6  N   UNL     1       0.067  11.116  19.539  0.00  0.00    +0.000 NA
ATOM      7  C   UNL     1      -0.150  10.747  20.840  0.00  0.00    +0.000 A 
ATOM      8  C   UNL     1      -0.887  11.407  21.836  0.00  0.00    +0.000 A 
ATOM      9  C   UNL     1      -0.972  10.834  23.110  0.00  0.00    +0.000 A 
ATOM     10  C   UNL     1      -0.337   9.623  23.388  0.00  0.00    +0.000 A 
ATOM     11  C   UNL     1       0.401   8.949  22.408  0.00  0.00    +0.000 A 
ATOM     12  C   UNL     1       0.478   9.541  21.139  0.00  0.00    +0.000 A 
ATOM     13  N   UNL     1       1.099   9.181  19.959  0.00  0.00    +0.000 N 
ENDROOT
BRANCH   2  14
ATOM     14  C   UNL     1       3.131   6.919  17.832  0.00  0.00    +0.000 A 
ATOM     15  C   UNL     1       2.642   5.608  17.919  0.00  0.00    +0.000 A 
ATOM     16  C   UNL     1       3.414   4.536  17.463  0.00  0.00    +0.000 A 
ATOM     17  C   UNL     1       4.674   4.773  16.916  0.00  0.00    +0.000 A 
ATOM     18 CL   UNL     1       5.627   3.453  16.363  0.00  0.00    +0.000 Cl
ATOM     19  C   UNL     1       5.166   6.073  16.817  0.00  0.00    +0.000 A 
ATOM     20  C   UNL     1       4.396   7.146  17.275  0.00  0.00    +0.000 A 
ENDBRANCH   2  14
BRANCH   1  21
ATOM     21  O   UNL     1       2.155   7.113  20.574  0.00  0.00    +0.000 OA
ATOM     22  H   UNL     1       1.782   7.389  21.430  0.00  0.00    +0.000 HD
ENDBRANCH   1  21
TORSDOF 2
ENDMDL
MODEL 5
REMARK VINA RESULT:      -7.5      5.063      8.110
REMARK  Name = 
REMARK  2 active torsions:
REMARK  status: ('A' for Active; 'I' for Inactive)
REMARK    1  A    between atoms: O_1  and  C_2
REMARK    2  A    between atoms: C_3  and  C_4
REMARK                            x       y       z     vdW  Elec       q    Type
REMARK                         _______ _______ _______ _____ _____    ______ ____
ROOT
ATOM      1  C   UNL     1       1.642   7.576  20.019  0.00  0.00    +0.000 A 
ATOM      2  C   UNL     1       2.267   7.203  18.879  0.00  0.00    +0.000 A 
ATOM      3  N   UNL     1       2.497   8.094  17.843  0.00  0.00    +0.000 NA
ATOM      4  N   UNL     1       2.131   9.300  17.914  0.00  0.00    +0.000 NA
ATOM      5  C   UNL     1       1.484   9.772  19.019  0.00  0.00    +0.000 A 
ATOM      6  N   UNL     1       1.024  10.982  19.271  0.00  0.00    +0.000 NA
ATOM      7  C   UNL     1       0.461  10.910  20.518  0.00  0.00    +0.000 A 
ATOM      8  C   UNL     1      -0.174  11.917  21.262  0.00  0.00    +0.000 A 
ATOM      9  C   UNL     1      -0.681  11.608  22.529  0.00  0.00    +0.000 A 
ATOM     10  C   UNL     1      -0.562  10.318  23.047  0.00  0.00    +0.000 A 
ATOM     11  C   UNL     1       0.066   9.299  22.319  0.00  0.00    +0.000 A 
ATOM     12  C   UNL     1       0.571   9.630  21.054  0.00  0.00    +0.000 A 
ATOM     13  N   UNL     1       1.235   8.911  20.078  0.00  0.00    +0.000 N 
ENDROOT
BRANCH   2  14
ATOM     14  C   UNL     1       2.719   5.817  18.666  0.00  0.00    +0.000 A 
ATOM     15  C   UNL     1       1.922   4.924  17.936  0.00  0.00    +0.000 A 
ATOM     16  C   UNL     1       2.334   3.602  17.752  0.00  0.00    +0.000 A 
ATOM     17  C   UNL     1       3.543   3.170  18.294  0.00  0.00    +0.000 A 
ATOM     18 CL   UNL     1       4.044   1.539  18.074  0.00  0.00    +0.000 Cl
ATOM     19  C   UNL     1       4.346   4.051  19.015  0.00  0.00    +0.000 A 
ATOM     20  C   UNL     1       3.935   5.374  19.202  0.00  0.00    +0.000 A 
ENDBRANCH   2  14
BRANCH   1  21
ATOM     21  O   UNL     1       1.387   6.738  21.092  0.00  0.00    +0.000 OA
ATOM     22  H   UNL     1       0.706   6.087  20.842  0.00  0.00    +0.000 HD
ENDBRANCH   1  21
TORSDOF 2
ENDMDL
MODEL 6
REMARK VINA RESULT:      -7.4      5.038      8.067
REMARK  Name = 
REMARK  2 active torsions:
REMARK  status: ('A' for Active; 'I' for Inactive)
REMARK    1  A    between atoms: O_1  and  C_2
REMARK    2  A    between atoms: C_3  and  C_4
REMARK                            x       y       z     vdW  Elec       q    Type
REMARK                         _______ _______ _______ _____ _____    ______ ____
ROOT
ATOM      1  C   UNL     1       1.632   7.520  20.025  0.00  0.00    +0.000 A 
ATOM      2  C   UNL     1       2.256   7.137  18.887  0.00  0.00    +0.000 A 
ATOM      3  N   UNL     1       2.498   8.022  17.850  0.00  0.00    +0.000 NA
ATOM      4  N   UNL     1       2.146   9.232  17.915  0.00  0.00    +0.000 NA
ATOM      5  C   UNL     1       1.500   9.715  19.018  0.00  0.00    +0.000 A 
ATOM      6  N   UNL     1       1.052  10.930  19.265  0.00  0.00    +0.000 NA
ATOM      7  C   UNL     1       0.485  10.867  20.510  0.00  0.00    +0.000 A 
ATOM      8  C   UNL     1      -0.142  11.884  21.249  0.00  0.00    +0.000 A 
ATOM      9  C   UNL     1      -0.655  11.584  22.516  0.00  0.00    +0.000 A 
ATOM     10  C   UNL     1      -0.551  10.294  23.038  0.00  0.00    +0.000 A 
ATOM     11  C   UNL     1       0.068   9.267  22.315  0.00  0.00    +0.000 A 
ATOM     12  C   UNL     1       0.580   9.588  21.050  0.00  0.00    +0.000 A 
ATOM     13  N   UNL     1       1.239   8.859  20.079  0.00  0.00    +0.000 N 
ENDROOT
BRANCH   2  14
ATOM     14  C   UNL     1       2.694   5.745  18.680  0.00  0.00    +0.000 A 
ATOM     15  C   UNL     1       3.923   5.312  19.196  0.00  0.00    +0.000 A 
ATOM     16  C   UNL     1       4.355   4.001  18.981  0.00  0.00    +0.000 A 
ATOM     17  C   UNL     1       3.558   3.119  18.253  0.00  0.00    +0.000 A 
ATOM     18 CL   UNL     1       4.094   1.508  17.982  0.00  0.00    +0.000 Cl
ATOM     19  C   UNL     1       2.330   3.537  17.742  0.00  0.00    +0.000 A 
ATOM     20  C   UNL     1       1.898   4.849  17.954  0.00  0.00    +0.000 A 
ENDBRANCH   2  14
BRANCH   1  21
ATOM     21  O   UNL     1       1.365   6.688  21.099  0.00  0.00    +0.000 OA
ATOM     22  H   UNL     1       2.192   6.274  21.404  0.00  0.00    +0.000 HD
ENDBRANCH   1  21
TORSDOF 2
ENDMDL
MODEL 7
REMARK VINA RESULT:      -7.1      5.149      7.982
REMARK  Name = 
REMARK  2 active torsions:
REMARK  status: ('A' for Active; 'I' for Inactive)
REMARK    1  A    between atoms: O_1  and  C_2
REMARK    2  A    between atoms: C_3  and  C_4
REMARK                            x       y       z     vdW  Elec       q    Type
REMARK                         _______ _______ _______ _____ _____    ______ ____
ROOT
ATOM      1  C   UNL     1       2.255   8.051  18.488  0.00  0.00    +0.000 A 
ATOM      2  C   UNL     1       2.734   6.813  18.750  0.00  0.00    +0.000 A 
ATOM      3  N   UNL     1       2.484   6.169  19.951  0.00  0.00    +0.000 NA
ATOM      4  N   UNL     1       1.796   6.708  20.861  0.00  0.00    +0.000 NA
ATOM      5  C   UNL     1       1.276   7.961  20.698  0.00  0.00    +0.000 A 
ATOM      6  N   UNL     1       0.549   8.684  21.526  0.00  0.00    +0.000 NA
ATOM      7  C   UNL     1       0.300   9.859  20.868  0.00  0.00    +0.000 A 
ATOM      8  C   UNL     1      -0.429  10.978  21.302  0.00  0.00    +0.000 A 
ATOM      9  C   UNL     1      -0.552  12.080  20.448  0.00  0.00    +0.000 A 
ATOM     10  C   UNL     1       0.043  12.071  19.185  0.00  0.00    +0.000 A 
ATOM     11  C   UNL     1       0.775  10.965  18.737  0.00  0.00    +0.000 A 
ATOM     12  C   UNL     1       0.883   9.869  19.605  0.00  0.00    +0.000 A 
ATOM     13  N   UNL     1       1.505   8.639  19.509  0.00  0.00    +0.000 N 
ENDROOT
BRANCH   2  14
ATOM     14  C   UNL     1       3.570   6.089  17.777  0.00  0.00    +0.000 A 
ATOM     15  C   UNL     1       3.384   4.714  17.578  0.00  0.00    +0.000 A 
ATOM     16  C   UNL     1       4.191   4.017  16.676  0.00  0.00    +0.000 A 
ATOM     17  C   UNL     1       5.183   4.692  15.968  0.00  0.00    +0.000 A 
ATOM     18 CL   UNL     1       6.182   3.832  14.863  0.00  0.00    +0.000 Cl
ATOM     19  C   UNL     1       5.372   6.061  16.152  0.00  0.00    +0.000 A 
ATOM     20  C   UNL     1       4.568   6.759  17.056  0.00  0.00    +0.000 A 
ENDBRANCH   2  14
BRANCH   1  21
ATOM     21  O   UNL     1       2.464   8.747  17.309  0.00  0.00    +0.000 OA
ATOM     22  H   UNL     1       3.416   8.923  17.199  0.00  0.00    +0.000 HD
ENDBRANCH   1  21
TORSDOF 2
ENDMDL
MODEL 8
REMARK VINA RESULT:      -7.1      5.101      7.994
REMARK  Name = 
REMARK  2 active torsions:
REMARK  status: ('A' for Active; 'I' for Inactive)
REMARK    1  A    between atoms: O_1  and  C_2
REMARK    2  A    between atoms: C_3  and  C_4
REMARK                            x       y       z     vdW  Elec       q    Type
REMARK                         _______ _______ _______ _____ _____    ______ ____
ROOT
ATOM      1  C   UNL     1       2.284   7.984  18.476  0.00  0.00    +0.000 A 
ATOM      2  C   UNL     1       2.788   6.756  18.737  0.00  0.00    +0.000 A 
ATOM      3  N   UNL     1       2.554   6.107  19.939  0.00  0.00    +0.000 NA
ATOM      4  N   UNL     1       1.858   6.633  20.851  0.00  0.00    +0.000 NA
ATOM      5  C   UNL     1       1.312   7.875  20.688  0.00  0.00    +0.000 A 
ATOM      6  N   UNL     1       0.573   8.583  21.518  0.00  0.00    +0.000 NA
ATOM      7  C   UNL     1       0.298   9.753  20.860  0.00  0.00    +0.000 A 
ATOM      8  C   UNL     1      -0.452  10.857  21.295  0.00  0.00    +0.000 A 
ATOM      9  C   UNL     1      -0.600  11.956  20.441  0.00  0.00    +0.000 A 
ATOM     10  C   UNL     1      -0.008  11.958  19.177  0.00  0.00    +0.000 A 
ATOM     11  C   UNL     1       0.745  10.867  18.727  0.00  0.00    +0.000 A 
ATOM     12  C   UNL     1       0.878   9.774  19.595  0.00  0.00    +0.000 A 
ATOM     13  N   UNL     1       1.524   8.557  19.498  0.00  0.00    +0.000 N 
ENDROOT
BRANCH   2  14
ATOM     14  C   UNL     1       3.637   6.049  17.763  0.00  0.00    +0.000 A 
ATOM     15  C   UNL     1       4.599   6.755  17.028  0.00  0.00    +0.000 A 
ATOM     16  C   UNL     1       5.390   6.094  16.084  0.00  0.00    +0.000 A 
ATOM     17  C   UNL     1       5.224   4.726  15.876  0.00  0.00    +0.000 A 
ATOM     18 CL   UNL     1       6.192   3.915  14.709  0.00  0.00    +0.000 Cl
ATOM     19  C   UNL     1       4.276   4.013  16.608  0.00  0.00    +0.000 A 
ATOM     20  C   UNL     1       3.482   4.672  17.550  0.00  0.00    +0.000 A 
ENDBRANCH   2  14
BRANCH   1  21
ATOM     21  O   UNL     1       2.476   8.683  17.296  0.00  0.00    +0.000 OA
ATOM     22  H   UNL     1       1.818   9.399  17.230  0.00  0.00    +0.000 HD
ENDBRANCH   1  21
TORSDOF 2
ENDMDL
MODEL 9
REMARK VINA RESULT:      -7.1      8.494     10.458
REMARK  Name = 
REMARK  2 active torsions:
REMARK  status: ('A' for Active; 'I' for Inactive)
REMARK    1  A    between atoms: O_1  and  C_2
REMARK    2  A    between atoms: C_3  and  C_4
REMARK                            x       y       z     vdW  Elec       q    Type
REMARK                         _______ _______ _______ _____ _____    ______ ____
ROOT
ATOM      1  C   UNL     1      -0.487  11.149  21.317  0.00  0.00    +0.000 A 
ATOM      2  C   UNL     1      -0.825  11.338  22.614  0.00  0.00    +0.000 A 
ATOM      3  N   UNL     1      -0.378  10.495  23.618  0.00  0.00    +0.000 NA
ATOM      4  N   UNL     1       0.367   9.507  23.371  0.00  0.00    +0.000 NA
ATOM      5  C   UNL     1       0.756   9.225  22.092  0.00  0.00    +0.000 A 
ATOM      6  N   UNL     1       1.515   8.246  21.640  0.00  0.00    +0.000 NA
ATOM      7  C   UNL     1       1.583   8.428  20.285  0.00  0.00    +0.000 A 
ATOM      8  C   UNL     1       2.261   7.663  19.322  0.00  0.00    +0.000 A 
ATOM      9  C   UNL     1       2.187   8.043  17.978  0.00  0.00    +0.000 A 
ATOM     10  C   UNL     1       1.446   9.163  17.595  0.00  0.00    +0.000 A 
ATOM     11  C   UNL     1       0.761   9.936  18.540  0.00  0.00    +0.000 A 
ATOM     12  C   UNL     1       0.851   9.542  19.882  0.00  0.00    +0.000 A 
ATOM     13  N   UNL     1       0.329  10.046  21.058  0.00  0.00    +0.000 N 
ENDROOT
BRANCH   2  14
ATOM     14  C   UNL     1      -1.709  12.441  23.027  0.00  0.00    +0.000 A 
ATOM     15  C   UNL     1      -1.165  13.692  23.351  0.00  0.00    +0.000 A 
ATOM     16  C   UNL     1      -1.996  14.735  23.768  0.00  0.00    +0.000 A 
ATOM     17  C   UNL     1      -3.372  14.532  23.858  0.00  0.00    +0.000 A 
ATOM     18 CL   UNL     1      -4.393  15.813  24.379  0.00  0.00    +0.000 Cl
ATOM     19  C   UNL     1      -3.924  13.294  23.531  0.00  0.00    +0.000 A 
ATOM     20  C   UNL     1      -3.094  12.249  23.116  0.00  0.00    +0.000 A 
ENDBRANCH   2  14
BRANCH   1  21
ATOM     21  O   UNL     1      -0.896  11.956  20.268  0.00  0.00    +0.000 OA
ATOM     22  H   UNL     1      -0.780  11.480  19.426  0.00  0.00    +0.000 HD
ENDBRANCH   1  21
TORSDOF 2
ENDMDL
