MODEL 1
REMARK VINA RESULT:      -7.9      0.000      0.000
REMARK  Name = 
REMARK  8 active torsions:
REMARK  status: ('A' for Active; 'I' for Inactive)
REMARK    1  A    between atoms: C_1  and  C_2
REMARK    2  A    between atoms: C_2  and  C_3
REMARK    3  A    between atoms: C_6  and  C_7
REMARK    4  A    between atoms: C_7  and  N_8
REMARK    5  A    between atoms: N_8  and  C_9
REMARK    6  A    between atoms: N_13  and  C_14
REMARK    7  A    between atoms: C_14  and  C_15
REMARK    8  A    between atoms: C_18  and  C_19
REMARK                            x       y       z     vdW  Elec       q    Type
REMARK                         _______ _______ _______ _____ _____    ______ ____
ROOT
ATOM      1  C   UNL     1       5.005   4.394  18.476  0.00  0.00    +0.000 C 
ATOM      2  C   UNL     1       4.110   3.267  17.934  0.00  0.00    +0.000 C 
ATOM      3  C   UNL     1       2.823   3.826  17.327  0.00  0.00    +0.000 C 
ATOM      4  C   UNL     1       2.099   4.770  18.294  0.00  0.00    +0.000 C 
ATOM      5  N   UNL     1       2.981   5.841  18.788  0.00  0.00    +0.000 NA
ATOM      6  C   UNL     1       4.157   5.255  19.456  0.00  0.00    +0.000 C 
ENDROOT
BRANCH   1   7
ATOM      7  N   UNL     1       5.539   5.143  17.329  0.00  0.00    +0.000 NA
ATOM      8  H   UNL     1       4.887   5.114  16.544  0.00  0.00    +0.000 HD
BRANCH   7   9
ATOM      9  C   UNL     1       6.853   4.687  16.874  0.00  0.00    +0.000 C 
BRANCH   9  13
ATOM     10  C   UNL     1       6.651   4.083  13.375  0.00  0.00    +0.000 A 
ATOM     11  N   UNL     1       7.484   5.131  13.347  0.00  0.00    +0.000 NA
ATOM     12  O   UNL     1       7.631   5.454  14.698  0.00  0.00    +0.000 OA
ATOM     13  C   UNL     1       6.879   4.552  15.393  0.00  0.00    +0.000 A 
ATOM     14  N   UNL     1       6.264   3.675  14.627  0.00  0.00    +0.000 NA
BRANCH  10  16
ATOM     15  C   UNL     1       4.712   3.496  11.950  0.00  0.00    +0.000 C 
ATOM     16  C   UNL     1       6.212   3.373  12.155  0.00  0.00    +0.000 C 
ENDBRANCH  10  16
ENDBRANCH   9  13
ENDBRANCH   7   9
ENDBRANCH   1   7
BRANCH   5  17
ATOM     17  C   UNL     1       2.292   6.790  19.692  0.00  0.00    +0.000 C 
BRANCH  17  18
ATOM     18  C   UNL     1       2.030   8.107  19.028  0.00  0.00    +0.000 A 
ATOM     19  N   UNL     1       2.498   8.429  17.814  0.00  0.00    +0.000 NA
ATOM     20  O   UNL     1       1.849   9.634  17.537  0.00  0.00    +0.000 OA
ATOM     21  C   UNL     1       1.078   9.926  18.628  0.00  0.00    +0.000 A 
ATOM     22  N   UNL     1       1.212   9.051  19.599  0.00  0.00    +0.000 NA
BRANCH  21  23
ATOM     23  C   UNL     1       0.113  11.100  18.683  0.00  0.00    +0.000 C 
ATOM     24  C   UNL     1      -1.293  10.879  18.147  0.00  0.00    +0.000 C 
ATOM     25  C   UNL     1      -1.079  11.032  19.614  0.00  0.00    +0.000 C 
ENDBRANCH  21  23
ENDBRANCH  17  18
ENDBRANCH   5  17
TORSDOF 7
ENDMDL
MODEL 2
REMARK VINA RESULT:      -7.3      2.323      7.497
REMARK  Name = 
REMARK  8 active torsions:
REMARK  status: ('A' for Active; 'I' for Inactive)
REMARK    1  A    between atoms: C_1  and  C_2
REMARK    2  A    between atoms: C_2  and  C_3
REMARK    3  A    between atoms: C_6  and  C_7
REMARK    4  A    between atoms: C_7  and  N_8
REMARK    5  A    between atoms: N_8  and  C_9
REMARK    6  A    between atoms: N_13  and  C_14
REMARK    7  A    between atoms: C_14  and  C_15
REMARK    8  A    between atoms: C_18  and  C_19
REMARK                            x       y       z     vdW  Elec       q    Type
REMARK                         _______ _______ _______ _____ _____    ______ ____
ROOT
ATOM      1  C   UNL     1       1.253   4.561  20.333  0.00  0.00    +0.000 C 
ATOM      2  C   UNL     1       1.339   3.306  21.218  0.00  0.00    +0.000 C 
ATOM      3  C   UNL     1       2.681   2.595  21.040  0.00  0.00    +0.000 C 
ATOM      4  C   UNL     1       2.993   2.326  19.564  0.00  0.00    +0.000 C 
ATOM      5  N   UNL     1       2.909   3.548  18.747  0.00  0.00    +0.000 NA
ATOM      6  C   UNL     1       1.566   4.142  18.869  0.00  0.00    +0.000 C 
ENDROOT
BRANCH   1   7
ATOM      7  N   UNL     1       2.177   5.566  20.879  0.00  0.00    +0.000 NA
ATOM      8  H   UNL     1       1.743   6.077  21.648  0.00  0.00    +0.000 HD
BRANCH   7   9
ATOM      9  C   UNL     1       2.673   6.525  19.891  0.00  0.00    +0.000 C 
BRANCH   9  13
ATOM     10  C   UNL     1       0.846   9.562  19.599  0.00  0.00    +0.000 A 
ATOM     11  N   UNL     1       0.523   9.258  20.863  0.00  0.00    +0.000 NA
ATOM     12  O   UNL     1       1.202   8.057  21.081  0.00  0.00    +0.000 OA
ATOM     13  C   UNL     1       1.872   7.778  19.925  0.00  0.00    +0.000 A 
ATOM     14  N   UNL     1       1.698   8.680  18.982  0.00  0.00    +0.000 NA
BRANCH  10  16
ATOM     15  C   UNL     1      -1.113  10.692  18.588  0.00  0.00    +0.000 C 
ATOM     16  C   UNL     1       0.366  10.784  18.920  0.00  0.00    +0.000 C 
ENDBRANCH  10  16
ENDBRANCH   9  13
ENDBRANCH   7   9
ENDBRANCH   1   7
BRANCH   5  17
ATOM     17  C   UNL     1       3.247   3.319  17.323  0.00  0.00    +0.000 C 
BRANCH  17  18
ATOM     18  C   UNL     1       4.620   3.813  16.987  0.00  0.00    +0.000 A 
ATOM     19  N   UNL     1       4.998   4.163  15.749  0.00  0.00    +0.000 NA
ATOM     20  O   UNL     1       6.257   4.733  15.954  0.00  0.00    +0.000 OA
ATOM     21  C   UNL     1       6.517   4.641  17.293  0.00  0.00    +0.000 A 
ATOM     22  N   UNL     1       5.570   4.018  17.958  0.00  0.00    +0.000 NA
BRANCH  21  23
ATOM     23  C   UNL     1       7.740   5.257  17.954  0.00  0.00    +0.000 C 
ATOM     24  C   UNL     1       7.722   6.757  18.203  0.00  0.00    +0.000 C 
ATOM     25  C   UNL     1       7.618   5.817  19.355  0.00  0.00    +0.000 C 
ENDBRANCH  21  23
ENDBRANCH  17  18
ENDBRANCH   5  17
TORSDOF 7
ENDMDL
MODEL 3
REMARK VINA RESULT:      -7.2      1.358      1.492
REMARK  Name = 
REMARK  8 active torsions:
REMARK  status: ('A' for Active; 'I' for Inactive)
REMARK    1  A    between atoms: C_1  and  C_2
REMARK    2  A    between atoms: C_2  and  C_3
REMARK    3  A    between atoms: C_6  and  C_7
REMARK    4  A    between atoms: C_7  and  N_8
REMARK    5  A    between atoms: N_8  and  C_9
REMARK    6  A    between atoms: N_13  and  C_14
REMARK    7  A    between atoms: C_14  and  C_15
REMARK    8  A    between atoms: C_18  and  C_19
REMARK                            x       y       z     vdW  Elec       q    Type
REMARK                         _______ _______ _______ _____ _____    ______ ____
ROOT
ATOM      1  C   UNL     1       3.894   2.686  18.896  0.00  0.00    +0.000 C 
ATOM      2  C   UNL     1       2.659   1.783  18.739  0.00  0.00    +0.000 C 
ATOM      3  C   UNL     1       1.416   2.602  18.391  0.00  0.00    +0.000 C 
ATOM      4  C   UNL     1       1.205   3.762  19.370  0.00  0.00    +0.000 C 
ATOM      5  N   UNL     1       2.402   4.610  19.492  0.00  0.00    +0.000 NA
ATOM      6  C   UNL     1       3.551   3.798  19.928  0.00  0.00    +0.000 C 
ENDROOT
BRANCH   1   7
ATOM      7  N   UNL     1       4.257   3.196  17.565  0.00  0.00    +0.000 NA
ATOM      8  H   UNL     1       4.464   2.426  16.927  0.00  0.00    +0.000 HD
BRANCH   7   9
ATOM      9  C   UNL     1       5.385   4.128  17.567  0.00  0.00    +0.000 C 
BRANCH   9  13
ATOM     10  C   UNL     1       6.472   4.219  14.182  0.00  0.00    +0.000 A 
ATOM     11  N   UNL     1       7.383   5.050  14.704  0.00  0.00    +0.000 NA
ATOM     12  O   UNL     1       7.038   5.086  16.057  0.00  0.00    +0.000 OA
ATOM     13  C   UNL     1       5.963   4.258  16.202  0.00  0.00    +0.000 A 
ATOM     14  N   UNL     1       5.581   3.686  15.080  0.00  0.00    +0.000 NA
BRANCH  10  16
ATOM     15  C   UNL     1       5.034   3.569  12.273  0.00  0.00    +0.000 C 
ATOM     16  C   UNL     1       6.448   3.851  12.750  0.00  0.00    +0.000 C 
ENDBRANCH  10  16
ENDBRANCH   9  13
ENDBRANCH   7   9
ENDBRANCH   1   7
BRANCH   5  17
ATOM     17  C   UNL     1       2.207   5.763  20.402  0.00  0.00    +0.000 C 
BRANCH  17  18
ATOM     18  C   UNL     1       2.179   7.064  19.661  0.00  0.00    +0.000 A 
ATOM     19  N   UNL     1       2.666   7.220  18.422  0.00  0.00    +0.000 NA
ATOM     20  O   UNL     1       2.247   8.508  18.079  0.00  0.00    +0.000 OA
ATOM     21  C   UNL     1       1.574   9.004  19.161  0.00  0.00    +0.000 A 
ATOM     22  N   UNL     1       1.568   8.178  20.184  0.00  0.00    +0.000 NA
BRANCH  21  23
ATOM     23  C   UNL     1       0.848  10.339  19.157  0.00  0.00    +0.000 C 
ATOM     24  C   UNL     1      -0.663  10.318  19.324  0.00  0.00    +0.000 C 
ATOM     25  C   UNL     1       0.193  10.827  20.432  0.00  0.00    +0.000 C 
ENDBRANCH  21  23
ENDBRANCH  17  18
ENDBRANCH   5  17
TORSDOF 7
ENDMDL
MODEL 4
REMARK VINA RESULT:      -7.2      2.485      7.722
REMARK  Name = 
REMARK  8 active torsions:
REMARK  status: ('A' for Active; 'I' for Inactive)
REMARK    1  A    between atoms: C_1  and  C_2
REMARK    2  A    between atoms: C_2  and  C_3
REMARK    3  A    between atoms: C_6  and  C_7
REMARK    4  A    between atoms: C_7  and  N_8
REMARK    5  A    between atoms: N_8  and  C_9
REMARK    6  A    between atoms: N_13  and  C_14
REMARK    7  A    between atoms: C_14  and  C_15
REMARK    8  A    between atoms: C_18  and  C_19
REMARK                            x       y       z     vdW  Elec       q    Type
REMARK                         _______ _______ _______ _____ _____    ______ ____
ROOT
ATOM      1  C   UNL     1       1.180   4.490  20.383  0.00  0.00    +0.000 C 
ATOM      2  C   UNL     1       1.346   3.232  21.252  0.00  0.00    +0.000 C 
ATOM      3  C   UNL     1       2.723   2.599  21.050  0.00  0.00    +0.000 C 
ATOM      4  C   UNL     1       3.031   2.363  19.568  0.00  0.00    +0.000 C 
ATOM      5  N   UNL     1       2.869   3.588  18.766  0.00  0.00    +0.000 NA
ATOM      6  C   UNL     1       1.497   4.105  18.910  0.00  0.00    +0.000 C 
ENDROOT
BRANCH   1   7
ATOM      7  N   UNL     1       2.054   5.539  20.930  0.00  0.00    +0.000 NA
ATOM      8  H   UNL     1       1.588   6.038  21.688  0.00  0.00    +0.000 HD
BRANCH   7   9
ATOM      9  C   UNL     1       2.520   6.508  19.937  0.00  0.00    +0.000 C 
BRANCH   9  13
ATOM     10  C   UNL     1       0.690   9.484  20.603  0.00  0.00    +0.000 A 
ATOM     11  N   UNL     1       0.971   9.710  19.314  0.00  0.00    +0.000 NA
ATOM     12  O   UNL     1       1.704   8.578  18.948  0.00  0.00    +0.000 OA
ATOM     13  C   UNL     1       1.770   7.787  20.059  0.00  0.00    +0.000 A 
ATOM     14  N   UNL     1       1.149   8.292  21.105  0.00  0.00    +0.000 NA
BRANCH  10  16
ATOM     15  C   UNL     1       0.342  11.857  21.222  0.00  0.00    +0.000 C 
ATOM     16  C   UNL     1      -0.104  10.420  21.428  0.00  0.00    +0.000 C 
ENDBRANCH  10  16
ENDBRANCH   9  13
ENDBRANCH   7   9
ENDBRANCH   1   7
BRANCH   5  17
ATOM     17  C   UNL     1       3.202   3.394  17.336  0.00  0.00    +0.000 C 
BRANCH  17  18
ATOM     18  C   UNL     1       4.599   3.831  17.021  0.00  0.00    +0.000 A 
ATOM     19  N   UNL     1       5.023   4.116  15.781  0.00  0.00    +0.000 NA
ATOM     20  O   UNL     1       6.293   4.656  16.000  0.00  0.00    +0.000 OA
ATOM     21  C   UNL     1       6.511   4.615  17.349  0.00  0.00    +0.000 A 
ATOM     22  N   UNL     1       5.526   4.050  18.011  0.00  0.00    +0.000 NA
BRANCH  21  23
ATOM     23  C   UNL     1       7.733   5.222  18.020  0.00  0.00    +0.000 C 
ATOM     24  C   UNL     1       7.730   6.724  18.256  0.00  0.00    +0.000 C 
ATOM     25  C   UNL     1       7.600   5.796  19.415  0.00  0.00    +0.000 C 
ENDBRANCH  21  23
ENDBRANCH  17  18
ENDBRANCH   5  17
TORSDOF 7
ENDMDL
MODEL 5
REMARK VINA RESULT:      -7.2      1.306      1.515
REMARK  Name = 
REMARK  8 active torsions:
REMARK  status: ('A' for Active; 'I' for Inactive)
REMARK    1  A    between atoms: C_1  and  C_2
REMARK    2  A    between atoms: C_2  and  C_3
REMARK    3  A    between atoms: C_6  and  C_7
REMARK    4  A    between atoms: C_7  and  N_8
REMARK    5  A    between atoms: N_8  and  C_9
REMARK    6  A    between atoms: N_13  and  C_14
REMARK    7  A    between atoms: C_14  and  C_15
REMARK    8  A    between atoms: C_18  and  C_19
REMARK                            x       y       z     vdW  Elec       q    Type
REMARK                         _______ _______ _______ _____ _____    ______ ____
ROOT
ATOM      1  C   UNL     1       4.342   4.523  18.210  0.00  0.00    +0.000 C 
ATOM      2  C   UNL     1       3.559   3.239  17.887  0.00  0.00    +0.000 C 
ATOM      3  C   UNL     1       2.052   3.493  17.896  0.00  0.00    +0.000 C 
ATOM      4  C   UNL     1       1.597   4.178  19.190  0.00  0.00    +0.000 C 
ATOM      5  N   UNL     1       2.361   5.406  19.466  0.00  0.00    +0.000 NA
ATOM      6  C   UNL     1       3.799   5.095  19.550  0.00  0.00    +0.000 C 
ENDROOT
BRANCH   1   7
ATOM      7  N   UNL     1       4.205   5.439  17.068  0.00  0.00    +0.000 NA
ATOM      8  H   UNL     1       3.841   4.947  16.252  0.00  0.00    +0.000 HD
BRANCH   7   9
ATOM      9  C   UNL     1       5.444   6.125  16.697  0.00  0.00    +0.000 C 
BRANCH   9  13
ATOM     10  C   UNL     1       6.574   4.451  13.770  0.00  0.00    +0.000 A 
ATOM     11  N   UNL     1       7.712   5.079  14.090  0.00  0.00    +0.000 NA
ATOM     12  O   UNL     1       7.370   5.780  15.248  0.00  0.00    +0.000 OA
ATOM     13  C   UNL     1       6.063   5.484  15.506  0.00  0.00    +0.000 A 
ATOM     14  N   UNL     1       5.527   4.657  14.632  0.00  0.00    +0.000 NA
BRANCH  10  16
ATOM     15  C   UNL     1       5.014   3.450  12.126  0.00  0.00    +0.000 C 
ATOM     16  C   UNL     1       6.453   3.554  12.600  0.00  0.00    +0.000 C 
ENDBRANCH  10  16
ENDBRANCH   9  13
ENDBRANCH   7   9
ENDBRANCH   1   7
BRANCH   5  17
ATOM     17  C   UNL     1       1.910   6.107  20.691  0.00  0.00    +0.000 C 
BRANCH  17  18
ATOM     18  C   UNL     1       1.570   7.541  20.423  0.00  0.00    +0.000 A 
ATOM     19  N   UNL     1       1.969   8.204  19.328  0.00  0.00    +0.000 NA
ATOM     20  O   UNL     1       1.264   9.407  19.414  0.00  0.00    +0.000 OA
ATOM     21  C   UNL     1       0.533   9.352  20.568  0.00  0.00    +0.000 A 
ATOM     22  N   UNL     1       0.743   8.253  21.258  0.00  0.00    +0.000 NA
BRANCH  21  23
ATOM     23  C   UNL     1      -0.472  10.419  20.975  0.00  0.00    +0.000 C 
ATOM     24  C   UNL     1       0.077  11.725  21.527  0.00  0.00    +0.000 C 
ATOM     25  C   UNL     1      -0.551  11.702  20.176  0.00  0.00    +0.000 C 
ENDBRANCH  21  23
ENDBRANCH  17  18
ENDBRANCH   5  17
TORSDOF 7
ENDMDL
MODEL 6
REMARK VINA RESULT:      -7.0      1.286      1.554
REMARK  Name = 
REMARK  8 active torsions:
REMARK  status: ('A' for Active; 'I' for Inactive)
REMARK    1  A    between atoms: C_1  and  C_2
REMARK    2  A    between atoms: C_2  and  C_3
REMARK    3  A    between atoms: C_6  and  C_7
REMARK    4  A    between atoms: C_7  and  N_8
REMARK    5  A    between atoms: N_8  and  C_9
REMARK    6  A    between atoms: N_13  and  C_14
REMARK    7  A    between atoms: C_14  and  C_15
REMARK    8  A    between atoms: C_18  and  C_19
REMARK                            x       y       z     vdW  Elec       q    Type
REMARK                         _______ _______ _______ _____ _____    ______ ____
ROOT
ATOM      1  C   UNL     1       4.643   4.235  19.286  0.00  0.00    +0.000 C 
ATOM      2  C   UNL     1       3.319   3.457  19.374  0.00  0.00    +0.000 C 
ATOM      3  C   UNL     1       2.412   3.772  18.185  0.00  0.00    +0.000 C 
ATOM      4  C   UNL     1       2.223   5.282  17.996  0.00  0.00    +0.000 C 
ATOM      5  N   UNL     1       3.508   5.996  17.909  0.00  0.00    +0.000 NA
ATOM      6  C   UNL     1       4.305   5.745  19.122  0.00  0.00    +0.000 C 
ENDROOT
BRANCH   1   7
ATOM      7  N   UNL     1       5.429   3.673  18.177  0.00  0.00    +0.000 NA
ATOM      8  H   UNL     1       5.779   2.745  18.417  0.00  0.00    +0.000 HD
BRANCH   7   9
ATOM      9  C   UNL     1       6.550   4.511  17.751  0.00  0.00    +0.000 C 
BRANCH   9  13
ATOM     10  C   UNL     1       6.547   4.270  14.204  0.00  0.00    +0.000 A 
ATOM     11  N   UNL     1       7.402   5.292  14.331  0.00  0.00    +0.000 NA
ATOM     12  O   UNL     1       7.474   5.473  15.714  0.00  0.00    +0.000 OA
ATOM     13  C   UNL     1       6.662   4.525  16.268  0.00  0.00    +0.000 A 
ATOM     14  N   UNL     1       6.076   3.747  15.382  0.00  0.00    +0.000 NA
BRANCH  10  16
ATOM     15  C   UNL     1       7.175   4.062  11.816  0.00  0.00    +0.000 C 
ATOM     16  C   UNL     1       6.167   3.699  12.893  0.00  0.00    +0.000 C 
ENDBRANCH  10  16
ENDBRANCH   9  13
ENDBRANCH   7   9
ENDBRANCH   1   7
BRANCH   5  17
ATOM     17  C   UNL     1       3.349   7.451  17.685  0.00  0.00    +0.000 C 
BRANCH  17  18
ATOM     18  C   UNL     1       2.308   8.047  18.582  0.00  0.00    +0.000 A 
ATOM     19  N   UNL     1       2.132   7.676  19.858  0.00  0.00    +0.000 NA
ATOM     20  O   UNL     1       1.217   8.617  20.335  0.00  0.00    +0.000 OA
ATOM     21  C   UNL     1       0.917   9.442  19.287  0.00  0.00    +0.000 A 
ATOM     22  N   UNL     1       1.511   9.086  18.169  0.00  0.00    +0.000 NA
BRANCH  21  23
ATOM     23  C   UNL     1       0.046  10.681  19.416  0.00  0.00    +0.000 C 
ATOM     24  C   UNL     1       0.551  11.804  20.308  0.00  0.00    +0.000 C 
ATOM     25  C   UNL     1       0.531  11.989  18.829  0.00  0.00    +0.000 C 
ENDBRANCH  21  23
ENDBRANCH  17  18
ENDBRANCH   5  17
TORSDOF 7
ENDMDL
MODEL 7
REMARK VINA RESULT:      -6.9      2.580      7.589
REMARK  Name = 
REMARK  8 active torsions:
REMARK  status: ('A' for Active; 'I' for Inactive)
REMARK    1  A    between atoms: C_1  and  C_2
REMARK    2  A    between atoms: C_2  and  C_3
REMARK    3  A    between atoms: C_6  and  C_7
REMARK    4  A    between atoms: C_7  and  N_8
REMARK    5  A    between atoms: N_8  and  C_9
REMARK    6  A    between atoms: N_13  and  C_14
REMARK    7  A    between atoms: C_14  and  C_15
REMARK    8  A    between atoms: C_18  and  C_19
REMARK                            x       y       z     vdW  Elec       q    Type
REMARK                         _______ _______ _______ _____ _____    ______ ____
ROOT
ATOM      1  C   UNL     1       1.245   4.577  19.870  0.00  0.00    +0.000 C 
ATOM      2  C   UNL     1       1.019   3.359  20.781  0.00  0.00    +0.000 C 
ATOM      3  C   UNL     1       2.301   2.542  20.941  0.00  0.00    +0.000 C 
ATOM      4  C   UNL     1       2.922   2.184  19.586  0.00  0.00    +0.000 C 
ATOM      5  N   UNL     1       3.132   3.372  18.741  0.00  0.00    +0.000 NA
ATOM      6  C   UNL     1       1.852   4.071  18.530  0.00  0.00    +0.000 C 
ENDROOT
BRANCH   1   7
ATOM      7  N   UNL     1       2.099   5.533  20.591  0.00  0.00    +0.000 NA
ATOM      8  H   UNL     1       1.616   5.903  21.410  0.00  0.00    +0.000 HD
BRANCH   7   9
ATOM      9  C   UNL     1       2.573   6.650  19.772  0.00  0.00    +0.000 C 
BRANCH   9  13
ATOM     10  C   UNL     1       0.844   9.534  20.929  0.00  0.00    +0.000 A 
ATOM     11  N   UNL     1       0.820   9.802  19.618  0.00  0.00    +0.000 NA
ATOM     12  O   UNL     1       1.488   8.710  19.060  0.00  0.00    +0.000 OA
ATOM     13  C   UNL     1       1.828   7.895  20.101  0.00  0.00    +0.000 A 
ATOM     14  N   UNL     1       1.443   8.349  21.275  0.00  0.00    +0.000 NA
BRANCH  10  16
ATOM     15  C   UNL     1      -0.603   9.626  22.938  0.00  0.00    +0.000 C 
ATOM     16  C   UNL     1       0.226  10.418  21.941  0.00  0.00    +0.000 C 
ENDBRANCH  10  16
ENDBRANCH   9  13
ENDBRANCH   7   9
ENDBRANCH   1   7
BRANCH   5  17
ATOM     17  C   UNL     1       3.769   3.055  17.442  0.00  0.00    +0.000 C 
BRANCH  17  18
ATOM     18  C   UNL     1       4.751   4.108  17.028  0.00  0.00    +0.000 A 
ATOM     19  N   UNL     1       5.073   4.358  15.751  0.00  0.00    +0.000 NA
ATOM     20  O   UNL     1       5.845   5.519  15.843  0.00  0.00    +0.000 OA
ATOM     21  C   UNL     1       5.929   5.831  17.171  0.00  0.00    +0.000 A 
ATOM     22  N   UNL     1       5.331   4.952  17.944  0.00  0.00    +0.000 NA
BRANCH  21  23
ATOM     23  C   UNL     1       6.584   7.100  17.694  0.00  0.00    +0.000 C 
ATOM     24  C   UNL     1       7.959   6.969  18.330  0.00  0.00    +0.000 C 
ATOM     25  C   UNL     1       7.821   7.632  17.002  0.00  0.00    +0.000 C 
ENDBRANCH  21  23
ENDBRANCH  17  18
ENDBRANCH   5  17
TORSDOF 7
ENDMDL
MODEL 8
REMARK VINA RESULT:      -6.9      2.078      7.185
REMARK  Name = 
REMARK  8 active torsions:
REMARK  status: ('A' for Active; 'I' for Inactive)
REMARK    1  A    between atoms: C_1  and  C_2
REMARK    2  A    between atoms: C_2  and  C_3
REMARK    3  A    between atoms: C_6  and  C_7
REMARK    4  A    between atoms: C_7  and  N_8
REMARK    5  A    between atoms: N_8  and  C_9
REMARK    6  A    between atoms: N_13  and  C_14
REMARK    7  A    between atoms: C_14  and  C_15
REMARK    8  A    between atoms: C_18  and  C_19
REMARK                            x       y       z     vdW  Elec       q    Type
REMARK                         _______ _______ _______ _____ _____    ______ ____
ROOT
ATOM      1  C   UNL     1       1.689   4.784  19.814  0.00  0.00    +0.000 C 
ATOM      2  C   UNL     1       1.595   3.735  20.935  0.00  0.00    +0.000 C 
ATOM      3  C   UNL     1       2.913   2.978  21.096  0.00  0.00    +0.000 C 
ATOM      4  C   UNL     1       3.409   2.406  19.763  0.00  0.00    +0.000 C 
ATOM      5  N   UNL     1       3.494   3.436  18.715  0.00  0.00    +0.000 NA
ATOM      6  C   UNL     1       2.177   4.068  18.523  0.00  0.00    +0.000 C 
ENDROOT
BRANCH   1   7
ATOM      7  N   UNL     1       2.578   5.862  20.274  0.00  0.00    +0.000 NA
ATOM      8  H   UNL     1       2.125   6.419  20.999  0.00  0.00    +0.000 HD
BRANCH   7   9
ATOM      9  C   UNL     1       3.041   6.752  19.208  0.00  0.00    +0.000 C 
BRANCH   9  13
ATOM     10  C   UNL     1       0.867   9.566  19.255  0.00  0.00    +0.000 A 
ATOM     11  N   UNL     1       1.020   9.458  17.930  0.00  0.00    +0.000 NA
ATOM     12  O   UNL     1       1.875   8.361  17.800  0.00  0.00    +0.000 OA
ATOM     13  C   UNL     1       2.131   7.921  19.067  0.00  0.00    +0.000 A 
ATOM     14  N   UNL     1       1.523   8.620  20.002  0.00  0.00    +0.000 NA
BRANCH  10  16
ATOM     15  C   UNL     1      -0.936  11.222  18.874  0.00  0.00    +0.000 C 
ATOM     16  C   UNL     1       0.012  10.597  19.883  0.00  0.00    +0.000 C 
ENDBRANCH  10  16
ENDBRANCH   9  13
ENDBRANCH   7   9
ENDBRANCH   1   7
BRANCH   5  17
ATOM     17  C   UNL     1       4.011   2.914  17.429  0.00  0.00    +0.000 C 
BRANCH  17  18
ATOM     18  C   UNL     1       4.981   3.859  16.789  0.00  0.00    +0.000 A 
ATOM     19  N   UNL     1       4.842   4.330  15.542  0.00  0.00    +0.000 NA
ATOM     20  O   UNL     1       5.842   5.302  15.459  0.00  0.00    +0.000 OA
ATOM     21  C   UNL     1       6.497   5.295  16.659  0.00  0.00    +0.000 A 
ATOM     22  N   UNL     1       6.048   4.375  17.483  0.00  0.00    +0.000 NA
BRANCH  21  23
ATOM     23  C   UNL     1       7.583   6.294  17.027  0.00  0.00    +0.000 C 
ATOM     24  C   UNL     1       7.140   7.653  17.545  0.00  0.00    +0.000 C 
ATOM     25  C   UNL     1       7.770   6.678  18.479  0.00  0.00    +0.000 C 
ENDBRANCH  21  23
ENDBRANCH  17  18
ENDBRANCH   5  17
TORSDOF 7
ENDMDL
MODEL 9
REMARK VINA RESULT:      -6.9      2.710      4.919
REMARK  Name = 
REMARK  8 active torsions:
REMARK  status: ('A' for Active; 'I' for Inactive)
REMARK    1  A    between atoms: C_1  and  C_2
REMARK    2  A    between atoms: C_2  and  C_3
REMARK    3  A    between atoms: C_6  and  C_7
REMARK    4  A    between atoms: C_7  and  N_8
REMARK    5  A    between atoms: N_8  and  C_9
REMARK    6  A    between atoms: N_13  and  C_14
REMARK    7  A    between atoms: C_14  and  C_15
REMARK    8  A    between atoms: C_18  and  C_19
REMARK                            x       y       z     vdW  Elec       q    Type
REMARK                         _______ _______ _______ _____ _____    ______ ____
ROOT
ATOM      1  C   UNL     1       6.083   4.227  16.370  0.00  0.00    +0.000 C 
ATOM      2  C   UNL     1       7.472   4.633  16.888  0.00  0.00    +0.000 C 
ATOM      3  C   UNL     1       7.365   5.684  17.994  0.00  0.00    +0.000 C 
ATOM      4  C   UNL     1       6.500   6.875  17.567  0.00  0.00    +0.000 C 
ATOM      5  N   UNL     1       5.174   6.452  17.083  0.00  0.00    +0.000 NA
ATOM      6  C   UNL     1       5.326   5.521  15.952  0.00  0.00    +0.000 C 
ENDROOT
BRANCH   1   7
ATOM      7  N   UNL     1       5.411   3.455  17.426  0.00  0.00    +0.000 NA
ATOM      8  H   UNL     1       6.060   2.801  17.864  0.00  0.00    +0.000 HD
BRANCH   7   9
ATOM      9  C   UNL     1       4.228   2.722  16.973  0.00  0.00    +0.000 C 
BRANCH   9  13
ATOM     10  C   UNL     1       1.609   3.603  19.211  0.00  0.00    +0.000 A 
ATOM     11  N   UNL     1       0.934   3.721  18.061  0.00  0.00    +0.000 NA
ATOM     12  O   UNL     1       1.891   3.392  17.099  0.00  0.00    +0.000 OA
ATOM     13  C   UNL     1       3.036   3.096  17.780  0.00  0.00    +0.000 A 
ATOM     14  N   UNL     1       2.914   3.197  19.087  0.00  0.00    +0.000 NA
BRANCH  10  16
ATOM     15  C   UNL     1       1.437   2.801  21.549  0.00  0.00    +0.000 C 
ATOM     16  C   UNL     1       0.990   3.839  20.533  0.00  0.00    +0.000 C 
ENDBRANCH  10  16
ENDBRANCH   9  13
ENDBRANCH   7   9
ENDBRANCH   1   7
BRANCH   5  17
ATOM     17  C   UNL     1       4.305   7.590  16.705  0.00  0.00    +0.000 C 
BRANCH  17  18
ATOM     18  C   UNL     1       3.175   7.777  17.669  0.00  0.00    +0.000 A 
ATOM     19  N   UNL     1       2.984   7.001  18.745  0.00  0.00    +0.000 NA
ATOM     20  O   UNL     1       1.962   7.660  19.432  0.00  0.00    +0.000 OA
ATOM     21  C   UNL     1       1.625   8.753  18.682  0.00  0.00    +0.000 A 
ATOM     22  N   UNL     1       2.296   8.827  17.554  0.00  0.00    +0.000 NA
BRANCH  21  23
ATOM     23  C   UNL     1       0.631   9.809  19.138  0.00  0.00    +0.000 C 
ATOM     24  C   UNL     1       0.934  10.545  20.433  0.00  0.00    +0.000 C 
ATOM     25  C   UNL     1       1.047  11.265  19.133  0.00  0.00    +0.000 C 
ENDBRANCH  21  23
ENDBRANCH  17  18
ENDBRANCH   5  17
TORSDOF 7
ENDMDL
