MODEL 1
REMARK VINA RESULT:      -9.3      0.000      0.000
REMARK  Name = 
REMARK  5 active torsions:
REMARK  status: ('A' for Active; 'I' for Inactive)
REMARK    1  A    between atoms: C_1  and  C_2
REMARK    2  A    between atoms: C_9  and  C_10
REMARK    3  A    between atoms: C_14  and  O_15
REMARK    4  A    between atoms: O_15  and  C_16
REMARK    5  A    between atoms: C_21  and  O_22
REMARK                            x       y       z     vdW  Elec       q    Type
REMARK                         _______ _______ _______ _____ _____    ______ ____
ROOT
ATOM      1  C   UNL     1       1.824   7.899  19.601  0.00  0.00    +0.000 A 
ATOM      2  C   UNL     1       1.581   7.737  20.965  0.00  0.00    +0.000 A 
ATOM      3  C   UNL     1       0.803   8.680  21.634  0.00  0.00    +0.000 A 
ATOM      4  C   UNL     1       0.312   9.778  20.938  0.00  0.00    +0.000 A 
ATOM      5  C   UNL     1       0.639   9.894  19.599  0.00  0.00    +0.000 A 
ATOM      6  N   UNL     1       1.349   8.969  18.921  0.00  0.00    +0.000 NA
ENDROOT
BRANCH   1  15
ATOM      7  C   UNL     1       7.861   4.936  12.636  0.00  0.00    +0.000 C 
ATOM      8  C   UNL     1       6.828   4.595  13.669  0.00  0.00    +0.000 C 
ATOM      9  O   UNL     1       6.349   3.467  13.721  0.00  0.00    +0.000 OA
ATOM     10  N   UNL     1       6.524   5.668  14.479  0.00  0.00    +0.000 N 
ATOM     11  C   UNL     1       5.641   5.650  15.532  0.00  0.00    +0.000 A 
ATOM     12  N   UNL     1       5.191   6.762  16.064  0.00  0.00    +0.000 NA
ATOM     13  C   UNL     1       4.275   6.453  17.059  0.00  0.00    +0.000 A 
ATOM     14  C   UNL     1       3.520   7.379  17.810  0.00  0.00    +0.000 A 
ATOM     15  C   UNL     1       2.606   6.946  18.791  0.00  0.00    +0.000 A 
ATOM     16  C   UNL     1       2.480   5.561  19.006  0.00  0.00    +0.000 A 
ATOM     17  C   UNL     1       3.223   4.620  18.287  0.00  0.00    +0.000 A 
ATOM     18  C   UNL     1       4.110   5.092  17.316  0.00  0.00    +0.000 A 
ATOM     19  S   UNL     1       5.136   4.204  16.267  0.00  0.00    +0.000 S 
ATOM     20  H   UNL     1       6.821   6.598  14.216  0.00  0.00    +0.000 HD
ENDBRANCH   1  15
BRANCH   5  21
ATOM     21  O   UNL     1       0.186  11.024  18.932  0.00  0.00    +0.000 OA
BRANCH  21  22
ATOM     22  C   UNL     1      -1.137  11.047  18.540  0.00  0.00    +0.000 A 
ATOM     23  C   UNL     1      -1.525  10.081  17.602  0.00  0.00    +0.000 A 
ATOM     24  C   UNL     1      -2.855  10.007  17.179  0.00  0.00    +0.000 A 
ATOM     25  C   UNL     1      -3.787  10.895  17.703  0.00  0.00    +0.000 A 
ATOM     26  F   UNL     1      -5.066  10.836  17.305  0.00  0.00    +0.000 F 
ATOM     27  C   UNL     1      -3.409  11.842  18.650  0.00  0.00    +0.000 A 
ATOM     28  C   UNL     1      -2.092  11.914  19.085  0.00  0.00    +0.000 A 
BRANCH  27  29
ATOM     29  O   UNL     1      -4.319  12.716  19.176  0.00  0.00    +0.000 OA
ATOM     30  H   UNL     1      -5.123  12.652  18.626  0.00  0.00    +0.000 HD
ENDBRANCH  27  29
ENDBRANCH  21  22
ENDBRANCH   5  21
TORSDOF 4
ENDMDL
MODEL 2
REMARK VINA RESULT:      -9.1      4.372      9.175
REMARK  Name = 
REMARK  5 active torsions:
REMARK  status: ('A' for Active; 'I' for Inactive)
REMARK    1  A    between atoms: C_1  and  C_2
REMARK    2  A    between atoms: C_9  and  C_10
REMARK    3  A    between atoms: C_14  and  O_15
REMARK    4  A    between atoms: O_15  and  C_16
REMARK    5  A    between atoms: C_21  and  O_22
REMARK                            x       y       z     vdW  Elec       q    Type
REMARK                         _______ _______ _______ _____ _____    ______ ____
ROOT
ATOM      1  C   UNL     1       2.340   5.380  18.539  0.00  0.00    +0.000 A 
ATOM      2  C   UNL     1       1.492   4.287  18.363  0.00  0.00    +0.000 A 
ATOM      3  C   UNL     1       1.974   3.147  17.724  0.00  0.00    +0.000 A 
ATOM      4  C   UNL     1       3.280   3.132  17.248  0.00  0.00    +0.000 A 
ATOM      5  C   UNL     1       4.043   4.273  17.416  0.00  0.00    +0.000 A 
ATOM      6  N   UNL     1       3.612   5.370  18.074  0.00  0.00    +0.000 NA
ENDROOT
BRANCH   1  15
ATOM      7  C   UNL     1       0.775  14.867  19.674  0.00  0.00    +0.000 C 
ATOM      8  C   UNL     1       0.918  13.507  20.292  0.00  0.00    +0.000 C 
ATOM      9  O   UNL     1       0.980  13.381  21.511  0.00  0.00    +0.000 OA
ATOM     10  N   UNL     1       0.971  12.506  19.346  0.00  0.00    +0.000 N 
ATOM     11  C   UNL     1       1.067  11.161  19.611  0.00  0.00    +0.000 A 
ATOM     12  N   UNL     1       1.400  10.303  18.675  0.00  0.00    +0.000 NA
ATOM     13  C   UNL     1       1.482   9.033  19.228  0.00  0.00    +0.000 A 
ATOM     14  C   UNL     1       1.886   7.859  18.558  0.00  0.00    +0.000 A 
ATOM     15  C   UNL     1       1.942   6.622  19.229  0.00  0.00    +0.000 A 
ATOM     16  C   UNL     1       1.570   6.592  20.586  0.00  0.00    +0.000 A 
ATOM     17  C   UNL     1       1.154   7.737  21.274  0.00  0.00    +0.000 A 
ATOM     18  C   UNL     1       1.124   8.945  20.573  0.00  0.00    +0.000 A 
ATOM     19  S   UNL     1       0.685  10.506  21.132  0.00  0.00    +0.000 S 
ATOM     20  H   UNL     1       1.120  12.738  18.374  0.00  0.00    +0.000 HD
ENDBRANCH   1  15
BRANCH   5  21
ATOM     21  O   UNL     1       5.326   4.262  16.887  0.00  0.00    +0.000 OA
BRANCH  21  22
ATOM     22  C   UNL     1       6.265   5.089  17.469  0.00  0.00    +0.000 A 
ATOM     23  C   UNL     1       6.590   6.254  16.763  0.00  0.00    +0.000 A 
ATOM     24  C   UNL     1       7.503   7.168  17.297  0.00  0.00    +0.000 A 
ATOM     25  C   UNL     1       8.076   6.912  18.537  0.00  0.00    +0.000 A 
ATOM     26  F   UNL     1       8.954   7.779  19.061  0.00  0.00    +0.000 F 
ATOM     27  C   UNL     1       7.739   5.765  19.251  0.00  0.00    +0.000 A 
ATOM     28  C   UNL     1       6.824   4.859  18.732  0.00  0.00    +0.000 A 
BRANCH  27  29
ATOM     29  O   UNL     1       8.293   5.507  20.473  0.00  0.00    +0.000 OA
ATOM     30  H   UNL     1       8.641   4.595  20.439  0.00  0.00    +0.000 HD
ENDBRANCH  27  29
ENDBRANCH  21  22
ENDBRANCH   5  21
TORSDOF 4
ENDMDL
MODEL 3
REMARK VINA RESULT:      -9.0      1.013      1.358
REMARK  Name = 
REMARK  5 active torsions:
REMARK  status: ('A' for Active; 'I' for Inactive)
REMARK    1  A    between atoms: C_1  and  C_2
REMARK    2  A    between atoms: C_9  and  C_10
REMARK    3  A    between atoms: C_14  and  O_15
REMARK    4  A    between atoms: O_15  and  C_16
REMARK    5  A    between atoms: C_21  and  O_22
REMARK                            x       y       z     vdW  Elec       q    Type
REMARK                         _______ _______ _______ _____ _____    ______ ____
ROOT
ATOM      1  C   UNL     1       1.622   8.143  19.881  0.00  0.00    +0.000 A 
ATOM      2  C   UNL     1       1.359   8.042  21.247  0.00  0.00    +0.000 A 
ATOM      3  C   UNL     1       0.540   8.992  21.855  0.00  0.00    +0.000 A 
ATOM      4  C   UNL     1       0.027  10.037  21.095  0.00  0.00    +0.000 A 
ATOM      5  C   UNL     1       0.376  10.097  19.758  0.00  0.00    +0.000 A 
ATOM      6  N   UNL     1       1.127   9.162  19.140  0.00  0.00    +0.000 NA
ENDROOT
BRANCH   1  15
ATOM      7  C   UNL     1       7.638   4.972  12.991  0.00  0.00    +0.000 C 
ATOM      8  C   UNL     1       6.669   4.657  14.092  0.00  0.00    +0.000 C 
ATOM      9  O   UNL     1       6.281   3.507  14.269  0.00  0.00    +0.000 OA
ATOM     10  N   UNL     1       6.310   5.778  14.809  0.00  0.00    +0.000 N 
ATOM     11  C   UNL     1       5.466   5.797  15.893  0.00  0.00    +0.000 A 
ATOM     12  N   UNL     1       4.950   6.919  16.336  0.00  0.00    +0.000 NA
ATOM     13  C   UNL     1       4.093   6.642  17.391  0.00  0.00    +0.000 A 
ATOM     14  C   UNL     1       3.293   7.578  18.081  0.00  0.00    +0.000 A 
ATOM     15  C   UNL     1       2.448   7.176  19.134  0.00  0.00    +0.000 A 
ATOM     16  C   UNL     1       2.436   5.813  19.484  0.00  0.00    +0.000 A 
ATOM     17  C   UNL     1       3.226   4.864  18.827  0.00  0.00    +0.000 A 
ATOM     18  C   UNL     1       4.042   5.304  17.781  0.00  0.00    +0.000 A 
ATOM     19  S   UNL     1       5.098   4.396  16.780  0.00  0.00    +0.000 S 
ATOM     20  H   UNL     1       6.526   6.698  14.448  0.00  0.00    +0.000 HD
ENDBRANCH   1  15
BRANCH   5  21
ATOM     21  O   UNL     1      -0.100  11.176  19.027  0.00  0.00    +0.000 OA
BRANCH  21  22
ATOM     22  C   UNL     1      -1.355  11.064  18.463  0.00  0.00    +0.000 A 
ATOM     23  C   UNL     1      -2.378  11.803  19.073  0.00  0.00    +0.000 A 
ATOM     24  C   UNL     1      -3.672  11.780  18.545  0.00  0.00    +0.000 A 
ATOM     25  C   UNL     1      -3.929  11.024  17.406  0.00  0.00    +0.000 A 
ATOM     26  F   UNL     1      -5.166  10.991  16.890  0.00  0.00    +0.000 F 
ATOM     27  C   UNL     1      -2.910  10.306  16.787  0.00  0.00    +0.000 A 
ATOM     28  C   UNL     1      -1.620  10.334  17.298  0.00  0.00    +0.000 A 
BRANCH  27  29
ATOM     29  O   UNL     1      -3.152   9.564  15.665  0.00  0.00    +0.000 OA
ATOM     30  H   UNL     1      -3.490  10.179  14.986  0.00  0.00    +0.000 HD
ENDBRANCH  27  29
ENDBRANCH  21  22
ENDBRANCH   5  21
TORSDOF 4
ENDMDL
MODEL 4
REMARK VINA RESULT:      -9.0      4.395      9.520
REMARK  Name = 
REMARK  5 active torsions:
REMARK  status: ('A' for Active; 'I' for Inactive)
REMARK    1  A    between atoms: C_1  and  C_2
REMARK    2  A    between atoms: C_9  and  C_10
REMARK    3  A    between atoms: C_14  and  O_15
REMARK    4  A    between atoms: O_15  and  C_16
REMARK    5  A    between atoms: C_21  and  O_22
REMARK                            x       y       z     vdW  Elec       q    Type
REMARK                         _______ _______ _______ _____ _____    ______ ____
ROOT
ATOM      1  C   UNL     1       2.178   5.436  20.179  0.00  0.00    +0.000 A 
ATOM      2  C   UNL     1       1.336   4.370  20.500  0.00  0.00    +0.000 A 
ATOM      3  C   UNL     1       1.847   3.073  20.495  0.00  0.00    +0.000 A 
ATOM      4  C   UNL     1       3.175   2.864  20.141  0.00  0.00    +0.000 A 
ATOM      5  C   UNL     1       3.931   3.966  19.787  0.00  0.00    +0.000 A 
ATOM      6  N   UNL     1       3.471   5.234  19.832  0.00  0.00    +0.000 NA
ENDROOT
BRANCH   1  15
ATOM      7  C   UNL     1      -2.078  13.470  23.505  0.00  0.00    +0.000 C 
ATOM      8  C   UNL     1      -1.445  12.732  22.362  0.00  0.00    +0.000 C 
ATOM      9  O   UNL     1      -1.492  13.190  21.225  0.00  0.00    +0.000 OA
ATOM     10  N   UNL     1      -0.858  11.551  22.763  0.00  0.00    +0.000 N 
ATOM     11  C   UNL     1      -0.176  10.681  21.947  0.00  0.00    +0.000 A 
ATOM     12  N   UNL     1       0.099   9.457  22.332  0.00  0.00    +0.000 NA
ATOM     13  C   UNL     1       0.733   8.784  21.299  0.00  0.00    +0.000 A 
ATOM     14  C   UNL     1       1.118   7.426  21.303  0.00  0.00    +0.000 A 
ATOM     15  C   UNL     1       1.748   6.846  20.184  0.00  0.00    +0.000 A 
ATOM     16  C   UNL     1       1.992   7.667  19.068  0.00  0.00    +0.000 A 
ATOM     17  C   UNL     1       1.633   9.019  19.038  0.00  0.00    +0.000 A 
ATOM     18  C   UNL     1       1.001   9.551  20.164  0.00  0.00    +0.000 A 
ATOM     19  S   UNL     1       0.428  11.146  20.428  0.00  0.00    +0.000 S 
ATOM     20  H   UNL     1      -1.059  11.174  23.679  0.00  0.00    +0.000 HD
ENDBRANCH   1  15
BRANCH   5  21
ATOM     21  O   UNL     1       5.239   3.735  19.384  0.00  0.00    +0.000 OA
BRANCH  21  22
ATOM     22  C   UNL     1       5.890   4.748  18.709  0.00  0.00    +0.000 A 
ATOM     23  C   UNL     1       6.983   5.329  19.364  0.00  0.00    +0.000 A 
ATOM     24  C   UNL     1       7.725   6.335  18.738  0.00  0.00    +0.000 A 
ATOM     25  C   UNL     1       7.370   6.745  17.458  0.00  0.00    +0.000 A 
ATOM     26  F   UNL     1       8.071   7.710  16.847  0.00  0.00    +0.000 F 
ATOM     27  C   UNL     1       6.296   6.156  16.797  0.00  0.00    +0.000 A 
ATOM     28  C   UNL     1       5.563   5.148  17.407  0.00  0.00    +0.000 A 
BRANCH  27  29
ATOM     29  O   UNL     1       5.943   6.549  15.537  0.00  0.00    +0.000 OA
ATOM     30  H   UNL     1       5.036   6.908  15.596  0.00  0.00    +0.000 HD
ENDBRANCH  27  29
ENDBRANCH  21  22
ENDBRANCH   5  21
TORSDOF 4
ENDMDL
MODEL 5
REMARK VINA RESULT:      -8.9      4.277      9.499
REMARK  Name = 
REMARK  5 active torsions:
REMARK  status: ('A' for Active; 'I' for Inactive)
REMARK    1  A    between atoms: C_1  and  C_2
REMARK    2  A    between atoms: C_9  and  C_10
REMARK    3  A    between atoms: C_14  and  O_15
REMARK    4  A    between atoms: O_15  and  C_16
REMARK    5  A    between atoms: C_21  and  O_22
REMARK                            x       y       z     vdW  Elec       q    Type
REMARK                         _______ _______ _______ _____ _____    ______ ____
ROOT
ATOM      1  C   UNL     1       2.229   5.472  20.150  0.00  0.00    +0.000 A 
ATOM      2  C   UNL     1       1.395   4.417  20.524  0.00  0.00    +0.000 A 
ATOM      3  C   UNL     1       1.905   3.120  20.542  0.00  0.00    +0.000 A 
ATOM      4  C   UNL     1       3.223   2.899  20.158  0.00  0.00    +0.000 A 
ATOM      5  C   UNL     1       3.969   3.990  19.752  0.00  0.00    +0.000 A 
ATOM      6  N   UNL     1       3.511   5.259  19.774  0.00  0.00    +0.000 NA
ENDROOT
BRANCH   1  15
ATOM      7  C   UNL     1      -1.908  13.610  23.372  0.00  0.00    +0.000 C 
ATOM      8  C   UNL     1      -1.315  12.837  22.231  0.00  0.00    +0.000 C 
ATOM      9  O   UNL     1      -1.399  13.260  21.083  0.00  0.00    +0.000 OA
ATOM     10  N   UNL     1      -0.715  11.668  22.648  0.00  0.00    +0.000 N 
ATOM     11  C   UNL     1      -0.061  10.772  21.836  0.00  0.00    +0.000 A 
ATOM     12  N   UNL     1       0.225   9.560  22.249  0.00  0.00    +0.000 NA
ATOM     13  C   UNL     1       0.825   8.855  21.216  0.00  0.00    +0.000 A 
ATOM     14  C   UNL     1       1.208   7.498  21.248  0.00  0.00    +0.000 A 
ATOM     15  C   UNL     1       1.801   6.883  20.127  0.00  0.00    +0.000 A 
ATOM     16  C   UNL     1       2.008   7.669  18.979  0.00  0.00    +0.000 A 
ATOM     17  C   UNL     1       1.649   9.020  18.920  0.00  0.00    +0.000 A 
ATOM     18  C   UNL     1       1.054   9.587  20.051  0.00  0.00    +0.000 A 
ATOM     19  S   UNL     1       0.492  11.190  20.285  0.00  0.00    +0.000 S 
ATOM     20  H   UNL     1      -0.886  11.319  23.581  0.00  0.00    +0.000 HD
ENDBRANCH   1  15
BRANCH   5  21
ATOM     21  O   UNL     1       5.266   3.745  19.321  0.00  0.00    +0.000 OA
BRANCH  21  22
ATOM     22  C   UNL     1       5.624   4.214  18.073  0.00  0.00    +0.000 A 
ATOM     23  C   UNL     1       4.953   3.650  16.981  0.00  0.00    +0.000 A 
ATOM     24  C   UNL     1       5.225   4.094  15.683  0.00  0.00    +0.000 A 
ATOM     25  C   UNL     1       6.159   5.105  15.492  0.00  0.00    +0.000 A 
ATOM     26  F   UNL     1       6.431   5.539  14.253  0.00  0.00    +0.000 F 
ATOM     27  C   UNL     1       6.812   5.682  16.577  0.00  0.00    +0.000 A 
ATOM     28  C   UNL     1       6.539   5.255  17.869  0.00  0.00    +0.000 A 
BRANCH  27  29
ATOM     29  O   UNL     1       7.729   6.680  16.399  0.00  0.00    +0.000 OA
ATOM     30  H   UNL     1       8.567   6.251  16.139  0.00  0.00    +0.000 HD
ENDBRANCH  27  29
ENDBRANCH  21  22
ENDBRANCH   5  21
TORSDOF 4
ENDMDL
MODEL 6
REMARK VINA RESULT:      -8.9      4.972     10.260
REMARK  Name = 
REMARK  5 active torsions:
REMARK  status: ('A' for Active; 'I' for Inactive)
REMARK    1  A    between atoms: C_1  and  C_2
REMARK    2  A    between atoms: C_9  and  C_10
REMARK    3  A    between atoms: C_14  and  O_15
REMARK    4  A    between atoms: O_15  and  C_16
REMARK    5  A    between atoms: C_21  and  O_22
REMARK                            x       y       z     vdW  Elec       q    Type
REMARK                         _______ _______ _______ _____ _____    ______ ____
ROOT
ATOM      1  C   UNL     1       0.874   9.539  19.851  0.00  0.00    +0.000 A 
ATOM      2  C   UNL     1       1.133   9.999  18.559  0.00  0.00    +0.000 A 
ATOM      3  C   UNL     1       1.945   9.241  17.717  0.00  0.00    +0.000 A 
ATOM      4  C   UNL     1       2.505   8.061  18.190  0.00  0.00    +0.000 A 
ATOM      5  C   UNL     1       2.243   7.699  19.498  0.00  0.00    +0.000 A 
ATOM      6  N   UNL     1       1.421   8.391  20.314  0.00  0.00    +0.000 NA
ENDROOT
BRANCH   1  15
ATOM      7  C   UNL     1      -5.191  16.363  23.071  0.00  0.00    +0.000 C 
ATOM      8  C   UNL     1      -4.265  15.223  23.375  0.00  0.00    +0.000 C 
ATOM      9  O   UNL     1      -3.952  14.968  24.534  0.00  0.00    +0.000 OA
ATOM     10  N   UNL     1      -3.852  14.567  22.236  0.00  0.00    +0.000 N 
ATOM     11  C   UNL     1      -3.029  13.467  22.201  0.00  0.00    +0.000 A 
ATOM     12  N   UNL     1      -2.453  13.080  21.087  0.00  0.00    +0.000 NA
ATOM     13  C   UNL     1      -1.636  11.990  21.350  0.00  0.00    +0.000 A 
ATOM     14  C   UNL     1      -0.793  11.340  20.423  0.00  0.00    +0.000 A 
ATOM     15  C   UNL     1       0.005  10.245  20.810  0.00  0.00    +0.000 A 
ATOM     16  C   UNL     1      -0.074   9.814  22.147  0.00  0.00    +0.000 A 
ATOM     17  C   UNL     1      -0.908  10.431  23.086  0.00  0.00    +0.000 A 
ATOM     18  C   UNL     1      -1.675  11.520  22.663  0.00  0.00    +0.000 A 
ATOM     19  S   UNL     1      -2.765  12.488  23.565  0.00  0.00    +0.000 S 
ATOM     20  H   UNL     1      -4.003  14.987  21.329  0.00  0.00    +0.000 HD
ENDBRANCH   1  15
BRANCH   5  21
ATOM     21  O   UNL     1       2.853   6.546  19.972  0.00  0.00    +0.000 OA
BRANCH  21  22
ATOM     22  C   UNL     1       2.310   5.334  19.597  0.00  0.00    +0.000 A 
ATOM     23  C   UNL     1       1.428   4.740  20.509  0.00  0.00    +0.000 A 
ATOM     24  C   UNL     1       0.800   3.531  20.195  0.00  0.00    +0.000 A 
ATOM     25  C   UNL     1       1.054   2.931  18.967  0.00  0.00    +0.000 A 
ATOM     26  F   UNL     1       0.461   1.771  18.653  0.00  0.00    +0.000 F 
ATOM     27  C   UNL     1       1.914   3.530  18.050  0.00  0.00    +0.000 A 
ATOM     28  C   UNL     1       2.532   4.736  18.350  0.00  0.00    +0.000 A 
BRANCH  27  29
ATOM     29  O   UNL     1       2.167   2.950  16.838  0.00  0.00    +0.000 OA
ATOM     30  H   UNL     1       2.591   2.090  17.019  0.00  0.00    +0.000 HD
ENDBRANCH  27  29
ENDBRANCH  21  22
ENDBRANCH   5  21
TORSDOF 4
ENDMDL
MODEL 7
REMARK VINA RESULT:      -8.9      4.021      9.605
REMARK  Name = 
REMARK  5 active torsions:
REMARK  status: ('A' for Active; 'I' for Inactive)
REMARK    1  A    between atoms: C_1  and  C_2
REMARK    2  A    between atoms: C_9  and  C_10
REMARK    3  A    between atoms: C_14  and  O_15
REMARK    4  A    between atoms: O_15  and  C_16
REMARK    5  A    between atoms: C_21  and  O_22
REMARK                            x       y       z     vdW  Elec       q    Type
REMARK                         _______ _______ _______ _____ _____    ______ ____
ROOT
ATOM      1  C   UNL     1       2.928   5.678  19.692  0.00  0.00    +0.000 A 
ATOM      2  C   UNL     1       2.339   4.543  20.249  0.00  0.00    +0.000 A 
ATOM      3  C   UNL     1       3.059   3.350  20.285  0.00  0.00    +0.000 A 
ATOM      4  C   UNL     1       4.335   3.306  19.737  0.00  0.00    +0.000 A 
ATOM      5  C   UNL     1       4.830   4.460  19.157  0.00  0.00    +0.000 A 
ATOM      6  N   UNL     1       4.170   5.637  19.155  0.00  0.00    +0.000 NA
ENDROOT
BRANCH   1  15
ATOM      7  C   UNL     1      -2.386  13.160  22.775  0.00  0.00    +0.000 C 
ATOM      8  C   UNL     1      -1.717  12.443  21.640  0.00  0.00    +0.000 C 
ATOM      9  O   UNL     1      -1.917  12.791  20.481  0.00  0.00    +0.000 OA
ATOM     10  N   UNL     1      -0.913  11.411  22.074  0.00  0.00    +0.000 N 
ATOM     11  C   UNL     1      -0.151  10.598  21.270  0.00  0.00    +0.000 A 
ATOM     12  N   UNL     1       0.352   9.472  21.717  0.00  0.00    +0.000 NA
ATOM     13  C   UNL     1       1.019   8.828  20.685  0.00  0.00    +0.000 A 
ATOM     14  C   UNL     1       1.627   7.556  20.754  0.00  0.00    +0.000 A 
ATOM     15  C   UNL     1       2.268   6.995  19.632  0.00  0.00    +0.000 A 
ATOM     16  C   UNL     1       2.294   7.750  18.445  0.00  0.00    +0.000 A 
ATOM     17  C   UNL     1       1.711   9.017  18.349  0.00  0.00    +0.000 A 
ATOM     18  C   UNL     1       1.076   9.531  19.482  0.00  0.00    +0.000 A 
ATOM     19  S   UNL     1       0.261  11.027  19.678  0.00  0.00    +0.000 S 
ATOM     20  H   UNL     1      -0.985  11.083  23.028  0.00  0.00    +0.000 HD
ENDBRANCH   1  15
BRANCH   5  21
ATOM     21  O   UNL     1       6.084   4.385  18.567  0.00  0.00    +0.000 OA
BRANCH  21  22
ATOM     22  C   UNL     1       6.141   4.353  17.188  0.00  0.00    +0.000 A 
ATOM     23  C   UNL     1       5.100   3.677  16.539  0.00  0.00    +0.000 A 
ATOM     24  C   UNL     1       5.057   3.628  15.143  0.00  0.00    +0.000 A 
ATOM     25  C   UNL     1       6.051   4.265  14.408  0.00  0.00    +0.000 A 
ATOM     26  F   UNL     1       6.023   4.225  13.068  0.00  0.00    +0.000 F 
ATOM     27  C   UNL     1       7.075   4.955  15.051  0.00  0.00    +0.000 A 
ATOM     28  C   UNL     1       7.118   5.018  16.437  0.00  0.00    +0.000 A 
BRANCH  27  29
ATOM     29  O   UNL     1       8.054   5.588  14.337  0.00  0.00    +0.000 OA
ATOM     30  H   UNL     1       7.627   6.331  13.869  0.00  0.00    +0.000 HD
ENDBRANCH  27  29
ENDBRANCH  21  22
ENDBRANCH   5  21
TORSDOF 4
ENDMDL
MODEL 8
REMARK VINA RESULT:      -8.8      5.093     10.206
REMARK  Name = 
REMARK  5 active torsions:
REMARK  status: ('A' for Active; 'I' for Inactive)
REMARK    1  A    between atoms: C_1  and  C_2
REMARK    2  A    between atoms: C_9  and  C_10
REMARK    3  A    between atoms: C_14  and  O_15
REMARK    4  A    between atoms: O_15  and  C_16
REMARK    5  A    between atoms: C_21  and  O_22
REMARK                            x       y       z     vdW  Elec       q    Type
REMARK                         _______ _______ _______ _____ _____    ______ ____
ROOT
ATOM      1  C   UNL     1       0.869   9.602  19.751  0.00  0.00    +0.000 A 
ATOM      2  C   UNL     1       1.090  10.103  18.468  0.00  0.00    +0.000 A 
ATOM      3  C   UNL     1       1.895   9.385  17.585  0.00  0.00    +0.000 A 
ATOM      4  C   UNL     1       2.486   8.200  18.010  0.00  0.00    +0.000 A 
ATOM      5  C   UNL     1       2.260   7.796  19.313  0.00  0.00    +0.000 A 
ATOM      6  N   UNL     1       1.446   8.450  20.168  0.00  0.00    +0.000 NA
ENDROOT
BRANCH   1  15
ATOM      7  C   UNL     1      -5.203  16.242  23.323  0.00  0.00    +0.000 C 
ATOM      8  C   UNL     1      -4.259  15.102  23.569  0.00  0.00    +0.000 C 
ATOM      9  O   UNL     1      -3.922  14.810  24.712  0.00  0.00    +0.000 OA
ATOM     10  N   UNL     1      -3.861  14.491  22.399  0.00  0.00    +0.000 N 
ATOM     11  C   UNL     1      -3.028  13.402  22.311  0.00  0.00    +0.000 A 
ATOM     12  N   UNL     1      -2.469  13.061  21.173  0.00  0.00    +0.000 NA
ATOM     13  C   UNL     1      -1.636  11.971  21.382  0.00  0.00    +0.000 A 
ATOM     14  C   UNL     1      -0.805  11.363  20.418  0.00  0.00    +0.000 A 
ATOM     15  C   UNL     1       0.011  10.264  20.751  0.00  0.00    +0.000 A 
ATOM     16  C   UNL     1      -0.039   9.785  22.073  0.00  0.00    +0.000 A 
ATOM     17  C   UNL     1      -0.861  10.359  23.048  0.00  0.00    +0.000 A 
ATOM     18  C   UNL     1      -1.646  11.454  22.678  0.00  0.00    +0.000 A 
ATOM     19  S   UNL     1      -2.729  12.378  23.634  0.00  0.00    +0.000 S 
ATOM     20  H   UNL     1      -4.034  14.942  21.511  0.00  0.00    +0.000 HD
ENDBRANCH   1  15
BRANCH   5  21
ATOM     21  O   UNL     1       2.901   6.641  19.738  0.00  0.00    +0.000 OA
BRANCH  21  22
ATOM     22  C   UNL     1       2.250   5.439  19.543  0.00  0.00    +0.000 A 
ATOM     23  C   UNL     1       2.135   5.003  18.217  0.00  0.00    +0.000 A 
ATOM     24  C   UNL     1       1.525   3.778  17.930  0.00  0.00    +0.000 A 
ATOM     25  C   UNL     1       1.043   2.997  18.975  0.00  0.00    +0.000 A 
ATOM     26  F   UNL     1       0.454   1.821  18.714  0.00  0.00    +0.000 F 
ATOM     27  C   UNL     1       1.174   3.419  20.295  0.00  0.00    +0.000 A 
ATOM     28  C   UNL     1       1.790   4.628  20.588  0.00  0.00    +0.000 A 
BRANCH  27  29
ATOM     29  O   UNL     1       0.708   2.656  21.328  0.00  0.00    +0.000 OA
ATOM     30  H   UNL     1       0.985   3.097  22.154  0.00  0.00    +0.000 HD
ENDBRANCH  27  29
ENDBRANCH  21  22
ENDBRANCH   5  21
TORSDOF 4
ENDMDL
MODEL 9
REMARK VINA RESULT:      -8.7      4.398      9.485
REMARK  Name = 
REMARK  5 active torsions:
REMARK  status: ('A' for Active; 'I' for Inactive)
REMARK    1  A    between atoms: C_1  and  C_2
REMARK    2  A    between atoms: C_9  and  C_10
REMARK    3  A    between atoms: C_14  and  O_15
REMARK    4  A    between atoms: O_15  and  C_16
REMARK    5  A    between atoms: C_21  and  O_22
REMARK                            x       y       z     vdW  Elec       q    Type
REMARK                         _______ _______ _______ _____ _____    ______ ____
ROOT
ATOM      1  C   UNL     1       2.242   5.374  20.001  0.00  0.00    +0.000 A 
ATOM      2  C   UNL     1       1.361   4.331  20.289  0.00  0.00    +0.000 A 
ATOM      3  C   UNL     1       1.839   3.022  20.306  0.00  0.00    +0.000 A 
ATOM      4  C   UNL     1       3.174   2.778  20.005  0.00  0.00    +0.000 A 
ATOM      5  C   UNL     1       3.971   3.860  19.679  0.00  0.00    +0.000 A 
ATOM      6  N   UNL     1       3.542   5.139  19.705  0.00  0.00    +0.000 NA
ENDROOT
BRANCH   1  15
ATOM      7  C   UNL     1      -1.707  13.585  23.275  0.00  0.00    +0.000 C 
ATOM      8  C   UNL     1      -1.128  12.807  22.130  0.00  0.00    +0.000 C 
ATOM      9  O   UNL     1      -1.197  13.242  20.985  0.00  0.00    +0.000 OA
ATOM     10  N   UNL     1      -0.559  11.620  22.539  0.00  0.00    +0.000 N 
ATOM     11  C   UNL     1       0.076  10.715  21.723  0.00  0.00    +0.000 A 
ATOM     12  N   UNL     1       0.331   9.493  22.126  0.00  0.00    +0.000 NA
ATOM     13  C   UNL     1       0.917   8.782  21.089  0.00  0.00    +0.000 A 
ATOM     14  C   UNL     1       1.267   7.415  21.112  0.00  0.00    +0.000 A 
ATOM     15  C   UNL     1       1.849   6.796  19.988  0.00  0.00    +0.000 A 
ATOM     16  C   UNL     1       2.080   7.586  18.847  0.00  0.00    +0.000 A 
ATOM     17  C   UNL     1       1.754   8.946  18.799  0.00  0.00    +0.000 A 
ATOM     18  C   UNL     1       1.170   9.518  19.931  0.00  0.00    +0.000 A 
ATOM     19  S   UNL     1       0.645  11.132  20.177  0.00  0.00    +0.000 S 
ATOM     20  H   UNL     1      -0.743  11.267  23.468  0.00  0.00    +0.000 HD
ENDBRANCH   1  15
BRANCH   5  21
ATOM     21  O   UNL     1       5.287   3.595  19.329  0.00  0.00    +0.000 OA
BRANCH  21  22
ATOM     22  C   UNL     1       5.993   4.594  18.688  0.00  0.00    +0.000 A 
ATOM     23  C   UNL     1       5.627   4.862  17.363  0.00  0.00    +0.000 A 
ATOM     24  C   UNL     1       6.261   5.884  16.651  0.00  0.00    +0.000 A 
ATOM     25  C   UNL     1       7.251   6.634  17.275  0.00  0.00    +0.000 A 
ATOM     26  F   UNL     1       7.870   7.616  16.604  0.00  0.00    +0.000 F 
ATOM     27  C   UNL     1       7.603   6.384  18.599  0.00  0.00    +0.000 A 
ATOM     28  C   UNL     1       6.968   5.378  19.316  0.00  0.00    +0.000 A 
BRANCH  27  29
ATOM     29  O   UNL     1       8.571   7.119  19.222  0.00  0.00    +0.000 OA
ATOM     30  H   UNL     1       9.412   6.637  19.106  0.00  0.00    +0.000 HD
ENDBRANCH  27  29
ENDBRANCH  21  22
ENDBRANCH   5  21
TORSDOF 4
ENDMDL
