MODEL 1
REMARK VINA RESULT:      -8.2      0.000      0.000
REMARK  Name = 
REMARK  9 active torsions:
REMARK  status: ('A' for Active; 'I' for Inactive)
REMARK    1  A    between atoms: C_1  and  C_2
REMARK    2  A    between atoms: C_5  and  C_6
REMARK    3  A    between atoms: N_17  and  C_18
REMARK    4  A    between atoms: C_18  and  C_19
REMARK    5  A    between atoms: C_19  and  C_20
REMARK    6  A    between atoms: C_20  and  N_21
REMARK    7  A    between atoms: N_21  and  C_22
REMARK    8  A    between atoms: C_22  and  C_23
REMARK    9  A    between atoms: C_22  and  C_24
REMARK                            x       y       z     vdW  Elec       q    Type
REMARK                         _______ _______ _______ _____ _____    ______ ____
ROOT
ATOM      1  C   UNL     1       4.764   4.260  17.471  0.00  0.00    +0.000 A 
ATOM      2  C   UNL     1       4.619   3.685  16.258  0.00  0.00    +0.000 A 
ATOM      3  N   UNL     1       5.598   4.242  15.464  0.00  0.00    +0.000 N 
ATOM      4  C   UNL     1       6.066   4.157  14.194  0.00  0.00    +0.000 A 
ATOM      5  C   UNL     1       5.691   3.398  13.082  0.00  0.00    +0.000 A 
ATOM      6  C   UNL     1       6.436   3.586  11.915  0.00  0.00    +0.000 A 
ATOM      7  C   UNL     1       7.500   4.491  11.876  0.00  0.00    +0.000 A 
ATOM      8  C   UNL     1       7.858   5.242  13.007  0.00  0.00    +0.000 A 
ATOM      9  C   UNL     1       7.125   5.074  14.194  0.00  0.00    +0.000 A 
ATOM     10  N   UNL     1       7.284   5.695  15.431  0.00  0.00    +0.000 NA
ATOM     11  C   UNL     1       6.347   5.157  16.167  0.00  0.00    +0.000 A 
ATOM     12  N   UNL     1       5.841   5.182  17.435  0.00  0.00    +0.000 N 
ENDROOT
BRANCH   1  17
ATOM     13  C   UNL     1       1.435   2.867  21.961  0.00  0.00    +0.000 C 
ATOM     14  C   UNL     1       2.326   3.247  20.815  0.00  0.00    +0.000 A 
ATOM     15  C   UNL     1       3.503   2.536  20.553  0.00  0.00    +0.000 A 
ATOM     16  C   UNL     1       4.316   2.889  19.474  0.00  0.00    +0.000 A 
ATOM     17  C   UNL     1       3.962   3.958  18.644  0.00  0.00    +0.000 A 
ATOM     18  C   UNL     1       2.792   4.675  18.906  0.00  0.00    +0.000 A 
ATOM     19  C   UNL     1       1.979   4.323  19.988  0.00  0.00    +0.000 A 
ENDBRANCH   1  17
BRANCH  12  20
ATOM     20  C   UNL     1       6.307   5.992  18.547  0.00  0.00    +0.000 C 
BRANCH  20  21
ATOM     21  C   UNL     1       7.798   6.330  18.567  0.00  0.00    +0.000 C 
BRANCH  21  22
ATOM     22  C   UNL     1       7.994   7.811  18.207  0.00  0.00    +0.000 C 
BRANCH  22  23
ATOM     23  N   UNL     1       8.885   8.465  19.164  0.00  0.00    +0.000 NA
ATOM     24  H   UNL     1       9.733   7.906  19.268  0.00  0.00    +0.000 HD
BRANCH  23  25
ATOM     25  C   UNL     1       9.249   9.841  18.794  0.00  0.00    +0.000 C 
ATOM     26  C   UNL     1       8.261  10.470  17.810  0.00  0.00    +0.000 C 
ATOM     27  C   UNL     1       9.292  10.681  20.074  0.00  0.00    +0.000 C 
ENDBRANCH  23  25
ENDBRANCH  22  23
ENDBRANCH  21  22
ENDBRANCH  20  21
ENDBRANCH  12  20
TORSDOF 6
ENDMDL
MODEL 2
REMARK VINA RESULT:      -8.0      4.310      8.388
REMARK  Name = 
REMARK  9 active torsions:
REMARK  status: ('A' for Active; 'I' for Inactive)
REMARK    1  A    between atoms: C_1  and  C_2
REMARK    2  A    between atoms: C_5  and  C_6
REMARK    3  A    between atoms: N_17  and  C_18
REMARK    4  A    between atoms: C_18  and  C_19
REMARK    5  A    between atoms: C_19  and  C_20
REMARK    6  A    between atoms: C_20  and  N_21
REMARK    7  A    between atoms: N_21  and  C_22
REMARK    8  A    between atoms: C_22  and  C_23
REMARK    9  A    between atoms: C_22  and  C_24
REMARK                            x       y       z     vdW  Elec       q    Type
REMARK                         _______ _______ _______ _____ _____    ______ ____
ROOT
ATOM      1  C   UNL     1       2.843   7.233  18.374  0.00  0.00    +0.000 A 
ATOM      2  C   UNL     1       2.393   8.444  17.979  0.00  0.00    +0.000 A 
ATOM      3  N   UNL     1       1.636   8.918  19.029  0.00  0.00    +0.000 N 
ATOM      4  C   UNL     1       0.913  10.015  19.363  0.00  0.00    +0.000 A 
ATOM      5  C   UNL     1       0.620  11.211  18.700  0.00  0.00    +0.000 A 
ATOM      6  C   UNL     1      -0.175  12.130  19.389  0.00  0.00    +0.000 A 
ATOM      7  C   UNL     1      -0.645  11.857  20.676  0.00  0.00    +0.000 A 
ATOM      8  C   UNL     1      -0.337  10.648  21.322  0.00  0.00    +0.000 A 
ATOM      9  C   UNL     1       0.459   9.704  20.652  0.00  0.00    +0.000 A 
ATOM     10  N   UNL     1       0.896   8.451  21.075  0.00  0.00    +0.000 NA
ATOM     11  C   UNL     1       1.608   8.017  20.069  0.00  0.00    +0.000 A 
ATOM     12  N   UNL     1       2.365   6.950  19.678  0.00  0.00    +0.000 N 
ENDROOT
BRANCH   1  17
ATOM     13  C   UNL     1       6.137   3.874  15.050  0.00  0.00    +0.000 C 
ATOM     14  C   UNL     1       5.305   4.746  15.944  0.00  0.00    +0.000 A 
ATOM     15  C   UNL     1       5.628   6.094  16.136  0.00  0.00    +0.000 A 
ATOM     16  C   UNL     1       4.837   6.900  16.957  0.00  0.00    +0.000 A 
ATOM     17  C   UNL     1       3.712   6.367  17.596  0.00  0.00    +0.000 A 
ATOM     18  C   UNL     1       3.391   5.020  17.413  0.00  0.00    +0.000 A 
ATOM     19  C   UNL     1       4.184   4.213  16.593  0.00  0.00    +0.000 A 
ENDBRANCH   1  17
BRANCH  12  20
ATOM     20  C   UNL     1       2.639   5.746  20.444  0.00  0.00    +0.000 C 
BRANCH  20  21
ATOM     21  C   UNL     1       1.447   4.830  20.725  0.00  0.00    +0.000 C 
BRANCH  21  22
ATOM     22  C   UNL     1       1.952   3.464  21.213  0.00  0.00    +0.000 C 
BRANCH  22  23
ATOM     23  N   UNL     1       2.929   2.907  20.279  0.00  0.00    +0.000 NA
ATOM     24  H   UNL     1       3.729   2.551  20.804  0.00  0.00    +0.000 HD
BRANCH  23  25
ATOM     25  C   UNL     1       2.392   1.840  19.423  0.00  0.00    +0.000 C 
ATOM     26  C   UNL     1       1.177   2.289  18.608  0.00  0.00    +0.000 C 
ATOM     27  C   UNL     1       3.504   1.392  18.469  0.00  0.00    +0.000 C 
ENDBRANCH  23  25
ENDBRANCH  22  23
ENDBRANCH  21  22
ENDBRANCH  20  21
ENDBRANCH  12  20
TORSDOF 6
ENDMDL
MODEL 3
REMARK VINA RESULT:      -8.0      4.151      7.619
REMARK  Name = 
REMARK  9 active torsions:
REMARK  status: ('A' for Active; 'I' for Inactive)
REMARK    1  A    between atoms: C_1  and  C_2
REMARK    2  A    between atoms: C_5  and  C_6
REMARK    3  A    between atoms: N_17  and  C_18
REMARK    4  A    between atoms: C_18  and  C_19
REMARK    5  A    between atoms: C_19  and  C_20
REMARK    6  A    between atoms: C_20  and  N_21
REMARK    7  A    between atoms: N_21  and  C_22
REMARK    8  A    between atoms: C_22  and  C_23
REMARK    9  A    between atoms: C_22  and  C_24
REMARK                            x       y       z     vdW  Elec       q    Type
REMARK                         _______ _______ _______ _____ _____    ______ ____
ROOT
ATOM      1  C   UNL     1       2.117   6.492  19.641  0.00  0.00    +0.000 A 
ATOM      2  C   UNL     1       1.430   6.763  20.772  0.00  0.00    +0.000 A 
ATOM      3  N   UNL     1       1.149   8.111  20.720  0.00  0.00    +0.000 N 
ATOM      4  C   UNL     1       0.510   9.058  21.451  0.00  0.00    +0.000 A 
ATOM      5  C   UNL     1      -0.176   9.030  22.669  0.00  0.00    +0.000 A 
ATOM      6  C   UNL     1      -0.720  10.239  23.109  0.00  0.00    +0.000 A 
ATOM      7  C   UNL     1      -0.579  11.410  22.360  0.00  0.00    +0.000 A 
ATOM      8  C   UNL     1       0.116  11.413  21.138  0.00  0.00    +0.000 A 
ATOM      9  C   UNL     1       0.674  10.211  20.672  0.00  0.00    +0.000 A 
ATOM     10  N   UNL     1       1.397   9.961  19.508  0.00  0.00    +0.000 NA
ATOM     11  C   UNL     1       1.655   8.682  19.575  0.00  0.00    +0.000 A 
ATOM     12  N   UNL     1       2.267   7.678  18.880  0.00  0.00    +0.000 N 
ENDROOT
BRANCH   1  17
ATOM     13  C   UNL     1       3.875   1.174  18.297  0.00  0.00    +0.000 C 
ATOM     14  C   UNL     1       3.431   2.571  18.614  0.00  0.00    +0.000 A 
ATOM     15  C   UNL     1       2.270   3.103  18.043  0.00  0.00    +0.000 A 
ATOM     16  C   UNL     1       1.857   4.400  18.358  0.00  0.00    +0.000 A 
ATOM     17  C   UNL     1       2.602   5.180  19.249  0.00  0.00    +0.000 A 
ATOM     18  C   UNL     1       3.767   4.656  19.815  0.00  0.00    +0.000 A 
ATOM     19  C   UNL     1       4.180   3.359  19.498  0.00  0.00    +0.000 A 
ENDBRANCH   1  17
BRANCH  12  20
ATOM     20  C   UNL     1       2.944   7.790  17.600  0.00  0.00    +0.000 C 
BRANCH  20  21
ATOM     21  C   UNL     1       4.435   7.449  17.584  0.00  0.00    +0.000 C 
BRANCH  21  22
ATOM     22  C   UNL     1       4.698   6.333  16.561  0.00  0.00    +0.000 C 
BRANCH  22  23
ATOM     23  N   UNL     1       6.100   6.327  16.147  0.00  0.00    +0.000 NA
ATOM     24  H   UNL     1       6.621   6.992  16.719  0.00  0.00    +0.000 HD
BRANCH  23  25
ATOM     25  C   UNL     1       6.738   5.006  16.229  0.00  0.00    +0.000 C 
ATOM     26  C   UNL     1       7.345   4.727  17.606  0.00  0.00    +0.000 C 
ATOM     27  C   UNL     1       5.677   3.945  15.920  0.00  0.00    +0.000 C 
ENDBRANCH  23  25
ENDBRANCH  22  23
ENDBRANCH  21  22
ENDBRANCH  20  21
ENDBRANCH  12  20
TORSDOF 6
ENDMDL
MODEL 4
REMARK VINA RESULT:      -7.9      4.345      8.460
REMARK  Name = 
REMARK  9 active torsions:
REMARK  status: ('A' for Active; 'I' for Inactive)
REMARK    1  A    between atoms: C_1  and  C_2
REMARK    2  A    between atoms: C_5  and  C_6
REMARK    3  A    between atoms: N_17  and  C_18
REMARK    4  A    between atoms: C_18  and  C_19
REMARK    5  A    between atoms: C_19  and  C_20
REMARK    6  A    between atoms: C_20  and  N_21
REMARK    7  A    between atoms: N_21  and  C_22
REMARK    8  A    between atoms: C_22  and  C_23
REMARK    9  A    between atoms: C_22  and  C_24
REMARK                            x       y       z     vdW  Elec       q    Type
REMARK                         _______ _______ _______ _____ _____    ______ ____
ROOT
ATOM      1  C   UNL     1       2.813   7.215  18.358  0.00  0.00    +0.000 A 
ATOM      2  C   UNL     1       2.303   8.417  18.012  0.00  0.00    +0.000 A 
ATOM      3  N   UNL     1       1.615   8.861  19.121  0.00  0.00    +0.000 N 
ATOM      4  C   UNL     1       0.891   9.935  19.521  0.00  0.00    +0.000 A 
ATOM      5  C   UNL     1       0.518  11.129  18.895  0.00  0.00    +0.000 A 
ATOM      6  C   UNL     1      -0.246  12.020  19.653  0.00  0.00    +0.000 A 
ATOM      7  C   UNL     1      -0.610  11.723  20.968  0.00  0.00    +0.000 A 
ATOM      8  C   UNL     1      -0.222  10.517  21.575  0.00  0.00    +0.000 A 
ATOM      9  C   UNL     1       0.545   9.601  20.837  0.00  0.00    +0.000 A 
ATOM     10  N   UNL     1       1.045   8.356  21.212  0.00  0.00    +0.000 NA
ATOM     11  C   UNL     1       1.689   7.950  20.150  0.00  0.00    +0.000 A 
ATOM     12  N   UNL     1       2.442   6.907  19.691  0.00  0.00    +0.000 N 
ENDROOT
BRANCH   1  17
ATOM     13  C   UNL     1       6.269   3.844  15.216  0.00  0.00    +0.000 C 
ATOM     14  C   UNL     1       5.343   4.721  16.006  0.00  0.00    +0.000 A 
ATOM     15  C   UNL     1       4.243   4.181  16.682  0.00  0.00    +0.000 A 
ATOM     16  C   UNL     1       3.398   5.005  17.428  0.00  0.00    +0.000 A 
ATOM     17  C   UNL     1       3.642   6.380  17.507  0.00  0.00    +0.000 A 
ATOM     18  C   UNL     1       4.735   6.925  16.827  0.00  0.00    +0.000 A 
ATOM     19  C   UNL     1       5.579   6.100  16.079  0.00  0.00    +0.000 A 
ENDBRANCH   1  17
BRANCH  12  20
ATOM     20  C   UNL     1       2.804   5.704  20.421  0.00  0.00    +0.000 C 
BRANCH  20  21
ATOM     21  C   UNL     1       1.651   4.801  20.862  0.00  0.00    +0.000 C 
BRANCH  21  22
ATOM     22  C   UNL     1       2.215   3.542  21.540  0.00  0.00    +0.000 C 
BRANCH  22  23
ATOM     23  N   UNL     1       1.834   2.340  20.802  0.00  0.00    +0.000 NA
ATOM     24  H   UNL     1       0.859   2.116  21.006  0.00  0.00    +0.000 HD
BRANCH  23  25
ATOM     25  C   UNL     1       2.015   2.452  19.348  0.00  0.00    +0.000 C 
ATOM     26  C   UNL     1       3.110   1.525  18.814  0.00  0.00    +0.000 C 
ATOM     27  C   UNL     1       0.684   2.101  18.674  0.00  0.00    +0.000 C 
ENDBRANCH  23  25
ENDBRANCH  22  23
ENDBRANCH  21  22
ENDBRANCH  20  21
ENDBRANCH  12  20
TORSDOF 6
ENDMDL
MODEL 5
REMARK VINA RESULT:      -7.7      4.217      7.428
REMARK  Name = 
REMARK  9 active torsions:
REMARK  status: ('A' for Active; 'I' for Inactive)
REMARK    1  A    between atoms: C_1  and  C_2
REMARK    2  A    between atoms: C_5  and  C_6
REMARK    3  A    between atoms: N_17  and  C_18
REMARK    4  A    between atoms: C_18  and  C_19
REMARK    5  A    between atoms: C_19  and  C_20
REMARK    6  A    between atoms: C_20  and  N_21
REMARK    7  A    between atoms: N_21  and  C_22
REMARK    8  A    between atoms: C_22  and  C_23
REMARK    9  A    between atoms: C_22  and  C_24
REMARK                            x       y       z     vdW  Elec       q    Type
REMARK                         _______ _______ _______ _____ _____    ______ ____
ROOT
ATOM      1  C   UNL     1       2.014   6.486  19.750  0.00  0.00    +0.000 A 
ATOM      2  C   UNL     1       1.381   6.838  20.889  0.00  0.00    +0.000 A 
ATOM      3  N   UNL     1       1.106   8.182  20.761  0.00  0.00    +0.000 N 
ATOM      4  C   UNL     1       0.506   9.181  21.455  0.00  0.00    +0.000 A 
ATOM      5  C   UNL     1      -0.123   9.240  22.702  0.00  0.00    +0.000 A 
ATOM      6  C   UNL     1      -0.640  10.481  23.084  0.00  0.00    +0.000 A 
ATOM      7  C   UNL     1      -0.526  11.598  22.253  0.00  0.00    +0.000 A 
ATOM      8  C   UNL     1       0.111  11.513  21.003  0.00  0.00    +0.000 A 
ATOM      9  C   UNL     1       0.640  10.278  20.594  0.00  0.00    +0.000 A 
ATOM     10  N   UNL     1       1.307   9.945  19.417  0.00  0.00    +0.000 NA
ATOM     11  C   UNL     1       1.562   8.671  19.558  0.00  0.00    +0.000 A 
ATOM     12  N   UNL     1       2.135   7.618  18.904  0.00  0.00    +0.000 N 
ENDROOT
BRANCH   1  17
ATOM     13  C   UNL     1       3.935   1.280  18.206  0.00  0.00    +0.000 C 
ATOM     14  C   UNL     1       3.430   2.623  18.644  0.00  0.00    +0.000 A 
ATOM     15  C   UNL     1       4.264   3.516  19.327  0.00  0.00    +0.000 A 
ATOM     16  C   UNL     1       3.788   4.770  19.715  0.00  0.00    +0.000 A 
ATOM     17  C   UNL     1       2.473   5.147  19.424  0.00  0.00    +0.000 A 
ATOM     18  C   UNL     1       1.635   4.255  18.750  0.00  0.00    +0.000 A 
ATOM     19  C   UNL     1       2.110   2.999  18.363  0.00  0.00    +0.000 A 
ENDBRANCH   1  17
BRANCH  12  20
ATOM     20  C   UNL     1       2.754   7.638  17.590  0.00  0.00    +0.000 C 
BRANCH  20  21
ATOM     21  C   UNL     1       4.282   7.620  17.555  0.00  0.00    +0.000 C 
BRANCH  21  22
ATOM     22  C   UNL     1       4.762   6.554  16.558  0.00  0.00    +0.000 C 
BRANCH  22  23
ATOM     23  N   UNL     1       6.222   6.505  16.510  0.00  0.00    +0.000 NA
ATOM     24  H   UNL     1       6.581   7.437  16.301  0.00  0.00    +0.000 HD
BRANCH  23  25
ATOM     25  C   UNL     1       6.841   6.009  17.747  0.00  0.00    +0.000 C 
ATOM     26  C   UNL     1       7.503   4.640  17.570  0.00  0.00    +0.000 C 
ATOM     27  C   UNL     1       7.897   7.026  18.191  0.00  0.00    +0.000 C 
ENDBRANCH  23  25
ENDBRANCH  22  23
ENDBRANCH  21  22
ENDBRANCH  20  21
ENDBRANCH  12  20
TORSDOF 6
ENDMDL
MODEL 6
REMARK VINA RESULT:      -7.5      4.151      7.299
REMARK  Name = 
REMARK  9 active torsions:
REMARK  status: ('A' for Active; 'I' for Inactive)
REMARK    1  A    between atoms: C_1  and  C_2
REMARK    2  A    between atoms: C_5  and  C_6
REMARK    3  A    between atoms: N_17  and  C_18
REMARK    4  A    between atoms: C_18  and  C_19
REMARK    5  A    between atoms: C_19  and  C_20
REMARK    6  A    between atoms: C_20  and  N_21
REMARK    7  A    between atoms: N_21  and  C_22
REMARK    8  A    between atoms: C_22  and  C_23
REMARK    9  A    between atoms: C_22  and  C_24
REMARK                            x       y       z     vdW  Elec       q    Type
REMARK                         _______ _______ _______ _____ _____    ______ ____
ROOT
ATOM      1  C   UNL     1       2.247   6.608  19.323  0.00  0.00    +0.000 A 
ATOM      2  C   UNL     1       1.554   7.089  20.378  0.00  0.00    +0.000 A 
ATOM      3  N   UNL     1       1.372   8.430  20.121  0.00  0.00    +0.000 N 
ATOM      4  C   UNL     1       0.785   9.516  20.684  0.00  0.00    +0.000 A 
ATOM      5  C   UNL     1       0.070   9.714  21.869  0.00  0.00    +0.000 A 
ATOM      6  C   UNL     1      -0.396  11.009  22.110  0.00  0.00    +0.000 A 
ATOM      7  C   UNL     1      -0.154  12.044  21.203  0.00  0.00    +0.000 A 
ATOM      8  C   UNL     1       0.566  11.819  20.018  0.00  0.00    +0.000 A 
ATOM      9  C   UNL     1       1.048  10.527  19.751  0.00  0.00    +0.000 A 
ATOM     10  N   UNL     1       1.778  10.060  18.660  0.00  0.00    +0.000 NA
ATOM     11  C   UNL     1       1.943   8.790  18.922  0.00  0.00    +0.000 A 
ATOM     12  N   UNL     1       2.498   7.656  18.401  0.00  0.00    +0.000 N 
ENDROOT
BRANCH   1  17
ATOM     13  C   UNL     1       3.983   1.198  18.374  0.00  0.00    +0.000 C 
ATOM     14  C   UNL     1       3.519   2.597  18.656  0.00  0.00    +0.000 A 
ATOM     15  C   UNL     1       4.281   3.460  19.451  0.00  0.00    +0.000 A 
ATOM     16  C   UNL     1       3.847   4.766  19.693  0.00  0.00    +0.000 A 
ATOM     17  C   UNL     1       2.645   5.223  19.142  0.00  0.00    +0.000 A 
ATOM     18  C   UNL     1       1.877   4.361  18.354  0.00  0.00    +0.000 A 
ATOM     19  C   UNL     1       2.311   3.055  18.114  0.00  0.00    +0.000 A 
ENDBRANCH   1  17
BRANCH  12  20
ATOM     20  C   UNL     1       3.211   7.531  17.142  0.00  0.00    +0.000 C 
BRANCH  20  21
ATOM     21  C   UNL     1       4.688   7.145  17.229  0.00  0.00    +0.000 C 
BRANCH  21  22
ATOM     22  C   UNL     1       5.076   6.312  15.998  0.00  0.00    +0.000 C 
BRANCH  22  23
ATOM     23  N   UNL     1       6.526   6.140  15.922  0.00  0.00    +0.000 NA
ATOM     24  H   UNL     1       6.973   6.773  16.587  0.00  0.00    +0.000 HD
BRANCH  23  25
ATOM     25  C   UNL     1       6.976   4.765  16.177  0.00  0.00    +0.000 C 
ATOM     26  C   UNL     1       7.509   4.570  17.599  0.00  0.00    +0.000 C 
ATOM     27  C   UNL     1       5.787   3.826  15.950  0.00  0.00    +0.000 C 
ENDBRANCH  23  25
ENDBRANCH  22  23
ENDBRANCH  21  22
ENDBRANCH  20  21
ENDBRANCH  12  20
TORSDOF 6
ENDMDL
MODEL 7
REMARK VINA RESULT:      -7.5      3.773      6.720
REMARK  Name = 
REMARK  9 active torsions:
REMARK  status: ('A' for Active; 'I' for Inactive)
REMARK    1  A    between atoms: C_1  and  C_2
REMARK    2  A    between atoms: C_5  and  C_6
REMARK    3  A    between atoms: N_17  and  C_18
REMARK    4  A    between atoms: C_18  and  C_19
REMARK    5  A    between atoms: C_19  and  C_20
REMARK    6  A    between atoms: C_20  and  N_21
REMARK    7  A    between atoms: N_21  and  C_22
REMARK    8  A    between atoms: C_22  and  C_23
REMARK    9  A    between atoms: C_22  and  C_24
REMARK                            x       y       z     vdW  Elec       q    Type
REMARK                         _______ _______ _______ _____ _____    ______ ____
ROOT
ATOM      1  C   UNL     1       2.218   7.613  19.281  0.00  0.00    +0.000 A 
ATOM      2  C   UNL     1       2.990   7.866  18.202  0.00  0.00    +0.000 A 
ATOM      3  N   UNL     1       3.563   6.659  17.865  0.00  0.00    +0.000 N 
ATOM      4  C   UNL     1       4.401   6.142  16.932  0.00  0.00    +0.000 A 
ATOM      5  C   UNL     1       5.083   6.694  15.843  0.00  0.00    +0.000 A 
ATOM      6  C   UNL     1       5.869   5.819  15.089  0.00  0.00    +0.000 A 
ATOM      7  C   UNL     1       5.959   4.464  15.417  0.00  0.00    +0.000 A 
ATOM      8  C   UNL     1       5.264   3.933  16.516  0.00  0.00    +0.000 A 
ATOM      9  C   UNL     1       4.467   4.790  17.293  0.00  0.00    +0.000 A 
ATOM     10  N   UNL     1       3.693   4.507  18.416  0.00  0.00    +0.000 NA
ATOM     11  C   UNL     1       3.160   5.661  18.721  0.00  0.00    +0.000 A 
ATOM     12  N   UNL     1       2.310   6.240  19.619  0.00  0.00    +0.000 N 
ENDROOT
BRANCH   1  17
ATOM     13  C   UNL     1      -0.819  11.664  22.027  0.00  0.00    +0.000 C 
ATOM     14  C   UNL     1      -0.061  10.592  21.302  0.00  0.00    +0.000 A 
ATOM     15  C   UNL     1       0.042  10.602  19.907  0.00  0.00    +0.000 A 
ATOM     16  C   UNL     1       0.765   9.608  19.244  0.00  0.00    +0.000 A 
ATOM     17  C   UNL     1       1.393   8.591  19.970  0.00  0.00    +0.000 A 
ATOM     18  C   UNL     1       1.287   8.572  21.363  0.00  0.00    +0.000 A 
ATOM     19  C   UNL     1       0.562   9.566  22.026  0.00  0.00    +0.000 A 
ENDBRANCH   1  17
BRANCH  12  20
ATOM     20  C   UNL     1       1.621   5.585  20.718  0.00  0.00    +0.000 C 
BRANCH  20  21
ATOM     21  C   UNL     1       2.403   4.505  21.467  0.00  0.00    +0.000 C 
BRANCH  21  22
ATOM     22  C   UNL     1       1.746   3.136  21.233  0.00  0.00    +0.000 C 
BRANCH  22  23
ATOM     23  N   UNL     1       2.526   2.340  20.287  0.00  0.00    +0.000 NA
ATOM     24  H   UNL     1       2.980   1.575  20.787  0.00  0.00    +0.000 HD
BRANCH  23  25
ATOM     25  C   UNL     1       1.735   1.796  19.174  0.00  0.00    +0.000 C 
ATOM     26  C   UNL     1       0.541   2.680  18.807  0.00  0.00    +0.000 C 
ATOM     27  C   UNL     1       2.657   1.660  17.958  0.00  0.00    +0.000 C 
ENDBRANCH  23  25
ENDBRANCH  22  23
ENDBRANCH  21  22
ENDBRANCH  20  21
ENDBRANCH  12  20
TORSDOF 6
ENDMDL
MODEL 8
REMARK VINA RESULT:      -7.5      3.719      6.562
REMARK  Name = 
REMARK  9 active torsions:
REMARK  status: ('A' for Active; 'I' for Inactive)
REMARK    1  A    between atoms: C_1  and  C_2
REMARK    2  A    between atoms: C_5  and  C_6
REMARK    3  A    between atoms: N_17  and  C_18
REMARK    4  A    between atoms: C_18  and  C_19
REMARK    5  A    between atoms: C_19  and  C_20
REMARK    6  A    between atoms: C_20  and  N_21
REMARK    7  A    between atoms: N_21  and  C_22
REMARK    8  A    between atoms: C_22  and  C_23
REMARK    9  A    between atoms: C_22  and  C_24
REMARK                            x       y       z     vdW  Elec       q    Type
REMARK                         _______ _______ _______ _____ _____    ______ ____
ROOT
ATOM      1  C   UNL     1       2.424   7.749  18.699  0.00  0.00    +0.000 A 
ATOM      2  C   UNL     1       3.160   7.825  17.570  0.00  0.00    +0.000 A 
ATOM      3  N   UNL     1       3.830   6.624  17.481  0.00  0.00    +0.000 N 
ATOM      4  C   UNL     1       4.698   5.988  16.657  0.00  0.00    +0.000 A 
ATOM      5  C   UNL     1       5.319   6.346  15.456  0.00  0.00    +0.000 A 
ATOM      6  C   UNL     1       6.168   5.396  14.883  0.00  0.00    +0.000 A 
ATOM      7  C   UNL     1       6.378   4.154  15.489  0.00  0.00    +0.000 A 
ATOM      8  C   UNL     1       5.741   3.818  16.696  0.00  0.00    +0.000 A 
ATOM      9  C   UNL     1       4.883   4.755  17.295  0.00  0.00    +0.000 A 
ATOM     10  N   UNL     1       4.148   4.658  18.474  0.00  0.00    +0.000 NA
ATOM     11  C   UNL     1       3.522   5.804  18.542  0.00  0.00    +0.000 A 
ATOM     12  N   UNL     1       2.636   6.491  19.320  0.00  0.00    +0.000 N 
ENDROOT
BRANCH   1  17
ATOM     13  C   UNL     1      -1.351  11.650  20.624  0.00  0.00    +0.000 C 
ATOM     14  C   UNL     1      -0.339  10.657  20.134  0.00  0.00    +0.000 A 
ATOM     15  C   UNL     1       0.335   9.817  21.027  0.00  0.00    +0.000 A 
ATOM     16  C   UNL     1       1.263   8.885  20.557  0.00  0.00    +0.000 A 
ATOM     17  C   UNL     1       1.527   8.781  19.187  0.00  0.00    +0.000 A 
ATOM     18  C   UNL     1       0.861   9.623  18.293  0.00  0.00    +0.000 A 
ATOM     19  C   UNL     1      -0.066  10.557  18.763  0.00  0.00    +0.000 A 
ENDBRANCH   1  17
BRANCH  12  20
ATOM     20  C   UNL     1       2.017   6.034  20.552  0.00  0.00    +0.000 C 
BRANCH  20  21
ATOM     21  C   UNL     1       1.061   4.846  20.436  0.00  0.00    +0.000 C 
BRANCH  21  22
ATOM     22  C   UNL     1       1.657   3.633  21.167  0.00  0.00    +0.000 C 
BRANCH  22  23
ATOM     23  N   UNL     1       2.673   2.978  20.345  0.00  0.00    +0.000 NA
ATOM     24  H   UNL     1       3.401   2.598  20.951  0.00  0.00    +0.000 HD
BRANCH  23  25
ATOM     25  C   UNL     1       2.145   1.909  19.486  0.00  0.00    +0.000 C 
ATOM     26  C   UNL     1       0.920   2.347  18.680  0.00  0.00    +0.000 C 
ATOM     27  C   UNL     1       3.257   1.480  18.523  0.00  0.00    +0.000 C 
ENDBRANCH  23  25
ENDBRANCH  22  23
ENDBRANCH  21  22
ENDBRANCH  20  21
ENDBRANCH  12  20
TORSDOF 6
ENDMDL
MODEL 9
REMARK VINA RESULT:      -7.5      2.965      7.759
REMARK  Name = 
REMARK  9 active torsions:
REMARK  status: ('A' for Active; 'I' for Inactive)
REMARK    1  A    between atoms: C_1  and  C_2
REMARK    2  A    between atoms: C_5  and  C_6
REMARK    3  A    between atoms: N_17  and  C_18
REMARK    4  A    between atoms: C_18  and  C_19
REMARK    5  A    between atoms: C_19  and  C_20
REMARK    6  A    between atoms: C_20  and  N_21
REMARK    7  A    between atoms: N_21  and  C_22
REMARK    8  A    between atoms: C_22  and  C_23
REMARK    9  A    between atoms: C_22  and  C_24
REMARK                            x       y       z     vdW  Elec       q    Type
REMARK                         _______ _______ _______ _____ _____    ______ ____
ROOT
ATOM      1  C   UNL     1       4.447   5.773  17.051  0.00  0.00    +0.000 A 
ATOM      2  C   UNL     1       3.668   6.874  16.992  0.00  0.00    +0.000 A 
ATOM      3  N   UNL     1       3.101   6.994  18.243  0.00  0.00    +0.000 N 
ATOM      4  C   UNL     1       2.262   7.818  18.918  0.00  0.00    +0.000 A 
ATOM      5  C   UNL     1       1.571   8.982  18.567  0.00  0.00    +0.000 A 
ATOM      6  C   UNL     1       0.787   9.568  19.563  0.00  0.00    +0.000 A 
ATOM      7  C   UNL     1       0.707   9.011  20.842  0.00  0.00    +0.000 A 
ATOM      8  C   UNL     1       1.411   7.841  21.170  0.00  0.00    +0.000 A 
ATOM      9  C   UNL     1       2.207   7.229  20.188  0.00  0.00    +0.000 A 
ATOM     10  N   UNL     1       2.989   6.079  20.268  0.00  0.00    +0.000 NA
ATOM     11  C   UNL     1       3.515   5.980  19.076  0.00  0.00    +0.000 A 
ATOM     12  N   UNL     1       4.366   5.201  18.346  0.00  0.00    +0.000 N 
ENDROOT
BRANCH   1  17
ATOM     13  C   UNL     1       7.631   4.007  12.587  0.00  0.00    +0.000 C 
ATOM     14  C   UNL     1       6.820   4.441  13.772  0.00  0.00    +0.000 A 
ATOM     15  C   UNL     1       7.366   5.282  14.748  0.00  0.00    +0.000 A 
ATOM     16  C   UNL     1       6.595   5.693  15.838  0.00  0.00    +0.000 A 
ATOM     17  C   UNL     1       5.269   5.268  15.964  0.00  0.00    +0.000 A 
ATOM     18  C   UNL     1       4.722   4.422  14.996  0.00  0.00    +0.000 A 
ATOM     19  C   UNL     1       5.494   4.009  13.907  0.00  0.00    +0.000 A 
ENDBRANCH   1  17
BRANCH  12  20
ATOM     20  C   UNL     1       5.065   4.010  18.797  0.00  0.00    +0.000 C 
BRANCH  20  21
ATOM     21  C   UNL     1       4.194   2.838  19.250  0.00  0.00    +0.000 C 
BRANCH  21  22
ATOM     22  C   UNL     1       3.327   2.357  18.076  0.00  0.00    +0.000 C 
BRANCH  22  23
ATOM     23  N   UNL     1       2.094   1.739  18.559  0.00  0.00    +0.000 NA
ATOM     24  H   UNL     1       2.269   1.305  19.466  0.00  0.00    +0.000 HD
BRANCH  23  25
ATOM     25  C   UNL     1       0.965   2.674  18.674  0.00  0.00    +0.000 C 
ATOM     26  C   UNL     1       0.799   3.230  20.091  0.00  0.00    +0.000 C 
ATOM     27  C   UNL     1       1.208   3.833  17.702  0.00  0.00    +0.000 C 
ENDBRANCH  23  25
ENDBRANCH  22  23
ENDBRANCH  21  22
ENDBRANCH  20  21
ENDBRANCH  12  20
TORSDOF 6
ENDMDL
