MODEL 1
REMARK VINA RESULT:      -6.9      0.000      0.000
REMARK  Name = 
REMARK  1 active torsions:
REMARK  status: ('A' for Active; 'I' for Inactive)
REMARK    1  A    between atoms: N_2  and  C_4
REMARK                            x       y       z     vdW  Elec       q    Type
REMARK                         _______ _______ _______ _____ _____    ______ ____
ROOT
ATOM      1  C   UNL     1       6.947   4.887  14.130  0.00  0.00    +0.000 A 
ATOM      2  C   UNL     1       6.051   3.870  13.785  0.00  0.00    +0.000 A 
ATOM      3  C   UNL     1       5.139   3.391  14.736  0.00  0.00    +0.000 A 
ATOM      4  C   UNL     1       5.120   3.941  16.036  0.00  0.00    +0.000 A 
ATOM      5  N   UNL     1       4.304   3.543  17.080  0.00  0.00    +0.000 NA
ATOM      6  C   UNL     1       4.488   4.299  18.140  0.00  0.00    +0.000 A 
ATOM      7  N   UNL     1       3.835   4.137  19.324  0.00  0.00    +0.000 N 
ATOM      8  C   UNL     1       3.400   2.810  19.742  0.00  0.00    +0.000 C 
ATOM      9  C   UNL     1       1.877   2.741  19.840  0.00  0.00    +0.000 C 
ATOM     10  C   UNL     1       1.316   3.888  20.679  0.00  0.00    +0.000 C 
ATOM     11  C   UNL     1       1.815   5.233  20.155  0.00  0.00    +0.000 C 
ATOM     12  C   UNL     1       3.342   5.272  20.092  0.00  0.00    +0.000 C 
ATOM     13  S   UNL     1       5.718   5.502  17.941  0.00  0.00    +0.000 S 
ATOM     14  C   UNL     1       6.000   4.980  16.335  0.00  0.00    +0.000 A 
ATOM     15  C   UNL     1       6.937   5.467  15.407  0.00  0.00    +0.000 A 
ENDROOT
BRANCH   1  17
ATOM     16  O   UNL     1       8.874   6.044  13.549  0.00  0.00    +0.000 OA
ATOM     17  N   UNL     1       7.925   5.362  13.140  0.00  0.00    +0.000 N 
ATOM     18  O   UNL     1       7.739   5.054  11.955  0.00  0.00    +0.000 OA
ENDBRANCH   1  17
TORSDOF 1
ENDMDL
MODEL 2
REMARK VINA RESULT:      -6.8      1.435      2.207
REMARK  Name = 
REMARK  1 active torsions:
REMARK  status: ('A' for Active; 'I' for Inactive)
REMARK    1  A    between atoms: N_2  and  C_4
REMARK                            x       y       z     vdW  Elec       q    Type
REMARK                         _______ _______ _______ _____ _____    ______ ____
ROOT
ATOM      1  C   UNL     1       6.658   4.730  15.115  0.00  0.00    +0.000 A 
ATOM      2  C   UNL     1       7.384   4.843  16.306  0.00  0.00    +0.000 A 
ATOM      3  C   UNL     1       6.723   4.737  17.538  0.00  0.00    +0.000 A 
ATOM      4  C   UNL     1       5.331   4.509  17.576  0.00  0.00    +0.000 A 
ATOM      5  N   UNL     1       4.548   4.420  18.714  0.00  0.00    +0.000 NA
ATOM      6  C   UNL     1       3.300   4.138  18.409  0.00  0.00    +0.000 A 
ATOM      7  N   UNL     1       2.297   4.002  19.320  0.00  0.00    +0.000 N 
ATOM      8  C   UNL     1       2.334   4.758  20.565  0.00  0.00    +0.000 C 
ATOM      9  C   UNL     1       2.436   3.824  21.769  0.00  0.00    +0.000 C 
ATOM     10  C   UNL     1       1.370   2.730  21.721  0.00  0.00    +0.000 C 
ATOM     11  C   UNL     1       1.421   1.986  20.388  0.00  0.00    +0.000 C 
ATOM     12  C   UNL     1       1.294   2.952  19.209  0.00  0.00    +0.000 C 
ATOM     13  S   UNL     1       2.999   4.026  16.707  0.00  0.00    +0.000 S 
ATOM     14  C   UNL     1       4.645   4.363  16.372  0.00  0.00    +0.000 A 
ATOM     15  C   UNL     1       5.278   4.482  15.123  0.00  0.00    +0.000 A 
ENDROOT
BRANCH   1  17
ATOM     16  O   UNL     1       8.282   5.687  13.760  0.00  0.00    +0.000 OA
ATOM     17  N   UNL     1       7.349   4.876  13.826  0.00  0.00    +0.000 N 
ATOM     18  O   UNL     1       6.954   4.180  12.880  0.00  0.00    +0.000 OA
ENDBRANCH   1  17
TORSDOF 1
ENDMDL
MODEL 3
REMARK VINA RESULT:      -6.6      4.611      6.573
REMARK  Name = 
REMARK  1 active torsions:
REMARK  status: ('A' for Active; 'I' for Inactive)
REMARK    1  A    between atoms: N_2  and  C_4
REMARK                            x       y       z     vdW  Elec       q    Type
REMARK                         _______ _______ _______ _____ _____    ______ ____
ROOT
ATOM      1  C   UNL     1       3.435   3.236  19.848  0.00  0.00    +0.000 A 
ATOM      2  C   UNL     1       2.506   3.287  20.892  0.00  0.00    +0.000 A 
ATOM      3  C   UNL     1       1.815   4.479  21.154  0.00  0.00    +0.000 A 
ATOM      4  C   UNL     1       2.051   5.621  20.360  0.00  0.00    +0.000 A 
ATOM      5  N   UNL     1       1.472   6.867  20.527  0.00  0.00    +0.000 NA
ATOM      6  C   UNL     1       1.855   7.697  19.582  0.00  0.00    +0.000 A 
ATOM      7  N   UNL     1       1.459   8.998  19.494  0.00  0.00    +0.000 N 
ATOM      8  C   UNL     1       1.142   9.748  20.703  0.00  0.00    +0.000 C 
ATOM      9  C   UNL     1      -0.327  10.165  20.717  0.00  0.00    +0.000 C 
ATOM     10  C   UNL     1      -0.726  10.858  19.415  0.00  0.00    +0.000 C 
ATOM     11  C   UNL     1      -0.369   9.989  18.211  0.00  0.00    +0.000 C 
ATOM     12  C   UNL     1       1.113   9.611  18.219  0.00  0.00    +0.000 C 
ATOM     13  S   UNL     1       2.996   7.021  18.470  0.00  0.00    +0.000 S 
ATOM     14  C   UNL     1       2.955   5.525  19.303  0.00  0.00    +0.000 A 
ATOM     15  C   UNL     1       3.674   4.349  19.029  0.00  0.00    +0.000 A 
ENDROOT
BRANCH   1  17
ATOM     16  O   UNL     1       5.112   1.718  20.367  0.00  0.00    +0.000 OA
ATOM     17  N   UNL     1       4.182   1.994  19.599  0.00  0.00    +0.000 N 
ATOM     18  O   UNL     1       3.837   1.300  18.632  0.00  0.00    +0.000 OA
ENDBRANCH   1  17
TORSDOF 1
ENDMDL
MODEL 4
REMARK VINA RESULT:      -6.6      1.473      2.241
REMARK  Name = 
REMARK  1 active torsions:
REMARK  status: ('A' for Active; 'I' for Inactive)
REMARK    1  A    between atoms: N_2  and  C_4
REMARK                            x       y       z     vdW  Elec       q    Type
REMARK                         _______ _______ _______ _____ _____    ______ ____
ROOT
ATOM      1  C   UNL     1       6.371   5.019  14.722  0.00  0.00    +0.000 A 
ATOM      2  C   UNL     1       5.924   6.233  15.255  0.00  0.00    +0.000 A 
ATOM      3  C   UNL     1       4.974   6.234  16.286  0.00  0.00    +0.000 A 
ATOM      4  C   UNL     1       4.477   5.013  16.790  0.00  0.00    +0.000 A 
ATOM      5  N   UNL     1       3.515   4.866  17.774  0.00  0.00    +0.000 NA
ATOM      6  C   UNL     1       3.321   3.597  18.060  0.00  0.00    +0.000 A 
ATOM      7  N   UNL     1       2.425   3.144  18.981  0.00  0.00    +0.000 N 
ATOM      8  C   UNL     1       1.202   3.894  19.240  0.00  0.00    +0.000 C 
ATOM      9  C   UNL     1       1.170   4.404  20.679  0.00  0.00    +0.000 C 
ATOM     10  C   UNL     1       1.453   3.284  21.678  0.00  0.00    +0.000 C 
ATOM     11  C   UNL     1       2.758   2.571  21.333  0.00  0.00    +0.000 C 
ATOM     12  C   UNL     1       2.744   2.055  19.893  0.00  0.00    +0.000 C 
ATOM     13  S   UNL     1       4.259   2.507  17.096  0.00  0.00    +0.000 S 
ATOM     14  C   UNL     1       4.973   3.822  16.263  0.00  0.00    +0.000 A 
ATOM     15  C   UNL     1       5.911   3.791  15.217  0.00  0.00    +0.000 A 
ENDROOT
BRANCH   1  17
ATOM     16  O   UNL     1       7.103   4.306  12.637  0.00  0.00    +0.000 OA
ATOM     17  N   UNL     1       7.342   5.024  13.617  0.00  0.00    +0.000 N 
ATOM     18  O   UNL     1       8.344   5.744  13.735  0.00  0.00    +0.000 OA
ENDBRANCH   1  17
TORSDOF 1
ENDMDL
MODEL 5
REMARK VINA RESULT:      -6.4      5.320      7.115
REMARK  Name = 
REMARK  1 active torsions:
REMARK  status: ('A' for Active; 'I' for Inactive)
REMARK    1  A    between atoms: N_2  and  C_4
REMARK                            x       y       z     vdW  Elec       q    Type
REMARK                         _______ _______ _______ _____ _____    ______ ____
ROOT
ATOM      1  C   UNL     1       1.077  10.069  19.558  0.00  0.00    +0.000 A 
ATOM      2  C   UNL     1       1.558   9.991  18.247  0.00  0.00    +0.000 A 
ATOM      3  C   UNL     1       2.139   8.802  17.785  0.00  0.00    +0.000 A 
ATOM      4  C   UNL     1       2.230   7.683  18.641  0.00  0.00    +0.000 A 
ATOM      5  N   UNL     1       2.808   6.464  18.332  0.00  0.00    +0.000 NA
ATOM      6  C   UNL     1       2.672   5.611  19.324  0.00  0.00    +0.000 A 
ATOM      7  N   UNL     1       3.153   4.337  19.315  0.00  0.00    +0.000 N 
ATOM      8  C   UNL     1       4.358   4.016  18.559  0.00  0.00    +0.000 C 
ATOM      9  C   UNL     1       4.050   3.028  17.436  0.00  0.00    +0.000 C 
ATOM     10  C   UNL     1       3.281   1.813  17.952  0.00  0.00    +0.000 C 
ATOM     11  C   UNL     1       2.032   2.250  18.715  0.00  0.00    +0.000 C 
ATOM     12  C   UNL     1       2.382   3.220  19.844  0.00  0.00    +0.000 C 
ATOM     13  S   UNL     1       1.884   6.271  20.717  0.00  0.00    +0.000 S 
ATOM     14  C   UNL     1       1.706   7.782  19.928  0.00  0.00    +0.000 A 
ATOM     15  C   UNL     1       1.135   8.966  20.423  0.00  0.00    +0.000 A 
ENDROOT
BRANCH   1  17
ATOM     16  O   UNL     1      -0.424  11.832  19.395  0.00  0.00    +0.000 OA
ATOM     17  N   UNL     1       0.499  11.329  20.048  0.00  0.00    +0.000 N 
ATOM     18  O   UNL     1       0.975  11.814  21.085  0.00  0.00    +0.000 OA
ENDBRANCH   1  17
TORSDOF 1
ENDMDL
MODEL 6
REMARK VINA RESULT:      -6.4      4.413      6.370
REMARK  Name = 
REMARK  1 active torsions:
REMARK  status: ('A' for Active; 'I' for Inactive)
REMARK    1  A    between atoms: N_2  and  C_4
REMARK                            x       y       z     vdW  Elec       q    Type
REMARK                         _______ _______ _______ _____ _____    ______ ____
ROOT
ATOM      1  C   UNL     1       2.964   3.641  18.799  0.00  0.00    +0.000 A 
ATOM      2  C   UNL     1       2.286   3.291  19.972  0.00  0.00    +0.000 A 
ATOM      3  C   UNL     1       1.733   4.291  20.784  0.00  0.00    +0.000 A 
ATOM      4  C   UNL     1       1.855   5.648  20.414  0.00  0.00    +0.000 A 
ATOM      5  N   UNL     1       1.394   6.736  21.134  0.00  0.00    +0.000 NA
ATOM      6  C   UNL     1       1.609   7.859  20.485  0.00  0.00    +0.000 A 
ATOM      7  N   UNL     1       1.275   9.093  20.953  0.00  0.00    +0.000 N 
ATOM      8  C   UNL     1       1.267   9.354  22.387  0.00  0.00    +0.000 C 
ATOM      9  C   UNL     1      -0.140   9.699  22.871  0.00  0.00    +0.000 C 
ATOM     10  C   UNL     1      -0.771  10.800  22.021  0.00  0.00    +0.000 C 
ATOM     11  C   UNL     1      -0.730  10.429  20.541  0.00  0.00    +0.000 C 
ATOM     12  C   UNL     1       0.696  10.113  20.088  0.00  0.00    +0.000 C 
ATOM     13  S   UNL     1       2.445   7.655  18.983  0.00  0.00    +0.000 S 
ATOM     14  C   UNL     1       2.503   5.959  19.220  0.00  0.00    +0.000 A 
ATOM     15  C   UNL     1       3.081   4.978  18.396  0.00  0.00    +0.000 A 
ENDROOT
BRANCH   1  17
ATOM     16  O   UNL     1       4.277   2.945  17.016  0.00  0.00    +0.000 OA
ATOM     17  N   UNL     1       3.571   2.590  17.969  0.00  0.00    +0.000 N 
ATOM     18  O   UNL     1       3.336   1.411  18.270  0.00  0.00    +0.000 OA
ENDBRANCH   1  17
TORSDOF 1
ENDMDL
MODEL 7
REMARK VINA RESULT:      -6.2      5.421      7.668
REMARK  Name = 
REMARK  1 active torsions:
REMARK  status: ('A' for Active; 'I' for Inactive)
REMARK    1  A    between atoms: N_2  and  C_4
REMARK                            x       y       z     vdW  Elec       q    Type
REMARK                         _______ _______ _______ _____ _____    ______ ____
ROOT
ATOM      1  C   UNL     1       0.639   9.391  20.000  0.00  0.00    +0.000 A 
ATOM      2  C   UNL     1       0.905   9.984  18.761  0.00  0.00    +0.000 A 
ATOM      3  C   UNL     1       1.837   9.399  17.893  0.00  0.00    +0.000 A 
ATOM      4  C   UNL     1       2.499   8.209  18.265  0.00  0.00    +0.000 A 
ATOM      5  N   UNL     1       3.464   7.546  17.528  0.00  0.00    +0.000 NA
ATOM      6  C   UNL     1       3.835   6.434  18.125  0.00  0.00    +0.000 A 
ATOM      7  N   UNL     1       4.779   5.580  17.642  0.00  0.00    +0.000 N 
ATOM      8  C   UNL     1       5.881   6.089  16.834  0.00  0.00    +0.000 C 
ATOM      9  C   UNL     1       5.829   5.519  15.419  0.00  0.00    +0.000 C 
ATOM     10  C   UNL     1       5.701   3.997  15.432  0.00  0.00    +0.000 C 
ATOM     11  C   UNL     1       4.514   3.563  16.289  0.00  0.00    +0.000 C 
ATOM     12  C   UNL     1       4.612   4.135  17.704  0.00  0.00    +0.000 C 
ATOM     13  S   UNL     1       3.070   6.168  19.655  0.00  0.00    +0.000 S 
ATOM     14  C   UNL     1       2.182   7.624  19.490  0.00  0.00    +0.000 A 
ATOM     15  C   UNL     1       1.265   8.197  20.387  0.00  0.00    +0.000 A 
ENDROOT
BRANCH   1  17
ATOM     16  O   UNL     1      -0.437   9.536  22.052  0.00  0.00    +0.000 OA
ATOM     17  N   UNL     1      -0.314  10.026  20.922  0.00  0.00    +0.000 N 
ATOM     18  O   UNL     1      -0.940  11.013  20.511  0.00  0.00    +0.000 OA
ENDBRANCH   1  17
TORSDOF 1
ENDMDL
MODEL 8
REMARK VINA RESULT:      -6.2      5.981      8.334
REMARK  Name = 
REMARK  1 active torsions:
REMARK  status: ('A' for Active; 'I' for Inactive)
REMARK    1  A    between atoms: N_2  and  C_4
REMARK                            x       y       z     vdW  Elec       q    Type
REMARK                         _______ _______ _______ _____ _____    ______ ____
ROOT
ATOM      1  C   UNL     1       0.210  10.449  20.920  0.00  0.00    +0.000 A 
ATOM      2  C   UNL     1       0.406   9.456  21.885  0.00  0.00    +0.000 A 
ATOM      3  C   UNL     1       1.106   8.288  21.552  0.00  0.00    +0.000 A 
ATOM      4  C   UNL     1       1.619   8.119  20.248  0.00  0.00    +0.000 A 
ATOM      5  N   UNL     1       2.294   7.009  19.772  0.00  0.00    +0.000 NA
ATOM      6  C   UNL     1       2.695   7.193  18.534  0.00  0.00    +0.000 A 
ATOM      7  N   UNL     1       3.373   6.269  17.799  0.00  0.00    +0.000 N 
ATOM      8  C   UNL     1       3.155   4.847  18.033  0.00  0.00    +0.000 C 
ATOM      9  C   UNL     1       4.431   4.173  18.532  0.00  0.00    +0.000 C 
ATOM     10  C   UNL     1       5.623   4.493  17.632  0.00  0.00    +0.000 C 
ATOM     11  C   UNL     1       5.779   6.003  17.461  0.00  0.00    +0.000 C 
ATOM     12  C   UNL     1       4.489   6.638  16.939  0.00  0.00    +0.000 C 
ATOM     13  S   UNL     1       2.215   8.713  17.857  0.00  0.00    +0.000 S 
ATOM     14  C   UNL     1       1.439   9.145  19.322  0.00  0.00    +0.000 A 
ATOM     15  C   UNL     1       0.726  10.318  19.623  0.00  0.00    +0.000 A 
ENDROOT
BRANCH   1  17
ATOM     16  O   UNL     1      -1.634  11.840  20.685  0.00  0.00    +0.000 OA
ATOM     17  N   UNL     1      -0.555  11.657  21.264  0.00  0.00    +0.000 N 
ATOM     18  O   UNL     1      -0.071  12.422  22.110  0.00  0.00    +0.000 OA
ENDBRANCH   1  17
TORSDOF 1
ENDMDL
MODEL 9
REMARK VINA RESULT:      -6.1      4.779      6.668
REMARK  Name = 
REMARK  1 active torsions:
REMARK  status: ('A' for Active; 'I' for Inactive)
REMARK    1  A    between atoms: N_2  and  C_4
REMARK                            x       y       z     vdW  Elec       q    Type
REMARK                         _______ _______ _______ _____ _____    ______ ____
ROOT
ATOM      1  C   UNL     1       3.246   4.227  19.091  0.00  0.00    +0.000 A 
ATOM      2  C   UNL     1       2.648   4.148  20.353  0.00  0.00    +0.000 A 
ATOM      3  C   UNL     1       2.012   5.273  20.897  0.00  0.00    +0.000 A 
ATOM      4  C   UNL     1       1.969   6.480  20.167  0.00  0.00    +0.000 A 
ATOM      5  N   UNL     1       1.411   7.673  20.592  0.00  0.00    +0.000 NA
ATOM      6  C   UNL     1       1.479   8.589  19.652  0.00  0.00    +0.000 A 
ATOM      7  N   UNL     1       1.023   9.866  19.787  0.00  0.00    +0.000 N 
ATOM      8  C   UNL     1       1.030  10.509  21.095  0.00  0.00    +0.000 C 
ATOM      9  C   UNL     1      -0.391  10.832  21.552  0.00  0.00    +0.000 C 
ATOM     10  C   UNL     1      -1.169  11.588  20.475  0.00  0.00    +0.000 C 
ATOM     11  C   UNL     1      -1.131  10.829  19.151  0.00  0.00    +0.000 C 
ATOM     12  C   UNL     1       0.307  10.544  18.715  0.00  0.00    +0.000 C 
ATOM     13  S   UNL     1       2.286   8.064  18.214  0.00  0.00    +0.000 S 
ATOM     14  C   UNL     1       2.541   6.514  18.897  0.00  0.00    +0.000 A 
ATOM     15  C   UNL     1       3.200   5.407  18.335  0.00  0.00    +0.000 A 
ENDROOT
BRANCH   1  17
ATOM     16  O   UNL     1       4.164   2.105  19.304  0.00  0.00    +0.000 OA
ATOM     17  N   UNL     1       3.942   3.054  18.541  0.00  0.00    +0.000 N 
ATOM     18  O   UNL     1       4.266   3.087  17.345  0.00  0.00    +0.000 OA
ENDBRANCH   1  17
TORSDOF 1
ENDMDL
