MODEL 1
REMARK VINA RESULT:      -6.0      0.000      0.000
REMARK  Name = 
REMARK  5 active torsions:
REMARK  status: ('A' for Active; 'I' for Inactive)
REMARK    1  A    between atoms: C_1  and  C_2
REMARK    2  A    between atoms: C_2  and  O_3
REMARK    3  A    between atoms: C_2  and  C_11
REMARK    4  A    between atoms: O_3  and  C_4
REMARK    5  A    between atoms: C_11  and  O_13
REMARK                            x       y       z     vdW  Elec       q    Type
REMARK                         _______ _______ _______ _____ _____    ______ ____
ROOT
ATOM      1  O   UNL     1       4.940   3.959  16.540  0.00  0.00    +0.000 OA
ENDROOT
BRANCH   1   2
ATOM      2  C   UNL     1       3.981   3.736  17.494  0.00  0.00    +0.000 A 
ATOM      3  C   UNL     1       4.426   3.763  18.819  0.00  0.00    +0.000 A 
ATOM      4  C   UNL     1       3.543   3.483  19.868  0.00  0.00    +0.000 A 
ATOM      5  C   UNL     1       2.209   3.196  19.589  0.00  0.00    +0.000 A 
ATOM      6 CL   UNL     1       1.127   2.805  20.868  0.00  0.00    +0.000 Cl
ATOM      7  C   UNL     1       1.748   3.216  18.277  0.00  0.00    +0.000 A 
ATOM      8  C   UNL     1       2.632   3.497  17.231  0.00  0.00    +0.000 A 
ENDBRANCH   1   2
BRANCH   1  10
ATOM      9  C   UNL     1       5.160   6.324  15.946  0.00  0.00    +0.000 C 
ATOM     10  C   UNL     1       5.755   5.138  16.700  0.00  0.00    +0.000 C 
BRANCH  10  11
ATOM     11  C   UNL     1       7.150   4.848  16.137  0.00  0.00    +0.000 C 
ATOM     12  O   UNL     1       7.543   5.225  15.044  0.00  0.00    +0.000 OA
BRANCH  11  13
ATOM     13  O   UNL     1       7.932   4.127  16.976  0.00  0.00    +0.000 OA
ATOM     14  H   UNL     1       7.438   3.338  17.292  0.00  0.00    +0.000 HD
ENDBRANCH  11  13
ENDBRANCH  10  11
ENDBRANCH   1  10
TORSDOF 4
ENDMDL
MODEL 2
REMARK VINA RESULT:      -5.9      1.000      1.688
REMARK  Name = 
REMARK  5 active torsions:
REMARK  status: ('A' for Active; 'I' for Inactive)
REMARK    1  A    between atoms: C_1  and  C_2
REMARK    2  A    between atoms: C_2  and  O_3
REMARK    3  A    between atoms: C_2  and  C_11
REMARK    4  A    between atoms: O_3  and  C_4
REMARK    5  A    between atoms: C_11  and  O_13
REMARK                            x       y       z     vdW  Elec       q    Type
REMARK                         _______ _______ _______ _____ _____    ______ ____
ROOT
ATOM      1  O   UNL     1       5.315   3.472  16.631  0.00  0.00    +0.000 OA
ENDROOT
BRANCH   1   2
ATOM      2  C   UNL     1       4.327   3.589  17.574  0.00  0.00    +0.000 A 
ATOM      3  C   UNL     1       3.016   3.538  17.087  0.00  0.00    +0.000 A 
ATOM      4  C   UNL     1       1.932   3.714  17.955  0.00  0.00    +0.000 A 
ATOM      5  C   UNL     1       2.161   3.920  19.313  0.00  0.00    +0.000 A 
ATOM      6 CL   UNL     1       0.838   4.182  20.379  0.00  0.00    +0.000 Cl
ATOM      7  C   UNL     1       3.461   3.922  19.811  0.00  0.00    +0.000 A 
ATOM      8  C   UNL     1       4.541   3.746  18.943  0.00  0.00    +0.000 A 
ENDBRANCH   1   2
BRANCH   1  10
ATOM      9  C   UNL     1       5.709   4.416  14.406  0.00  0.00    +0.000 C 
ATOM     10  C   UNL     1       5.673   4.669  15.911  0.00  0.00    +0.000 C 
BRANCH  10  11
ATOM     11  C   UNL     1       7.064   5.117  16.368  0.00  0.00    +0.000 C 
ATOM     12  O   UNL     1       7.482   6.261  16.281  0.00  0.00    +0.000 OA
BRANCH  11  13
ATOM     13  O   UNL     1       7.809   4.115  16.895  0.00  0.00    +0.000 OA
ATOM     14  H   UNL     1       8.742   4.410  16.987  0.00  0.00    +0.000 HD
ENDBRANCH  11  13
ENDBRANCH  10  11
ENDBRANCH   1  10
TORSDOF 4
ENDMDL
MODEL 3
REMARK VINA RESULT:      -5.8      1.491      2.012
REMARK  Name = 
REMARK  5 active torsions:
REMARK  status: ('A' for Active; 'I' for Inactive)
REMARK    1  A    between atoms: C_1  and  C_2
REMARK    2  A    between atoms: C_2  and  O_3
REMARK    3  A    between atoms: C_2  and  C_11
REMARK    4  A    between atoms: O_3  and  C_4
REMARK    5  A    between atoms: C_11  and  O_13
REMARK                            x       y       z     vdW  Elec       q    Type
REMARK                         _______ _______ _______ _____ _____    ______ ____
ROOT
ATOM      1  O   UNL     1       5.064   5.264  16.298  0.00  0.00    +0.000 OA
ENDROOT
BRANCH   1   2
ATOM      2  C   UNL     1       4.111   4.993  17.245  0.00  0.00    +0.000 A 
ATOM      3  C   UNL     1       3.590   3.695  17.227  0.00  0.00    +0.000 A 
ATOM      4  C   UNL     1       2.565   3.331  18.107  0.00  0.00    +0.000 A 
ATOM      5  C   UNL     1       2.076   4.262  19.020  0.00  0.00    +0.000 A 
ATOM      6 CL   UNL     1       0.785   3.839  20.074  0.00  0.00    +0.000 Cl
ATOM      7  C   UNL     1       2.623   5.541  19.077  0.00  0.00    +0.000 A 
ATOM      8  C   UNL     1       3.647   5.901  18.197  0.00  0.00    +0.000 A 
ENDBRANCH   1   2
BRANCH   1  10
ATOM      9  C   UNL     1       7.249   4.694  17.244  0.00  0.00    +0.000 C 
ATOM     10  C   UNL     1       6.176   4.351  16.214  0.00  0.00    +0.000 C 
BRANCH  10  11
ATOM     11  C   UNL     1       6.789   4.454  14.814  0.00  0.00    +0.000 C 
ATOM     12  O   UNL     1       7.590   5.312  14.474  0.00  0.00    +0.000 OA
BRANCH  11  13
ATOM     13  O   UNL     1       6.364   3.487  13.965  0.00  0.00    +0.000 OA
ATOM     14  H   UNL     1       5.864   3.896  13.224  0.00  0.00    +0.000 HD
ENDBRANCH  11  13
ENDBRANCH  10  11
ENDBRANCH   1  10
TORSDOF 4
ENDMDL
MODEL 4
REMARK VINA RESULT:      -5.8      1.488      1.755
REMARK  Name = 
REMARK  5 active torsions:
REMARK  status: ('A' for Active; 'I' for Inactive)
REMARK    1  A    between atoms: C_1  and  C_2
REMARK    2  A    between atoms: C_2  and  O_3
REMARK    3  A    between atoms: C_2  and  C_11
REMARK    4  A    between atoms: O_3  and  C_4
REMARK    5  A    between atoms: C_11  and  O_13
REMARK                            x       y       z     vdW  Elec       q    Type
REMARK                         _______ _______ _______ _____ _____    ______ ____
ROOT
ATOM      1  O   UNL     1       5.183   5.664  16.680  0.00  0.00    +0.000 OA
ENDROOT
BRANCH   1   2
ATOM      2  C   UNL     1       4.126   4.998  17.243  0.00  0.00    +0.000 A 
ATOM      3  C   UNL     1       4.103   3.614  17.039  0.00  0.00    +0.000 A 
ATOM      4  C   UNL     1       3.034   2.846  17.514  0.00  0.00    +0.000 A 
ATOM      5  C   UNL     1       1.997   3.463  18.210  0.00  0.00    +0.000 A 
ATOM      6 CL   UNL     1       0.657   2.535  18.757  0.00  0.00    +0.000 Cl
ATOM      7  C   UNL     1       2.037   4.831  18.459  0.00  0.00    +0.000 A 
ATOM      8  C   UNL     1       3.106   5.596  17.985  0.00  0.00    +0.000 A 
ENDBRANCH   1   2
BRANCH   1  10
ATOM      9  C   UNL     1       6.931   7.256  17.318  0.00  0.00    +0.000 C 
ATOM     10  C   UNL     1       6.346   5.859  17.510  0.00  0.00    +0.000 C 
BRANCH  10  11
ATOM     11  C   UNL     1       7.406   4.825  17.119  0.00  0.00    +0.000 C 
ATOM     12  O   UNL     1       7.760   4.603  15.971  0.00  0.00    +0.000 OA
BRANCH  11  13
ATOM     13  O   UNL     1       7.935   4.166  18.178  0.00  0.00    +0.000 OA
ATOM     14  H   UNL     1       7.493   4.463  19.005  0.00  0.00    +0.000 HD
ENDBRANCH  11  13
ENDBRANCH  10  11
ENDBRANCH   1  10
TORSDOF 4
ENDMDL
MODEL 5
REMARK VINA RESULT:      -5.8      1.026      1.349
REMARK  Name = 
REMARK  5 active torsions:
REMARK  status: ('A' for Active; 'I' for Inactive)
REMARK    1  A    between atoms: C_1  and  C_2
REMARK    2  A    between atoms: C_2  and  O_3
REMARK    3  A    between atoms: C_2  and  C_11
REMARK    4  A    between atoms: O_3  and  C_4
REMARK    5  A    between atoms: C_11  and  O_13
REMARK                            x       y       z     vdW  Elec       q    Type
REMARK                         _______ _______ _______ _____ _____    ______ ____
ROOT
ATOM      1  O   UNL     1       5.302   3.468  16.545  0.00  0.00    +0.000 OA
ENDROOT
BRANCH   1   2
ATOM      2  C   UNL     1       4.240   3.696  17.381  0.00  0.00    +0.000 A 
ATOM      3  C   UNL     1       4.554   3.839  18.736  0.00  0.00    +0.000 A 
ATOM      4  C   UNL     1       3.539   4.009  19.684  0.00  0.00    +0.000 A 
ATOM      5  C   UNL     1       2.210   4.055  19.271  0.00  0.00    +0.000 A 
ATOM      6 CL   UNL     1       0.953   4.217  20.433  0.00  0.00    +0.000 Cl
ATOM      7  C   UNL     1       1.893   3.963  17.920  0.00  0.00    +0.000 A 
ATOM      8  C   UNL     1       2.908   3.794  16.974  0.00  0.00    +0.000 A 
ENDBRANCH   1   2
BRANCH   1  10
ATOM      9  C   UNL     1       5.962   4.253  14.321  0.00  0.00    +0.000 C 
ATOM     10  C   UNL     1       5.798   4.598  15.799  0.00  0.00    +0.000 C 
BRANCH  10  11
ATOM     11  C   UNL     1       7.164   4.996  16.365  0.00  0.00    +0.000 C 
ATOM     12  O   UNL     1       7.952   4.214  16.875  0.00  0.00    +0.000 OA
BRANCH  11  13
ATOM     13  O   UNL     1       7.435   6.318  16.243  0.00  0.00    +0.000 OA
ATOM     14  H   UNL     1       7.111   6.642  15.373  0.00  0.00    +0.000 HD
ENDBRANCH  11  13
ENDBRANCH  10  11
ENDBRANCH   1  10
TORSDOF 4
ENDMDL
MODEL 6
REMARK VINA RESULT:      -5.8      0.801      1.640
REMARK  Name = 
REMARK  5 active torsions:
REMARK  status: ('A' for Active; 'I' for Inactive)
REMARK    1  A    between atoms: C_1  and  C_2
REMARK    2  A    between atoms: C_2  and  O_3
REMARK    3  A    between atoms: C_2  and  C_11
REMARK    4  A    between atoms: O_3  and  C_4
REMARK    5  A    between atoms: C_11  and  O_13
REMARK                            x       y       z     vdW  Elec       q    Type
REMARK                         _______ _______ _______ _____ _____    ______ ____
ROOT
ATOM      1  O   UNL     1       4.631   3.900  16.207  0.00  0.00    +0.000 OA
ENDROOT
BRANCH   1   2
ATOM      2  C   UNL     1       3.910   3.703  17.356  0.00  0.00    +0.000 A 
ATOM      3  C   UNL     1       2.526   3.585  17.191  0.00  0.00    +0.000 A 
ATOM      4  C   UNL     1       1.690   3.447  18.304  0.00  0.00    +0.000 A 
ATOM      5  C   UNL     1       2.242   3.408  19.582  0.00  0.00    +0.000 A 
ATOM      6 CL   UNL     1       1.219   3.286  20.959  0.00  0.00    +0.000 Cl
ATOM      7  C   UNL     1       3.622   3.476  19.751  0.00  0.00    +0.000 A 
ATOM      8  C   UNL     1       4.455   3.612  18.637  0.00  0.00    +0.000 A 
ENDBRANCH   1   2
BRANCH   1  10
ATOM      9  C   UNL     1       5.125   6.296  16.101  0.00  0.00    +0.000 C 
ATOM     10  C   UNL     1       5.683   4.884  16.259  0.00  0.00    +0.000 C 
BRANCH  10  11
ATOM     11  C   UNL     1       6.664   4.613  15.114  0.00  0.00    +0.000 C 
ATOM     12  O   UNL     1       7.632   5.312  14.857  0.00  0.00    +0.000 OA
BRANCH  11  13
ATOM     13  O   UNL     1       6.365   3.502  14.398  0.00  0.00    +0.000 OA
ATOM     14  H   UNL     1       5.425   3.257  14.547  0.00  0.00    +0.000 HD
ENDBRANCH  11  13
ENDBRANCH  10  11
ENDBRANCH   1  10
TORSDOF 4
ENDMDL
MODEL 7
REMARK VINA RESULT:      -5.8      0.975      1.188
REMARK  Name = 
REMARK  5 active torsions:
REMARK  status: ('A' for Active; 'I' for Inactive)
REMARK    1  A    between atoms: C_1  and  C_2
REMARK    2  A    between atoms: C_2  and  O_3
REMARK    3  A    between atoms: C_2  and  C_11
REMARK    4  A    between atoms: O_3  and  C_4
REMARK    5  A    between atoms: C_11  and  O_13
REMARK                            x       y       z     vdW  Elec       q    Type
REMARK                         _______ _______ _______ _____ _____    ______ ____
ROOT
ATOM      1  O   UNL     1       4.490   4.006  16.435  0.00  0.00    +0.000 OA
ENDROOT
BRANCH   1   2
ATOM      2  C   UNL     1       3.669   3.656  17.476  0.00  0.00    +0.000 A 
ATOM      3  C   UNL     1       2.848   4.676  17.969  0.00  0.00    +0.000 A 
ATOM      4  C   UNL     1       2.020   4.446  19.073  0.00  0.00    +0.000 A 
ATOM      5  C   UNL     1       1.998   3.187  19.669  0.00  0.00    +0.000 A 
ATOM      6 CL   UNL     1       1.018   2.908  21.054  0.00  0.00    +0.000 Cl
ATOM      7  C   UNL     1       2.775   2.154  19.153  0.00  0.00    +0.000 A 
ATOM      8  C   UNL     1       3.601   2.387  18.050  0.00  0.00    +0.000 A 
ENDBRANCH   1   2
BRANCH   1  10
ATOM      9  C   UNL     1       5.322   6.089  15.455  0.00  0.00    +0.000 C 
ATOM     10  C   UNL     1       5.362   5.134  16.645  0.00  0.00    +0.000 C 
BRANCH  10  11
ATOM     11  C   UNL     1       6.795   4.620  16.814  0.00  0.00    +0.000 C 
ATOM     12  O   UNL     1       7.638   4.627  15.929  0.00  0.00    +0.000 OA
BRANCH  11  13
ATOM     13  O   UNL     1       7.058   4.152  18.058  0.00  0.00    +0.000 OA
ATOM     14  H   UNL     1       6.737   3.226  18.137  0.00  0.00    +0.000 HD
ENDBRANCH  11  13
ENDBRANCH  10  11
ENDBRANCH   1  10
TORSDOF 4
ENDMDL
MODEL 8
REMARK VINA RESULT:      -5.7      1.454      1.745
REMARK  Name = 
REMARK  5 active torsions:
REMARK  status: ('A' for Active; 'I' for Inactive)
REMARK    1  A    between atoms: C_1  and  C_2
REMARK    2  A    between atoms: C_2  and  O_3
REMARK    3  A    between atoms: C_2  and  C_11
REMARK    4  A    between atoms: O_3  and  C_4
REMARK    5  A    between atoms: C_11  and  O_13
REMARK                            x       y       z     vdW  Elec       q    Type
REMARK                         _______ _______ _______ _____ _____    ______ ____
ROOT
ATOM      1  O   UNL     1       5.419   5.454  17.001  0.00  0.00    +0.000 OA
ENDROOT
BRANCH   1   2
ATOM      2  C   UNL     1       4.290   5.073  17.678  0.00  0.00    +0.000 A 
ATOM      3  C   UNL     1       4.090   5.687  18.919  0.00  0.00    +0.000 A 
ATOM      4  C   UNL     1       3.004   5.323  19.722  0.00  0.00    +0.000 A 
ATOM      5  C   UNL     1       2.106   4.358  19.273  0.00  0.00    +0.000 A 
ATOM      6 CL   UNL     1       0.794   3.870  20.272  0.00  0.00    +0.000 Cl
ATOM      7  C   UNL     1       2.270   3.779  18.018  0.00  0.00    +0.000 A 
ATOM      8  C   UNL     1       3.356   4.145  17.217  0.00  0.00    +0.000 A 
ENDBRANCH   1   2
BRANCH   1  10
ATOM      9  C   UNL     1       7.631   4.626  17.648  0.00  0.00    +0.000 C 
ATOM     10  C   UNL     1       6.407   4.433  16.756  0.00  0.00    +0.000 C 
BRANCH  10  11
ATOM     11  C   UNL     1       6.848   4.520  15.292  0.00  0.00    +0.000 C 
ATOM     12  O   UNL     1       7.606   5.370  14.851  0.00  0.00    +0.000 OA
BRANCH  11  13
ATOM     13  O   UNL     1       6.320   3.548  14.510  0.00  0.00    +0.000 OA
ATOM     14  H   UNL     1       5.506   3.883  14.072  0.00  0.00    +0.000 HD
ENDBRANCH  11  13
ENDBRANCH  10  11
ENDBRANCH   1  10
TORSDOF 4
ENDMDL
MODEL 9
REMARK VINA RESULT:      -5.7      1.486      1.854
REMARK  Name = 
REMARK  5 active torsions:
REMARK  status: ('A' for Active; 'I' for Inactive)
REMARK    1  A    between atoms: C_1  and  C_2
REMARK    2  A    between atoms: C_2  and  O_3
REMARK    3  A    between atoms: C_2  and  C_11
REMARK    4  A    between atoms: O_3  and  C_4
REMARK    5  A    between atoms: C_11  and  O_13
REMARK                            x       y       z     vdW  Elec       q    Type
REMARK                         _______ _______ _______ _____ _____    ______ ____
ROOT
ATOM      1  O   UNL     1       5.139   5.302  16.430  0.00  0.00    +0.000 OA
ENDROOT
BRANCH   1   2
ATOM      2  C   UNL     1       4.092   4.926  17.230  0.00  0.00    +0.000 A 
ATOM      3  C   UNL     1       3.603   5.913  18.092  0.00  0.00    +0.000 A 
ATOM      4  C   UNL     1       2.578   5.616  18.998  0.00  0.00    +0.000 A 
ATOM      5  C   UNL     1       2.030   4.336  19.026  0.00  0.00    +0.000 A 
ATOM      6 CL   UNL     1       0.803   3.950  20.167  0.00  0.00    +0.000 Cl
ATOM      7  C   UNL     1       2.477   3.364  18.137  0.00  0.00    +0.000 A 
ATOM      8  C   UNL     1       3.500   3.662  17.232  0.00  0.00    +0.000 A 
ENDBRANCH   1   2
BRANCH   1  10
ATOM      9  C   UNL     1       7.342   4.578  17.217  0.00  0.00    +0.000 C 
ATOM     10  C   UNL     1       6.193   4.337  16.241  0.00  0.00    +0.000 C 
BRANCH  10  11
ATOM     11  C   UNL     1       6.727   4.470  14.812  0.00  0.00    +0.000 C 
ATOM     12  O   UNL     1       6.323   3.816  13.862  0.00  0.00    +0.000 OA
BRANCH  11  13
ATOM     13  O   UNL     1       7.705   5.400  14.684  0.00  0.00    +0.000 OA
ATOM     14  H   UNL     1       8.068   5.373  13.771  0.00  0.00    +0.000 HD
ENDBRANCH  11  13
ENDBRANCH  10  11
ENDBRANCH   1  10
TORSDOF 4
ENDMDL
