MODEL 1
REMARK VINA RESULT:      -6.9      0.000      0.000
REMARK  Name = 
REMARK  9 active torsions:
REMARK  status: ('A' for Active; 'I' for Inactive)
REMARK    1  A    between atoms: N_1  and  C_2
REMARK    2  A    between atoms: C_2  and  C_3
REMARK    3  A    between atoms: C_3  and  C_4
REMARK    4  A    between atoms: C_4  and  N_5
REMARK    5  A    between atoms: N_8  and  C_9
REMARK    6  A    between atoms: C_9  and  C_10
REMARK    7  A    between atoms: C_10  and  C_11
REMARK    8  A    between atoms: C_11  and  N_12
REMARK    9  A    between atoms: N_12  and  C_13
REMARK                            x       y       z     vdW  Elec       q    Type
REMARK                         _______ _______ _______ _____ _____    ______ ____
ROOT
ATOM      1  C   UNL     1       2.085   4.539  21.116  0.00  0.00    +0.000 C 
ENDROOT
BRANCH   1   2
ATOM      2  C   UNL     1       3.182   4.163  20.116  0.00  0.00    +0.000 C 
BRANCH   2   6
ATOM      3  N   UNL     1       5.160   3.792  16.952  0.00  0.00    +0.000 NA
ATOM      4  C   UNL     1       5.573   4.539  18.158  0.00  0.00    +0.000 C 
ATOM      5  C   UNL     1       4.536   5.583  18.628  0.00  0.00    +0.000 C 
ATOM      6  N   UNL     1       3.201   5.009  18.909  0.00  0.00    +0.000 NA
ATOM      7  C   UNL     1       2.763   4.233  17.725  0.00  0.00    +0.000 C 
ATOM      8  C   UNL     1       3.812   3.217  17.198  0.00  0.00    +0.000 C 
BRANCH   3   9
ATOM      9  C   UNL     1       5.128   4.629  15.738  0.00  0.00    +0.000 C 
BRANCH   9  10
ATOM     10  C   UNL     1       5.731   3.969  14.493  0.00  0.00    +0.000 C 
BRANCH  10  11
ATOM     11  C   UNL     1       6.895   4.810  13.971  0.00  0.00    +0.000 C 
BRANCH  11  12
ATOM     12  N   UNL     1       7.641   5.387  15.082  0.00  0.00    +0.000 NA
ATOM     13  H   UNL     1       8.000   6.301  14.810  0.00  0.00    +0.000 HD
ATOM     14  H   UNL     1       8.455   4.806  15.285  0.00  0.00    +0.000 HD
ENDBRANCH  11  12
ENDBRANCH  10  11
ENDBRANCH   9  10
ENDBRANCH   3   9
ENDBRANCH   2   6
ENDBRANCH   1   2
BRANCH   1  15
ATOM     15  C   UNL     1       1.301   5.759  20.641  0.00  0.00    +0.000 C 
BRANCH  15  16
ATOM     16  N   UNL     1       2.108   6.967  20.828  0.00  0.00    +0.000 N 
ATOM     17  H   UNL     1       3.066   6.792  20.544  0.00  0.00    +0.000 HD
BRANCH  16  18
ATOM     18  C   UNL     1       1.616   8.156  20.226  0.00  0.00    +0.000 A 
ATOM     19  C   UNL     1       1.805   8.396  18.864  0.00  0.00    +0.000 A 
ATOM     20  C   UNL     1       1.274   9.537  18.299  0.00  0.00    +0.000 A 
ATOM     21  N   UNL     1       0.544  10.438  18.976  0.00  0.00    +0.000 NA
ATOM     22  C   UNL     1       0.300  10.199  20.271  0.00  0.00    +0.000 A 
ATOM     23  C   UNL     1      -0.482  11.124  20.942  0.00  0.00    +0.000 A 
ATOM     24  C   UNL     1      -0.798  10.964  22.287  0.00  0.00    +0.000 A 
ATOM     25 CL   UNL     1      -1.780  12.133  23.080  0.00  0.00    +0.000 Cl
ATOM     26  C   UNL     1      -0.330   9.866  22.990  0.00  0.00    +0.000 A 
ATOM     27  C   UNL     1       0.458   8.921  22.332  0.00  0.00    +0.000 A 
ATOM     28  C   UNL     1       0.800   9.064  20.962  0.00  0.00    +0.000 A 
ENDBRANCH  16  18
ENDBRANCH  15  16
ENDBRANCH   1  15
TORSDOF 9
ENDMDL
MODEL 2
REMARK VINA RESULT:      -6.7      1.512      2.170
REMARK  Name = 
REMARK  9 active torsions:
REMARK  status: ('A' for Active; 'I' for Inactive)
REMARK    1  A    between atoms: N_1  and  C_2
REMARK    2  A    between atoms: C_2  and  C_3
REMARK    3  A    between atoms: C_3  and  C_4
REMARK    4  A    between atoms: C_4  and  N_5
REMARK    5  A    between atoms: N_8  and  C_9
REMARK    6  A    between atoms: C_9  and  C_10
REMARK    7  A    between atoms: C_10  and  C_11
REMARK    8  A    between atoms: C_11  and  N_12
REMARK    9  A    between atoms: N_12  and  C_13
REMARK                            x       y       z     vdW  Elec       q    Type
REMARK                         _______ _______ _______ _____ _____    ______ ____
ROOT
ATOM      1  C   UNL     1       4.002   5.107  19.678  0.00  0.00    +0.000 C 
ENDROOT
BRANCH   1   2
ATOM      2  C   UNL     1       5.291   5.434  18.917  0.00  0.00    +0.000 C 
BRANCH   2   6
ATOM      3  N   UNL     1       5.782   5.139  15.212  0.00  0.00    +0.000 NA
ATOM      4  C   UNL     1       4.564   4.770  15.964  0.00  0.00    +0.000 C 
ATOM      5  C   UNL     1       4.830   3.798  17.135  0.00  0.00    +0.000 C 
ATOM      6  N   UNL     1       5.810   4.308  18.120  0.00  0.00    +0.000 NA
ATOM      7  C   UNL     1       7.040   4.709  17.396  0.00  0.00    +0.000 C 
ATOM      8  C   UNL     1       6.794   5.640  16.178  0.00  0.00    +0.000 C 
BRANCH   3   9
ATOM      9  C   UNL     1       6.346   4.017  14.440  0.00  0.00    +0.000 C 
BRANCH   9  10
ATOM     10  C   UNL     1       5.566   3.661  13.170  0.00  0.00    +0.000 C 
BRANCH  10  11
ATOM     11  C   UNL     1       6.535   3.243  12.065  0.00  0.00    +0.000 C 
BRANCH  11  12
ATOM     12  N   UNL     1       6.317   1.848  11.701  0.00  0.00    +0.000 NA
ATOM     13  H   UNL     1       6.607   1.249  12.473  0.00  0.00    +0.000 HD
ATOM     14  H   UNL     1       6.911   1.605  10.908  0.00  0.00    +0.000 HD
ENDBRANCH  11  12
ENDBRANCH  10  11
ENDBRANCH   9  10
ENDBRANCH   3   9
ENDBRANCH   2   6
ENDBRANCH   1   2
BRANCH   1  15
ATOM     15  C   UNL     1       2.824   5.913  19.139  0.00  0.00    +0.000 C 
BRANCH  15  16
ATOM     16  N   UNL     1       2.343   6.834  20.171  0.00  0.00    +0.000 N 
ATOM     17  H   UNL     1       3.047   6.944  20.894  0.00  0.00    +0.000 HD
BRANCH  16  18
ATOM     18  C   UNL     1       1.882   8.100  19.724  0.00  0.00    +0.000 A 
ATOM     19  C   UNL     1       2.115   8.522  18.413  0.00  0.00    +0.000 A 
ATOM     20  C   UNL     1       1.614   9.737  17.995  0.00  0.00    +0.000 A 
ATOM     21  N   UNL     1       0.872  10.548  18.768  0.00  0.00    +0.000 NA
ATOM     22  C   UNL     1       0.587  10.137  20.011  0.00  0.00    +0.000 A 
ATOM     23  C   UNL     1      -0.206  10.972  20.779  0.00  0.00    +0.000 A 
ATOM     24  C   UNL     1      -0.565  10.634  22.080  0.00  0.00    +0.000 A 
ATOM     25 CL   UNL     1      -1.559  11.698  22.997  0.00  0.00    +0.000 Cl
ATOM     26  C   UNL     1      -0.130   9.444  22.639  0.00  0.00    +0.000 A 
ATOM     27  C   UNL     1       0.667   8.586  21.881  0.00  0.00    +0.000 A 
ATOM     28  C   UNL     1       1.053   8.911  20.553  0.00  0.00    +0.000 A 
ENDBRANCH  16  18
ENDBRANCH  15  16
ENDBRANCH   1  15
TORSDOF 9
ENDMDL
MODEL 3
REMARK VINA RESULT:      -6.6      0.969      1.364
REMARK  Name = 
REMARK  9 active torsions:
REMARK  status: ('A' for Active; 'I' for Inactive)
REMARK    1  A    between atoms: N_1  and  C_2
REMARK    2  A    between atoms: C_2  and  C_3
REMARK    3  A    between atoms: C_3  and  C_4
REMARK    4  A    between atoms: C_4  and  N_5
REMARK    5  A    between atoms: N_8  and  C_9
REMARK    6  A    between atoms: C_9  and  C_10
REMARK    7  A    between atoms: C_10  and  C_11
REMARK    8  A    between atoms: C_11  and  N_12
REMARK    9  A    between atoms: N_12  and  C_13
REMARK                            x       y       z     vdW  Elec       q    Type
REMARK                         _______ _______ _______ _____ _____    ______ ____
ROOT
ATOM      1  C   UNL     1       2.211   4.588  20.960  0.00  0.00    +0.000 C 
ENDROOT
BRANCH   1   2
ATOM      2  C   UNL     1       2.420   3.685  19.740  0.00  0.00    +0.000 C 
BRANCH   2   6
ATOM      3  N   UNL     1       4.375   5.029  16.837  0.00  0.00    +0.000 NA
ATOM      4  C   UNL     1       3.630   3.752  16.873  0.00  0.00    +0.000 C 
ATOM      5  C   UNL     1       4.014   2.844  18.062  0.00  0.00    +0.000 C 
ATOM      6  N   UNL     1       3.836   3.488  19.383  0.00  0.00    +0.000 NA
ATOM      7  C   UNL     1       4.553   4.784  19.376  0.00  0.00    +0.000 C 
ATOM      8  C   UNL     1       4.229   5.691  18.159  0.00  0.00    +0.000 C 
BRANCH   3   9
ATOM      9  C   UNL     1       5.806   4.853  16.525  0.00  0.00    +0.000 C 
BRANCH   9  10
ATOM     10  C   UNL     1       6.105   3.743  15.511  0.00  0.00    +0.000 C 
BRANCH  10  11
ATOM     11  C   UNL     1       6.437   4.357  14.152  0.00  0.00    +0.000 C 
BRANCH  11  12
ATOM     12  N   UNL     1       6.278   3.365  13.096  0.00  0.00    +0.000 NA
ATOM     13  H   UNL     1       6.855   3.625  12.298  0.00  0.00    +0.000 HD
ATOM     14  H   UNL     1       5.312   3.368  12.766  0.00  0.00    +0.000 HD
ENDBRANCH  11  12
ENDBRANCH  10  11
ENDBRANCH   9  10
ENDBRANCH   3   9
ENDBRANCH   2   6
ENDBRANCH   1   2
BRANCH   1  15
ATOM     15  C   UNL     1       1.358   5.803  20.607  0.00  0.00    +0.000 C 
BRANCH  15  16
ATOM     16  N   UNL     1       2.139   7.027  20.803  0.00  0.00    +0.000 N 
ATOM     17  H   UNL     1       3.098   6.877  20.508  0.00  0.00    +0.000 HD
BRANCH  16  18
ATOM     18  C   UNL     1       1.615   8.211  20.220  0.00  0.00    +0.000 A 
ATOM     19  C   UNL     1       1.799   8.480  18.863  0.00  0.00    +0.000 A 
ATOM     20  C   UNL     1       1.237   9.615  18.316  0.00  0.00    +0.000 A 
ATOM     21  N   UNL     1       0.481  10.484  19.008  0.00  0.00    +0.000 NA
ATOM     22  C   UNL     1       0.243  10.216  20.298  0.00  0.00    +0.000 A 
ATOM     23  C   UNL     1      -0.566  11.107  20.983  0.00  0.00    +0.000 A 
ATOM     24  C   UNL     1      -0.879  10.915  22.326  0.00  0.00    +0.000 A 
ATOM     25 CL   UNL     1      -1.894  12.043  23.137  0.00  0.00    +0.000 Cl
ATOM     26  C   UNL     1      -0.381   9.819  23.010  0.00  0.00    +0.000 A 
ATOM     27  C   UNL     1       0.433   8.907  22.337  0.00  0.00    +0.000 A 
ATOM     28  C   UNL     1       0.773   9.084  20.970  0.00  0.00    +0.000 A 
ENDBRANCH  16  18
ENDBRANCH  15  16
ENDBRANCH   1  15
TORSDOF 9
ENDMDL
MODEL 4
REMARK VINA RESULT:      -6.6      6.782      9.165
REMARK  Name = 
REMARK  9 active torsions:
REMARK  status: ('A' for Active; 'I' for Inactive)
REMARK    1  A    between atoms: N_1  and  C_2
REMARK    2  A    between atoms: C_2  and  C_3
REMARK    3  A    between atoms: C_3  and  C_4
REMARK    4  A    between atoms: C_4  and  N_5
REMARK    5  A    between atoms: N_8  and  C_9
REMARK    6  A    between atoms: C_9  and  C_10
REMARK    7  A    between atoms: C_10  and  C_11
REMARK    8  A    between atoms: C_11  and  N_12
REMARK    9  A    between atoms: N_12  and  C_13
REMARK                            x       y       z     vdW  Elec       q    Type
REMARK                         _______ _______ _______ _____ _____    ______ ____
ROOT
ATOM      1  C   UNL     1       8.096   9.536  17.609  0.00  0.00    +0.000 C 
ENDROOT
BRANCH   1   2
ATOM      2  C   UNL     1       9.012   9.989  18.750  0.00  0.00    +0.000 C 
BRANCH   2   6
ATOM      3  N   UNL     1       9.653  13.486  19.944  0.00  0.00    +0.000 NA
ATOM      4  C   UNL     1       8.777  13.093  18.820  0.00  0.00    +0.000 C 
ATOM      5  C   UNL     1       9.476  12.201  17.771  0.00  0.00    +0.000 C 
ATOM      6  N   UNL     1      10.044  10.955  18.333  0.00  0.00    +0.000 NA
ATOM      7  C   UNL     1      10.914  11.310  19.479  0.00  0.00    +0.000 C 
ATOM      8  C   UNL     1      10.254  12.254  20.520  0.00  0.00    +0.000 C 
BRANCH   3   9
ATOM      9  C   UNL     1      10.722  14.418  19.543  0.00  0.00    +0.000 C 
BRANCH   9  10
ATOM     10  C   UNL     1      10.313  15.434  18.471  0.00  0.00    +0.000 C 
BRANCH  10  11
ATOM     11  C   UNL     1      11.320  15.411  17.322  0.00  0.00    +0.000 C 
BRANCH  11  12
ATOM     12  N   UNL     1      10.739  16.011  16.127  0.00  0.00    +0.000 NA
ATOM     13  H   UNL     1       9.747  16.185  16.284  0.00  0.00    +0.000 HD
ATOM     14  H   UNL     1      10.798  15.352  15.351  0.00  0.00    +0.000 HD
ENDBRANCH  11  12
ENDBRANCH  10  11
ENDBRANCH   9  10
ENDBRANCH   3   9
ENDBRANCH   2   6
ENDBRANCH   1   2
BRANCH   1  15
ATOM     15  C   UNL     1       7.772   8.049  17.719  0.00  0.00    +0.000 C 
BRANCH  15  16
ATOM     16  N   UNL     1       6.457   7.786  17.128  0.00  0.00    +0.000 N 
ATOM     17  H   UNL     1       6.305   8.400  16.335  0.00  0.00    +0.000 HD
BRANCH  16  18
ATOM     18  C   UNL     1       6.180   6.438  16.779  0.00  0.00    +0.000 A 
ATOM     19  C   UNL     1       7.153   5.643  16.170  0.00  0.00    +0.000 A 
ATOM     20  C   UNL     1       6.869   4.323  15.887  0.00  0.00    +0.000 A 
ATOM     21  N   UNL     1       5.705   3.726  16.192  0.00  0.00    +0.000 NA
ATOM     22  C   UNL     1       4.777   4.453  16.828  0.00  0.00    +0.000 A 
ATOM     23  C   UNL     1       3.598   3.809  17.162  0.00  0.00    +0.000 A 
ATOM     24  C   UNL     1       2.574   4.473  17.831  0.00  0.00    +0.000 A 
ATOM     25 CL   UNL     1       1.129   3.633  18.233  0.00  0.00    +0.000 Cl
ATOM     26  C   UNL     1       2.716   5.807  18.177  0.00  0.00    +0.000 A 
ATOM     27  C   UNL     1       3.897   6.474  17.852  0.00  0.00    +0.000 A 
ATOM     28  C   UNL     1       4.954   5.820  17.165  0.00  0.00    +0.000 A 
ENDBRANCH  16  18
ENDBRANCH  15  16
ENDBRANCH   1  15
TORSDOF 9
ENDMDL
MODEL 5
REMARK VINA RESULT:      -6.6      0.968      1.014
REMARK  Name = 
REMARK  9 active torsions:
REMARK  status: ('A' for Active; 'I' for Inactive)
REMARK    1  A    between atoms: N_1  and  C_2
REMARK    2  A    between atoms: C_2  and  C_3
REMARK    3  A    between atoms: C_3  and  C_4
REMARK    4  A    between atoms: C_4  and  N_5
REMARK    5  A    between atoms: N_8  and  C_9
REMARK    6  A    between atoms: C_9  and  C_10
REMARK    7  A    between atoms: C_10  and  C_11
REMARK    8  A    between atoms: C_11  and  N_12
REMARK    9  A    between atoms: N_12  and  C_13
REMARK                            x       y       z     vdW  Elec       q    Type
REMARK                         _______ _______ _______ _____ _____    ______ ____
ROOT
ATOM      1  C   UNL     1       2.420   4.841  20.184  0.00  0.00    +0.000 C 
ENDROOT
BRANCH   1   2
ATOM      2  C   UNL     1       3.723   5.339  19.551  0.00  0.00    +0.000 C 
BRANCH   2   6
ATOM      3  N   UNL     1       5.724   4.135  16.617  0.00  0.00    +0.000 NA
ATOM      4  C   UNL     1       6.012   5.328  17.441  0.00  0.00    +0.000 C 
ATOM      5  C   UNL     1       4.818   6.299  17.565  0.00  0.00    +0.000 C 
ATOM      6  N   UNL     1       3.597   5.673  18.120  0.00  0.00    +0.000 NA
ATOM      7  C   UNL     1       3.289   4.458  17.330  0.00  0.00    +0.000 C 
ATOM      8  C   UNL     1       4.491   3.493  17.141  0.00  0.00    +0.000 C 
BRANCH   3   9
ATOM      9  C   UNL     1       5.550   4.450  15.187  0.00  0.00    +0.000 C 
BRANCH   9  10
ATOM     10  C   UNL     1       6.827   4.912  14.476  0.00  0.00    +0.000 C 
BRANCH  10  11
ATOM     11  C   UNL     1       6.979   4.172  13.149  0.00  0.00    +0.000 C 
BRANCH  11  12
ATOM     12  N   UNL     1       5.967   3.130  13.030  0.00  0.00    +0.000 NA
ATOM     13  H   UNL     1       5.044   3.538  13.175  0.00  0.00    +0.000 HD
ATOM     14  H   UNL     1       6.097   2.441  13.771  0.00  0.00    +0.000 HD
ENDBRANCH  11  12
ENDBRANCH  10  11
ENDBRANCH   9  10
ENDBRANCH   3   9
ENDBRANCH   2   6
ENDBRANCH   1   2
BRANCH   1  15
ATOM     15  C   UNL     1       1.544   6.007  20.632  0.00  0.00    +0.000 C 
BRANCH  15  16
ATOM     16  N   UNL     1       2.315   7.251  20.581  0.00  0.00    +0.000 N 
ATOM     17  H   UNL     1       3.198   7.093  20.106  0.00  0.00    +0.000 HD
BRANCH  16  18
ATOM     18  C   UNL     1       1.652   8.384  20.040  0.00  0.00    +0.000 A 
ATOM     19  C   UNL     1       1.708   8.658  18.672  0.00  0.00    +0.000 A 
ATOM     20  C   UNL     1       1.014   9.739  18.169  0.00  0.00    +0.000 A 
ATOM     21  N   UNL     1       0.245  10.548  18.916  0.00  0.00    +0.000 NA
ATOM     22  C   UNL     1       0.130  10.270  20.222  0.00  0.00    +0.000 A 
ATOM     23  C   UNL     1      -0.694  11.096  20.967  0.00  0.00    +0.000 A 
ATOM     24  C   UNL     1      -0.886  10.890  22.329  0.00  0.00    +0.000 A 
ATOM     25 CL   UNL     1      -1.925  11.936  23.216  0.00  0.00    +0.000 Cl
ATOM     26  C   UNL     1      -0.248   9.843  22.974  0.00  0.00    +0.000 A 
ATOM     27  C   UNL     1       0.584   8.996  22.241  0.00  0.00    +0.000 A 
ATOM     28  C   UNL     1       0.802   9.191  20.852  0.00  0.00    +0.000 A 
ENDBRANCH  16  18
ENDBRANCH  15  16
ENDBRANCH   1  15
TORSDOF 9
ENDMDL
MODEL 6
REMARK VINA RESULT:      -6.5      6.739      8.088
REMARK  Name = 
REMARK  9 active torsions:
REMARK  status: ('A' for Active; 'I' for Inactive)
REMARK    1  A    between atoms: N_1  and  C_2
REMARK    2  A    between atoms: C_2  and  C_3
REMARK    3  A    between atoms: C_3  and  C_4
REMARK    4  A    between atoms: C_4  and  N_5
REMARK    5  A    between atoms: N_8  and  C_9
REMARK    6  A    between atoms: C_9  and  C_10
REMARK    7  A    between atoms: C_10  and  C_11
REMARK    8  A    between atoms: C_11  and  N_12
REMARK    9  A    between atoms: N_12  and  C_13
REMARK                            x       y       z     vdW  Elec       q    Type
REMARK                         _______ _______ _______ _____ _____    ______ ____
ROOT
ATOM      1  C   UNL     1       7.865   8.479  17.561  0.00  0.00    +0.000 C 
ENDROOT
BRANCH   1   2
ATOM      2  C   UNL     1       7.810   7.053  18.118  0.00  0.00    +0.000 C 
BRANCH   2   6
ATOM      3  N   UNL     1       4.792   4.827  18.104  0.00  0.00    +0.000 NA
ATOM      4  C   UNL     1       6.112   4.506  18.688  0.00  0.00    +0.000 C 
ATOM      5  C   UNL     1       7.286   4.683  17.700  0.00  0.00    +0.000 C 
ATOM      6  N   UNL     1       7.383   6.046  17.130  0.00  0.00    +0.000 NA
ATOM      7  C   UNL     1       6.068   6.411  16.553  0.00  0.00    +0.000 C 
ATOM      8  C   UNL     1       4.864   6.186  17.507  0.00  0.00    +0.000 C 
BRANCH   3   9
ATOM      9  C   UNL     1       4.363   3.857  17.080  0.00  0.00    +0.000 C 
BRANCH   9  10
ATOM     10  C   UNL     1       2.884   3.462  17.156  0.00  0.00    +0.000 C 
BRANCH  10  11
ATOM     11  C   UNL     1       2.715   2.260  18.083  0.00  0.00    +0.000 C 
BRANCH  11  12
ATOM     12  N   UNL     1       3.982   1.555  18.236  0.00  0.00    +0.000 NA
ATOM     13  H   UNL     1       4.451   1.504  17.333  0.00  0.00    +0.000 HD
ATOM     14  H   UNL     1       3.805   0.593  18.524  0.00  0.00    +0.000 HD
ENDBRANCH  11  12
ENDBRANCH  10  11
ENDBRANCH   9  10
ENDBRANCH   3   9
ENDBRANCH   2   6
ENDBRANCH   1   2
BRANCH   1  15
ATOM     15  C   UNL     1       8.614   9.412  18.507  0.00  0.00    +0.000 C 
BRANCH  15  16
ATOM     16  N   UNL     1       8.589  10.777  17.976  0.00  0.00    +0.000 N 
ATOM     17  H   UNL     1       7.636  11.125  17.958  0.00  0.00    +0.000 HD
BRANCH  16  18
ATOM     18  C   UNL     1       9.453  11.715  18.600  0.00  0.00    +0.000 A 
ATOM     19  C   UNL     1      10.652  11.302  19.185  0.00  0.00    +0.000 A 
ATOM     20  C   UNL     1      11.492  12.243  19.742  0.00  0.00    +0.000 A 
ATOM     21  N   UNL     1      11.248  13.564  19.733  0.00  0.00    +0.000 NA
ATOM     22  C   UNL     1      10.131  13.989  19.127  0.00  0.00    +0.000 A 
ATOM     23  C   UNL     1       9.916  15.356  19.101  0.00  0.00    +0.000 A 
ATOM     24  C   UNL     1       8.790  15.900  18.490  0.00  0.00    +0.000 A 
ATOM     25 CL   UNL     1       8.565  17.605  18.473  0.00  0.00    +0.000 Cl
ATOM     26  C   UNL     1       7.852  15.074  17.891  0.00  0.00    +0.000 A 
ATOM     27  C   UNL     1       8.052  13.693  17.904  0.00  0.00    +0.000 A 
ATOM     28  C   UNL     1       9.189  13.114  18.527  0.00  0.00    +0.000 A 
ENDBRANCH  16  18
ENDBRANCH  15  16
ENDBRANCH   1  15
TORSDOF 9
ENDMDL
MODEL 7
REMARK VINA RESULT:      -6.5      1.426      1.903
REMARK  Name = 
REMARK  9 active torsions:
REMARK  status: ('A' for Active; 'I' for Inactive)
REMARK    1  A    between atoms: N_1  and  C_2
REMARK    2  A    between atoms: C_2  and  C_3
REMARK    3  A    between atoms: C_3  and  C_4
REMARK    4  A    between atoms: C_4  and  N_5
REMARK    5  A    between atoms: N_8  and  C_9
REMARK    6  A    between atoms: C_9  and  C_10
REMARK    7  A    between atoms: C_10  and  C_11
REMARK    8  A    between atoms: C_11  and  N_12
REMARK    9  A    between atoms: N_12  and  C_13
REMARK                            x       y       z     vdW  Elec       q    Type
REMARK                         _______ _______ _______ _____ _____    ______ ____
ROOT
ATOM      1  C   UNL     1       2.230   3.814  20.819  0.00  0.00    +0.000 C 
ENDROOT
BRANCH   1   2
ATOM      2  C   UNL     1       1.937   2.753  19.754  0.00  0.00    +0.000 C 
BRANCH   2   6
ATOM      3  N   UNL     1       4.491   4.415  17.568  0.00  0.00    +0.000 NA
ATOM      4  C   UNL     1       3.263   3.729  17.112  0.00  0.00    +0.000 C 
ATOM      5  C   UNL     1       3.123   2.287  17.646  0.00  0.00    +0.000 C 
ATOM      6  N   UNL     1       3.148   2.195  19.124  0.00  0.00    +0.000 NA
ATOM      7  C   UNL     1       4.358   2.894  19.619  0.00  0.00    +0.000 C 
ATOM      8  C   UNL     1       4.552   4.325  19.050  0.00  0.00    +0.000 C 
BRANCH   3   9
ATOM      9  C   UNL     1       5.720   3.846  16.985  0.00  0.00    +0.000 C 
BRANCH   9  10
ATOM     10  C   UNL     1       6.988   4.666  17.246  0.00  0.00    +0.000 C 
BRANCH  10  11
ATOM     11  C   UNL     1       7.026   5.876  16.314  0.00  0.00    +0.000 C 
BRANCH  11  12
ATOM     12  N   UNL     1       6.144   6.925  16.811  0.00  0.00    +0.000 NA
ATOM     13  H   UNL     1       6.446   7.207  17.743  0.00  0.00    +0.000 HD
ATOM     14  H   UNL     1       5.199   6.557  16.913  0.00  0.00    +0.000 HD
ENDBRANCH  11  12
ENDBRANCH  10  11
ENDBRANCH   9  10
ENDBRANCH   3   9
ENDBRANCH   2   6
ENDBRANCH   1   2
BRANCH   1  15
ATOM     15  C   UNL     1       1.394   5.070  20.590  0.00  0.00    +0.000 C 
BRANCH  15  16
ATOM     16  N   UNL     1       2.199   6.259  20.881  0.00  0.00    +0.000 N 
ATOM     17  H   UNL     1       3.183   6.011  20.914  0.00  0.00    +0.000 HD
BRANCH  16  18
ATOM     18  C   UNL     1       1.994   7.383  20.038  0.00  0.00    +0.000 A 
ATOM     19  C   UNL     1       2.406   7.360  18.704  0.00  0.00    +0.000 A 
ATOM     20  C   UNL     1       2.150   8.449  17.898  0.00  0.00    +0.000 A 
ATOM     21  N   UNL     1       1.488   9.545  18.308  0.00  0.00    +0.000 NA
ATOM     22  C   UNL     1       1.033   9.565  19.567  0.00  0.00    +0.000 A 
ATOM     23  C   UNL     1       0.326  10.689  19.958  0.00  0.00    +0.000 A 
ATOM     24  C   UNL     1      -0.195  10.806  21.243  0.00  0.00    +0.000 A 
ATOM     25 CL   UNL     1      -1.075  12.217  21.685  0.00  0.00    +0.000 Cl
ATOM     26  C   UNL     1      -0.012   9.790  22.167  0.00  0.00    +0.000 A 
ATOM     27  C   UNL     1       0.695   8.647  21.792  0.00  0.00    +0.000 A 
ATOM     28  C   UNL     1       1.242   8.507  20.489  0.00  0.00    +0.000 A 
ENDBRANCH  16  18
ENDBRANCH  15  16
ENDBRANCH   1  15
TORSDOF 9
ENDMDL
MODEL 8
REMARK VINA RESULT:      -6.4      6.835      8.061
REMARK  Name = 
REMARK  9 active torsions:
REMARK  status: ('A' for Active; 'I' for Inactive)
REMARK    1  A    between atoms: N_1  and  C_2
REMARK    2  A    between atoms: C_2  and  C_3
REMARK    3  A    between atoms: C_3  and  C_4
REMARK    4  A    between atoms: C_4  and  N_5
REMARK    5  A    between atoms: N_8  and  C_9
REMARK    6  A    between atoms: C_9  and  C_10
REMARK    7  A    between atoms: C_10  and  C_11
REMARK    8  A    between atoms: C_11  and  N_12
REMARK    9  A    between atoms: N_12  and  C_13
REMARK                            x       y       z     vdW  Elec       q    Type
REMARK                         _______ _______ _______ _____ _____    ______ ____
ROOT
ATOM      1  C   UNL     1       8.262   7.951  18.312  0.00  0.00    +0.000 C 
ENDROOT
BRANCH   1   2
ATOM      2  C   UNL     1       7.423   7.432  17.140  0.00  0.00    +0.000 C 
BRANCH   2   6
ATOM      3  N   UNL     1       4.852   5.064  18.499  0.00  0.00    +0.000 NA
ATOM      4  C   UNL     1       6.069   5.529  19.199  0.00  0.00    +0.000 C 
ATOM      5  C   UNL     1       7.369   5.313  18.393  0.00  0.00    +0.000 C 
ATOM      6  N   UNL     1       7.358   5.962  17.062  0.00  0.00    +0.000 NA
ATOM      7  C   UNL     1       6.138   5.534  16.339  0.00  0.00    +0.000 C 
ATOM      8  C   UNL     1       4.823   5.687  17.151  0.00  0.00    +0.000 C 
BRANCH   3   9
ATOM      9  C   UNL     1       4.787   3.596  18.369  0.00  0.00    +0.000 C 
BRANCH   9  10
ATOM     10  C   UNL     1       3.558   3.077  17.616  0.00  0.00    +0.000 C 
BRANCH  10  11
ATOM     11  C   UNL     1       3.105   1.746  18.215  0.00  0.00    +0.000 C 
BRANCH  11  12
ATOM     12  N   UNL     1       1.679   1.782  18.510  0.00  0.00    +0.000 NA
ATOM     13  H   UNL     1       1.334   2.735  18.397  0.00  0.00    +0.000 HD
ATOM     14  H   UNL     1       1.526   1.535  19.488  0.00  0.00    +0.000 HD
ENDBRANCH  11  12
ENDBRANCH  10  11
ENDBRANCH   9  10
ENDBRANCH   3   9
ENDBRANCH   2   6
ENDBRANCH   1   2
BRANCH   1  15
ATOM     15  C   UNL     1       8.454   9.462  18.226  0.00  0.00    +0.000 C 
BRANCH  15  16
ATOM     16  N   UNL     1       9.293   9.917  19.338  0.00  0.00    +0.000 N 
ATOM     17  H   UNL     1       9.931   9.178  19.615  0.00  0.00    +0.000 HD
BRANCH  16  18
ATOM     18  C   UNL     1       9.994  11.137  19.144  0.00  0.00    +0.000 A 
ATOM     19  C   UNL     1      10.659  11.395  17.943  0.00  0.00    +0.000 A 
ATOM     20  C   UNL     1      11.290  12.609  17.767  0.00  0.00    +0.000 A 
ATOM     21  N   UNL     1      11.283  13.595  18.679  0.00  0.00    +0.000 NA
ATOM     22  C   UNL     1      10.603  13.392  19.815  0.00  0.00    +0.000 A 
ATOM     23  C   UNL     1      10.581  14.434  20.726  0.00  0.00    +0.000 A 
ATOM     24  C   UNL     1       9.897  14.327  21.933  0.00  0.00    +0.000 A 
ATOM     25 CL   UNL     1       9.889  15.649  23.033  0.00  0.00    +0.000 Cl
ATOM     26  C   UNL     1       9.219  13.161  22.250  0.00  0.00    +0.000 A 
ATOM     27  C   UNL     1       9.226  12.100  21.345  0.00  0.00    +0.000 A 
ATOM     28  C   UNL     1       9.922  12.183  20.110  0.00  0.00    +0.000 A 
ENDBRANCH  16  18
ENDBRANCH  15  16
ENDBRANCH   1  15
TORSDOF 9
ENDMDL
MODEL 9
REMARK VINA RESULT:      -6.2      0.963      1.039
REMARK  Name = 
REMARK  9 active torsions:
REMARK  status: ('A' for Active; 'I' for Inactive)
REMARK    1  A    between atoms: N_1  and  C_2
REMARK    2  A    between atoms: C_2  and  C_3
REMARK    3  A    between atoms: C_3  and  C_4
REMARK    4  A    between atoms: C_4  and  N_5
REMARK    5  A    between atoms: N_8  and  C_9
REMARK    6  A    between atoms: C_9  and  C_10
REMARK    7  A    between atoms: C_10  and  C_11
REMARK    8  A    between atoms: C_11  and  N_12
REMARK    9  A    between atoms: N_12  and  C_13
REMARK                            x       y       z     vdW  Elec       q    Type
REMARK                         _______ _______ _______ _____ _____    ______ ____
ROOT
ATOM      1  C   UNL     1       2.138   5.127  20.639  0.00  0.00    +0.000 C 
ENDROOT
BRANCH   1   2
ATOM      2  C   UNL     1       1.542   4.159  19.612  0.00  0.00    +0.000 C 
BRANCH   2   6
ATOM      3  N   UNL     1       4.681   3.777  17.596  0.00  0.00    +0.000 NA
ATOM      4  C   UNL     1       4.308   4.947  18.420  0.00  0.00    +0.000 C 
ATOM      5  C   UNL     1       2.914   5.522  18.086  0.00  0.00    +0.000 C 
ATOM      6  N   UNL     1       1.818   4.535  18.213  0.00  0.00    +0.000 NA
ATOM      7  C   UNL     1       2.169   3.336  17.415  0.00  0.00    +0.000 C 
ATOM      8  C   UNL     1       3.589   2.774  17.690  0.00  0.00    +0.000 C 
BRANCH   3   9
ATOM      9  C   UNL     1       4.919   4.121  16.182  0.00  0.00    +0.000 C 
BRANCH   9  10
ATOM     10  C   UNL     1       5.695   5.425  15.964  0.00  0.00    +0.000 C 
BRANCH  10  11
ATOM     11  C   UNL     1       7.177   5.119  15.757  0.00  0.00    +0.000 C 
BRANCH  11  12
ATOM     12  N   UNL     1       7.547   5.329  14.363  0.00  0.00    +0.000 NA
ATOM     13  H   UNL     1       8.447   5.805  14.320  0.00  0.00    +0.000 HD
ATOM     14  H   UNL     1       6.871   5.951  13.920  0.00  0.00    +0.000 HD
ENDBRANCH  11  12
ENDBRANCH  10  11
ENDBRANCH   9  10
ENDBRANCH   3   9
ENDBRANCH   2   6
ENDBRANCH   1   2
BRANCH   1  15
ATOM     15  C   UNL     1       1.182   6.280  20.930  0.00  0.00    +0.000 C 
BRANCH  15  16
ATOM     16  N   UNL     1       1.932   7.536  21.005  0.00  0.00    +0.000 N 
ATOM     17  H   UNL     1       2.872   7.400  20.648  0.00  0.00    +0.000 HD
BRANCH  16  18
ATOM     18  C   UNL     1       1.326   8.671  20.402  0.00  0.00    +0.000 A 
ATOM     19  C   UNL     1       1.465   8.911  19.033  0.00  0.00    +0.000 A 
ATOM     20  C   UNL     1       0.825   9.994  18.469  0.00  0.00    +0.000 A 
ATOM     21  N   UNL     1       0.034  10.837  19.153  0.00  0.00    +0.000 NA
ATOM     22  C   UNL     1      -0.160  10.593  20.456  0.00  0.00    +0.000 A 
ATOM     23  C   UNL     1      -1.005  11.454  21.135  0.00  0.00    +0.000 A 
ATOM     24  C   UNL     1      -1.278  11.284  22.489  0.00  0.00    +0.000 A 
ATOM     25 CL   UNL     1      -2.340  12.372  23.292  0.00  0.00    +0.000 Cl
ATOM     26  C   UNL     1      -0.701  10.238  23.191  0.00  0.00    +0.000 A 
ATOM     27  C   UNL     1       0.151   9.357  22.526  0.00  0.00    +0.000 A 
ATOM     28  C   UNL     1       0.450   9.514  21.146  0.00  0.00    +0.000 A 
ENDBRANCH  16  18
ENDBRANCH  15  16
ENDBRANCH   1  15
TORSDOF 9
ENDMDL
