MODEL 1
REMARK VINA RESULT:      -8.0      0.000      0.000
REMARK  Name = 
REMARK  3 active torsions:
REMARK  status: ('A' for Active; 'I' for Inactive)
REMARK    1  A    between atoms: C_1  and  C_2
REMARK    2  A    between atoms: C_6  and  O_7
REMARK    3  A    between atoms: O_7  and  C_8
REMARK                            x       y       z     vdW  Elec       q    Type
REMARK                         _______ _______ _______ _____ _____    ______ ____
ROOT
ATOM      1  C   UNL     1       5.488   4.209  17.894  0.00  0.00    +0.000 A 
ATOM      2  C   UNL     1       4.877   3.790  16.694  0.00  0.00    +0.000 A 
ATOM      3  C   UNL     1       5.088   4.466  15.495  0.00  0.00    +0.000 A 
ATOM      4  C   UNL     1       5.963   5.550  15.428  0.00  0.00    +0.000 A 
ATOM      5  C   UNL     1       6.641   5.894  16.600  0.00  0.00    +0.000 A 
ATOM      6  N   UNL     1       7.581   6.857  16.843  0.00  0.00    +0.000 N 
ATOM      7  N   UNL     1       8.029   6.886  18.105  0.00  0.00    +0.000 NA
ATOM      8  C   UNL     1       7.356   5.906  18.701  0.00  0.00    +0.000 A 
ATOM      9  N   UNL     1       7.557   5.593  19.987  0.00  0.00    +0.000 N 
ATOM     10  C   UNL     1       6.444   5.251  17.824  0.00  0.00    +0.000 A 
ATOM     11  H   UNL     1       7.966   7.523  16.182  0.00  0.00    +0.000 HD
ATOM     12  H   UNL     1       8.111   6.230  20.545  0.00  0.00    +0.000 HD
ATOM     13  H   UNL     1       6.912   5.002  20.495  0.00  0.00    +0.000 HD
ENDROOT
BRANCH   1  14
ATOM     14  O   UNL     1       5.222   3.596  19.107  0.00  0.00    +0.000 OA
BRANCH  14  20
ATOM     15  C   UNL     1       1.481   6.456  20.692  0.00  0.00    +0.000 C 
ATOM     16  C   UNL     1       2.105   5.108  20.485  0.00  0.00    +0.000 A 
ATOM     17  C   UNL     1       1.429   3.936  20.843  0.00  0.00    +0.000 A 
ATOM     18  C   UNL     1       2.027   2.691  20.642  0.00  0.00    +0.000 A 
ATOM     19  C   UNL     1       3.296   2.604  20.064  0.00  0.00    +0.000 A 
ATOM     20  C   UNL     1       3.971   3.763  19.682  0.00  0.00    +0.000 A 
ATOM     21  C   UNL     1       3.390   5.012  19.931  0.00  0.00    +0.000 A 
ENDBRANCH  14  20
ENDBRANCH   1  14
TORSDOF 2
ENDMDL
MODEL 2
REMARK VINA RESULT:      -7.8      0.517      1.534
REMARK  Name = 
REMARK  3 active torsions:
REMARK  status: ('A' for Active; 'I' for Inactive)
REMARK    1  A    between atoms: C_1  and  C_2
REMARK    2  A    between atoms: C_6  and  O_7
REMARK    3  A    between atoms: O_7  and  C_8
REMARK                            x       y       z     vdW  Elec       q    Type
REMARK                         _______ _______ _______ _____ _____    ______ ____
ROOT
ATOM      1  C   UNL     1       5.582   4.232  17.736  0.00  0.00    +0.000 A 
ATOM      2  C   UNL     1       5.033   3.784  16.517  0.00  0.00    +0.000 A 
ATOM      3  C   UNL     1       5.280   4.450  15.318  0.00  0.00    +0.000 A 
ATOM      4  C   UNL     1       6.133   5.552  15.275  0.00  0.00    +0.000 A 
ATOM      5  C   UNL     1       6.752   5.927  16.470  0.00  0.00    +0.000 A 
ATOM      6  N   UNL     1       7.658   6.914  16.739  0.00  0.00    +0.000 N 
ATOM      7  N   UNL     1       8.051   6.968  18.019  0.00  0.00    +0.000 NA
ATOM      8  C   UNL     1       7.375   5.981  18.598  0.00  0.00    +0.000 A 
ATOM      9  N   UNL     1       7.527   5.689  19.896  0.00  0.00    +0.000 N 
ATOM     10  C   UNL     1       6.516   5.295  17.692  0.00  0.00    +0.000 A 
ATOM     11  H   UNL     1       8.057   7.579  16.087  0.00  0.00    +0.000 HD
ATOM     12  H   UNL     1       8.042   6.345  20.469  0.00  0.00    +0.000 HD
ATOM     13  H   UNL     1       6.874   5.090  20.384  0.00  0.00    +0.000 HD
ENDROOT
BRANCH   1  14
ATOM     14  O   UNL     1       5.277   3.629  18.944  0.00  0.00    +0.000 OA
BRANCH  14  20
ATOM     15  C   UNL     1       1.340   2.478  21.749  0.00  0.00    +0.000 C 
ATOM     16  C   UNL     1       2.133   3.463  20.941  0.00  0.00    +0.000 A 
ATOM     17  C   UNL     1       1.717   4.793  20.814  0.00  0.00    +0.000 A 
ATOM     18  C   UNL     1       2.469   5.694  20.058  0.00  0.00    +0.000 A 
ATOM     19  C   UNL     1       3.652   5.280  19.440  0.00  0.00    +0.000 A 
ATOM     20  C   UNL     1       4.090   3.962  19.579  0.00  0.00    +0.000 A 
ATOM     21  C   UNL     1       3.307   3.049  20.295  0.00  0.00    +0.000 A 
ENDBRANCH  14  20
ENDBRANCH   1  14
TORSDOF 2
ENDMDL
MODEL 3
REMARK VINA RESULT:      -7.5      2.670      5.584
REMARK  Name = 
REMARK  3 active torsions:
REMARK  status: ('A' for Active; 'I' for Inactive)
REMARK    1  A    between atoms: C_1  and  C_2
REMARK    2  A    between atoms: C_6  and  O_7
REMARK    3  A    between atoms: O_7  and  C_8
REMARK                            x       y       z     vdW  Elec       q    Type
REMARK                         _______ _______ _______ _____ _____    ______ ____
ROOT
ATOM      1  C   UNL     1       3.128   3.335  18.428  0.00  0.00    +0.000 A 
ATOM      2  C   UNL     1       2.079   4.180  18.009  0.00  0.00    +0.000 A 
ATOM      3  C   UNL     1       0.994   4.459  18.836  0.00  0.00    +0.000 A 
ATOM      4  C   UNL     1       0.937   3.958  20.136  0.00  0.00    +0.000 A 
ATOM      5  C   UNL     1       2.028   3.205  20.577  0.00  0.00    +0.000 A 
ATOM      6  N   UNL     1       2.289   2.629  21.789  0.00  0.00    +0.000 N 
ATOM      7  N   UNL     1       3.463   1.987  21.854  0.00  0.00    +0.000 NA
ATOM      8  C   UNL     1       3.982   2.155  20.640  0.00  0.00    +0.000 A 
ATOM      9  N   UNL     1       5.191   1.678  20.318  0.00  0.00    +0.000 N 
ATOM     10  C   UNL     1       3.125   2.891  19.772  0.00  0.00    +0.000 A 
ATOM     11  H   UNL     1       1.707   2.646  22.618  0.00  0.00    +0.000 HD
ATOM     12  H   UNL     1       5.632   1.038  20.965  0.00  0.00    +0.000 HD
ATOM     13  H   UNL     1       5.497   1.618  19.356  0.00  0.00    +0.000 HD
ENDROOT
BRANCH   1  14
ATOM     14  O   UNL     1       4.169   2.984  17.586  0.00  0.00    +0.000 OA
BRANCH  14  20
ATOM     15  C   UNL     1       7.811   6.146  18.779  0.00  0.00    +0.000 C 
ATOM     16  C   UNL     1       6.897   5.518  17.769  0.00  0.00    +0.000 A 
ATOM     17  C   UNL     1       6.977   5.857  16.413  0.00  0.00    +0.000 A 
ATOM     18  C   UNL     1       6.118   5.261  15.488  0.00  0.00    +0.000 A 
ATOM     19  C   UNL     1       5.186   4.307  15.906  0.00  0.00    +0.000 A 
ATOM     20  C   UNL     1       5.112   3.943  17.250  0.00  0.00    +0.000 A 
ATOM     21  C   UNL     1       5.940   4.579  18.182  0.00  0.00    +0.000 A 
ENDBRANCH  14  20
ENDBRANCH   1  14
TORSDOF 2
ENDMDL
MODEL 4
REMARK VINA RESULT:      -7.5      1.878      2.956
REMARK  Name = 
REMARK  3 active torsions:
REMARK  status: ('A' for Active; 'I' for Inactive)
REMARK    1  A    between atoms: C_1  and  C_2
REMARK    2  A    between atoms: C_6  and  O_7
REMARK    3  A    between atoms: O_7  and  C_8
REMARK                            x       y       z     vdW  Elec       q    Type
REMARK                         _______ _______ _______ _____ _____    ______ ____
ROOT
ATOM      1  C   UNL     1       5.609   4.195  17.834  0.00  0.00    +0.000 A 
ATOM      2  C   UNL     1       5.786   4.878  19.055  0.00  0.00    +0.000 A 
ATOM      3  C   UNL     1       6.726   5.898  19.189  0.00  0.00    +0.000 A 
ATOM      4  C   UNL     1       7.484   6.321  18.098  0.00  0.00    +0.000 A 
ATOM      5  C   UNL     1       7.229   5.707  16.869  0.00  0.00    +0.000 A 
ATOM      6  N   UNL     1       7.761   5.928  15.629  0.00  0.00    +0.000 N 
ATOM      7  N   UNL     1       7.255   5.149  14.664  0.00  0.00    +0.000 NA
ATOM      8  C   UNL     1       6.364   4.395  15.303  0.00  0.00    +0.000 A 
ATOM      9  N   UNL     1       5.610   3.496  14.658  0.00  0.00    +0.000 N 
ATOM     10  C   UNL     1       6.308   4.672  16.699  0.00  0.00    +0.000 A 
ATOM     11  H   UNL     1       8.468   6.608  15.373  0.00  0.00    +0.000 HD
ATOM     12  H   UNL     1       5.852   3.279  13.700  0.00  0.00    +0.000 HD
ATOM     13  H   UNL     1       5.092   2.785  15.157  0.00  0.00    +0.000 HD
ENDROOT
BRANCH   1  14
ATOM     14  O   UNL     1       4.738   3.126  17.710  0.00  0.00    +0.000 OA
BRANCH  14  20
ATOM     15  C   UNL     1       1.782   2.538  21.661  0.00  0.00    +0.000 C 
ATOM     16  C   UNL     1       1.994   2.923  20.227  0.00  0.00    +0.000 A 
ATOM     17  C   UNL     1       0.939   3.406  19.444  0.00  0.00    +0.000 A 
ATOM     18  C   UNL     1       1.157   3.759  18.112  0.00  0.00    +0.000 A 
ATOM     19  C   UNL     1       2.434   3.653  17.555  0.00  0.00    +0.000 A 
ATOM     20  C   UNL     1       3.500   3.195  18.330  0.00  0.00    +0.000 A 
ATOM     21  C   UNL     1       3.267   2.795  19.651  0.00  0.00    +0.000 A 
ENDBRANCH  14  20
ENDBRANCH   1  14
TORSDOF 2
ENDMDL
MODEL 5
REMARK VINA RESULT:      -7.4      2.611      5.454
REMARK  Name = 
REMARK  3 active torsions:
REMARK  status: ('A' for Active; 'I' for Inactive)
REMARK    1  A    between atoms: C_1  and  C_2
REMARK    2  A    between atoms: C_6  and  O_7
REMARK    3  A    between atoms: O_7  and  C_8
REMARK                            x       y       z     vdW  Elec       q    Type
REMARK                         _______ _______ _______ _____ _____    ______ ____
ROOT
ATOM      1  C   UNL     1       2.761   4.382  18.516  0.00  0.00    +0.000 A 
ATOM      2  C   UNL     1       2.462   3.117  19.064  0.00  0.00    +0.000 A 
ATOM      3  C   UNL     1       1.969   2.982  20.360  0.00  0.00    +0.000 A 
ATOM      4  C   UNL     1       1.696   4.104  21.142  0.00  0.00    +0.000 A 
ATOM      5  C   UNL     1       1.899   5.355  20.554  0.00  0.00    +0.000 A 
ATOM      6  N   UNL     1       1.683   6.617  21.034  0.00  0.00    +0.000 N 
ATOM      7  N   UNL     1       1.982   7.595  20.169  0.00  0.00    +0.000 NA
ATOM      8  C   UNL     1       2.407   6.943  19.090  0.00  0.00    +0.000 A 
ATOM      9  N   UNL     1       2.772   7.588  17.975  0.00  0.00    +0.000 N 
ATOM     10  C   UNL     1       2.407   5.530  19.266  0.00  0.00    +0.000 A 
ATOM     11  H   UNL     1       1.321   6.877  21.944  0.00  0.00    +0.000 HD
ATOM     12  H   UNL     1       2.880   8.593  18.026  0.00  0.00    +0.000 HD
ATOM     13  H   UNL     1       3.286   7.123  17.239  0.00  0.00    +0.000 HD
ENDROOT
BRANCH   1  14
ATOM     14  O   UNL     1       3.329   4.523  17.262  0.00  0.00    +0.000 OA
BRANCH  14  20
ATOM     15  C   UNL     1       7.801   5.698  19.080  0.00  0.00    +0.000 C 
ATOM     16  C   UNL     1       6.931   5.157  17.984  0.00  0.00    +0.000 A 
ATOM     17  C   UNL     1       7.486   4.667  16.796  0.00  0.00    +0.000 A 
ATOM     18  C   UNL     1       6.659   4.168  15.789  0.00  0.00    +0.000 A 
ATOM     19  C   UNL     1       5.273   4.134  15.967  0.00  0.00    +0.000 A 
ATOM     20  C   UNL     1       4.709   4.597  17.156  0.00  0.00    +0.000 A 
ATOM     21  C   UNL     1       5.538   5.144  18.143  0.00  0.00    +0.000 A 
ENDBRANCH  14  20
ENDBRANCH   1  14
TORSDOF 2
ENDMDL
MODEL 6
REMARK VINA RESULT:      -7.4      3.202      5.910
REMARK  Name = 
REMARK  3 active torsions:
REMARK  status: ('A' for Active; 'I' for Inactive)
REMARK    1  A    between atoms: C_1  and  C_2
REMARK    2  A    between atoms: C_6  and  O_7
REMARK    3  A    between atoms: O_7  and  C_8
REMARK                            x       y       z     vdW  Elec       q    Type
REMARK                         _______ _______ _______ _____ _____    ______ ____
ROOT
ATOM      1  C   UNL     1       2.740   5.026  18.354  0.00  0.00    +0.000 A 
ATOM      2  C   UNL     1       2.782   6.344  18.854  0.00  0.00    +0.000 A 
ATOM      3  C   UNL     1       2.115   6.700  20.024  0.00  0.00    +0.000 A 
ATOM      4  C   UNL     1       1.431   5.747  20.777  0.00  0.00    +0.000 A 
ATOM      5  C   UNL     1       1.480   4.425  20.327  0.00  0.00    +0.000 A 
ATOM      6  N   UNL     1       0.962   3.277  20.859  0.00  0.00    +0.000 N 
ATOM      7  N   UNL     1       1.227   2.171  20.151  0.00  0.00    +0.000 NA
ATOM      8  C   UNL     1       1.943   2.620  19.123  0.00  0.00    +0.000 A 
ATOM      9  N   UNL     1       2.434   1.792  18.192  0.00  0.00    +0.000 N 
ATOM     10  C   UNL     1       2.123   4.032  19.152  0.00  0.00    +0.000 A 
ATOM     11  H   UNL     1       0.424   3.181  21.713  0.00  0.00    +0.000 HD
ATOM     12  H   UNL     1       2.106   0.835  18.192  0.00  0.00    +0.000 HD
ATOM     13  H   UNL     1       2.792   2.139  17.312  0.00  0.00    +0.000 HD
ENDROOT
BRANCH   1  14
ATOM     14  O   UNL     1       3.328   4.678  17.150  0.00  0.00    +0.000 OA
BRANCH  14  20
ATOM     15  C   UNL     1       7.838   5.617  19.013  0.00  0.00    +0.000 C 
ATOM     16  C   UNL     1       6.950   5.152  17.896  0.00  0.00    +0.000 A 
ATOM     17  C   UNL     1       7.488   4.691  16.689  0.00  0.00    +0.000 A 
ATOM     18  C   UNL     1       6.645   4.262  15.662  0.00  0.00    +0.000 A 
ATOM     19  C   UNL     1       5.259   4.271  15.840  0.00  0.00    +0.000 A 
ATOM     20  C   UNL     1       4.710   4.707  17.046  0.00  0.00    +0.000 A 
ATOM     21  C   UNL     1       5.557   5.183  18.055  0.00  0.00    +0.000 A 
ENDBRANCH  14  20
ENDBRANCH   1  14
TORSDOF 2
ENDMDL
MODEL 7
REMARK VINA RESULT:      -7.4      3.266      6.061
REMARK  Name = 
REMARK  3 active torsions:
REMARK  status: ('A' for Active; 'I' for Inactive)
REMARK    1  A    between atoms: C_1  and  C_2
REMARK    2  A    between atoms: C_6  and  O_7
REMARK    3  A    between atoms: O_7  and  C_8
REMARK                            x       y       z     vdW  Elec       q    Type
REMARK                         _______ _______ _______ _____ _____    ______ ____
ROOT
ATOM      1  C   UNL     1       2.797   4.757  18.241  0.00  0.00    +0.000 A 
ATOM      2  C   UNL     1       2.913   6.132  18.531  0.00  0.00    +0.000 A 
ATOM      3  C   UNL     1       2.321   6.691  19.662  0.00  0.00    +0.000 A 
ATOM      4  C   UNL     1       1.642   5.894  20.582  0.00  0.00    +0.000 A 
ATOM      5  C   UNL     1       1.618   4.518  20.339  0.00  0.00    +0.000 A 
ATOM      6  N   UNL     1       1.086   3.488  21.063  0.00  0.00    +0.000 N 
ATOM      7  N   UNL     1       1.274   2.277  20.521  0.00  0.00    +0.000 NA
ATOM      8  C   UNL     1       1.952   2.533  19.406  0.00  0.00    +0.000 A 
ATOM      9  N   UNL     1       2.364   1.553  18.591  0.00  0.00    +0.000 N 
ATOM     10  C   UNL     1       2.185   3.924  19.209  0.00  0.00    +0.000 A 
ATOM     11  H   UNL     1       0.590   3.546  21.945  0.00  0.00    +0.000 HD
ATOM     12  H   UNL     1       2.001   0.622  18.753  0.00  0.00    +0.000 HD
ATOM     13  H   UNL     1       2.689   1.746  17.653  0.00  0.00    +0.000 HD
ENDROOT
BRANCH   1  14
ATOM     14  O   UNL     1       3.309   4.205  17.080  0.00  0.00    +0.000 OA
BRANCH  14  20
ATOM     15  C   UNL     1       7.085   4.797  13.905  0.00  0.00    +0.000 C 
ATOM     16  C   UNL     1       6.556   4.645  15.300  0.00  0.00    +0.000 A 
ATOM     17  C   UNL     1       7.412   4.683  16.406  0.00  0.00    +0.000 A 
ATOM     18  C   UNL     1       6.900   4.540  17.697  0.00  0.00    +0.000 A 
ATOM     19  C   UNL     1       5.526   4.378  17.895  0.00  0.00    +0.000 A 
ATOM     20  C   UNL     1       4.658   4.361  16.802  0.00  0.00    +0.000 A 
ATOM     21  C   UNL     1       5.182   4.455  15.507  0.00  0.00    +0.000 A 
ENDBRANCH  14  20
ENDBRANCH   1  14
TORSDOF 2
ENDMDL
MODEL 8
REMARK VINA RESULT:      -7.3      3.268      5.432
REMARK  Name = 
REMARK  3 active torsions:
REMARK  status: ('A' for Active; 'I' for Inactive)
REMARK    1  A    between atoms: C_1  and  C_2
REMARK    2  A    between atoms: C_6  and  O_7
REMARK    3  A    between atoms: O_7  and  C_8
REMARK                            x       y       z     vdW  Elec       q    Type
REMARK                         _______ _______ _______ _____ _____    ______ ____
ROOT
ATOM      1  C   UNL     1       2.748   4.786  19.941  0.00  0.00    +0.000 A 
ATOM      2  C   UNL     1       2.244   4.495  21.225  0.00  0.00    +0.000 A 
ATOM      3  C   UNL     1       1.513   3.335  21.476  0.00  0.00    +0.000 A 
ATOM      4  C   UNL     1       1.308   2.389  20.473  0.00  0.00    +0.000 A 
ATOM      5  C   UNL     1       1.897   2.637  19.231  0.00  0.00    +0.000 A 
ATOM      6  N   UNL     1       1.919   1.894  18.084  0.00  0.00    +0.000 N 
ATOM      7  N   UNL     1       2.608   2.450  17.079  0.00  0.00    +0.000 NA
ATOM      8  C   UNL     1       3.049   3.594  17.594  0.00  0.00    +0.000 A 
ATOM      9  N   UNL     1       3.823   4.432  16.893  0.00  0.00    +0.000 N 
ATOM     10  C   UNL     1       2.621   3.795  18.938  0.00  0.00    +0.000 A 
ATOM     11  H   UNL     1       1.488   0.990  17.926  0.00  0.00    +0.000 HD
ATOM     12  H   UNL     1       3.927   4.258  15.901  0.00  0.00    +0.000 HD
ATOM     13  H   UNL     1       3.985   5.383  17.196  0.00  0.00    +0.000 HD
ENDROOT
BRANCH   1  14
ATOM     14  O   UNL     1       3.404   5.972  19.661  0.00  0.00    +0.000 OA
BRANCH  14  20
ATOM     15  C   UNL     1       0.280   9.578  21.050  0.00  0.00    +0.000 C 
ATOM     16  C   UNL     1       1.116   8.896  20.007  0.00  0.00    +0.000 A 
ATOM     17  C   UNL     1       1.198   9.399  18.704  0.00  0.00    +0.000 A 
ATOM     18  C   UNL     1       1.983   8.750  17.749  0.00  0.00    +0.000 A 
ATOM     19  C   UNL     1       2.707   7.605  18.093  0.00  0.00    +0.000 A 
ATOM     20  C   UNL     1       2.651   7.106  19.394  0.00  0.00    +0.000 A 
ATOM     21  C   UNL     1       1.824   7.731  20.336  0.00  0.00    +0.000 A 
ENDBRANCH  14  20
ENDBRANCH   1  14
TORSDOF 2
ENDMDL
MODEL 9
REMARK VINA RESULT:      -7.3      2.913      5.709
REMARK  Name = 
REMARK  3 active torsions:
REMARK  status: ('A' for Active; 'I' for Inactive)
REMARK    1  A    between atoms: C_1  and  C_2
REMARK    2  A    between atoms: C_6  and  O_7
REMARK    3  A    between atoms: O_7  and  C_8
REMARK                            x       y       z     vdW  Elec       q    Type
REMARK                         _______ _______ _______ _____ _____    ______ ____
ROOT
ATOM      1  C   UNL     1       3.402   5.251  18.553  0.00  0.00    +0.000 A 
ATOM      2  C   UNL     1       2.910   6.316  19.336  0.00  0.00    +0.000 A 
ATOM      3  C   UNL     1       1.897   6.123  20.274  0.00  0.00    +0.000 A 
ATOM      4  C   UNL     1       1.377   4.853  20.514  0.00  0.00    +0.000 A 
ATOM      5  C   UNL     1       1.941   3.788  19.806  0.00  0.00    +0.000 A 
ATOM      6  N   UNL     1       1.688   2.446  19.853  0.00  0.00    +0.000 N 
ATOM      7  N   UNL     1       2.448   1.711  19.030  0.00  0.00    +0.000 NA
ATOM      8  C   UNL     1       3.222   2.611  18.429  0.00  0.00    +0.000 A 
ATOM      9  N   UNL     1       4.159   2.255  17.542  0.00  0.00    +0.000 N 
ATOM     10  C   UNL     1       2.944   3.944  18.848  0.00  0.00    +0.000 A 
ATOM     11  H   UNL     1       1.012   1.965  20.436  0.00  0.00    +0.000 HD
ATOM     12  H   UNL     1       4.153   1.299  17.209  0.00  0.00    +0.000 HD
ATOM     13  H   UNL     1       4.599   2.934  16.935  0.00  0.00    +0.000 HD
ENDROOT
BRANCH   1  14
ATOM     14  O   UNL     1       4.348   5.445  17.561  0.00  0.00    +0.000 OA
BRANCH  14  20
ATOM     15  C   UNL     1       7.967   8.848  17.490  0.00  0.00    +0.000 C 
ATOM     16  C   UNL     1       7.428   7.515  17.917  0.00  0.00    +0.000 A 
ATOM     17  C   UNL     1       8.178   6.659  18.733  0.00  0.00    +0.000 A 
ATOM     18  C   UNL     1       7.658   5.423  19.119  0.00  0.00    +0.000 A 
ATOM     19  C   UNL     1       6.377   5.039  18.711  0.00  0.00    +0.000 A 
ATOM     20  C   UNL     1       5.611   5.892  17.917  0.00  0.00    +0.000 A 
ATOM     21  C   UNL     1       6.155   7.109  17.490  0.00  0.00    +0.000 A 
ENDBRANCH  14  20
ENDBRANCH   1  14
TORSDOF 2
ENDMDL
