MODEL 1
REMARK VINA RESULT:      -8.5      0.000      0.000
REMARK  Name = 
REMARK  12 active torsions:
REMARK  status: ('A' for Active; 'I' for Inactive)
REMARK    1  A    between atoms: C_1  and  O_2
REMARK    2  A    between atoms: O_2  and  C_3
REMARK    3  A    between atoms: C_5  and  C_6
REMARK    4  A    between atoms: C_12  and  C_14
REMARK    5  A    between atoms: C_15  and  C_16
REMARK    6  A    between atoms: C_19  and  O_20
REMARK    7  A    between atoms: O_20  and  C_21
REMARK    8  A    between atoms: C_21  and  C_22
REMARK    9  A    between atoms: C_29  and  O_30
REMARK   10  A    between atoms: O_30  and  C_31
REMARK   11  A    between atoms: C_32  and  O_33
REMARK   12  A    between atoms: O_33  and  C_34
REMARK                            x       y       z     vdW  Elec       q    Type
REMARK                         _______ _______ _______ _____ _____    ______ ____
ROOT
ATOM      1  C   UNL     1       3.756   4.344  16.740  0.00  0.00    +0.000 C 
ATOM      2  C   UNL     1       3.176   3.333  17.409  0.00  0.00    +0.000 C 
ATOM      3  C   UNL     1       3.687   1.940  17.582  0.00  0.00    +0.000 C 
ATOM      4  C   UNL     1       3.669   1.570  19.056  0.00  0.00    +0.000 C 
ATOM      5  C   UNL     1       2.264   1.778  19.598  0.00  0.00    +0.000 C 
ATOM      6  N   UNL     1       1.821   3.155  19.434  0.00  0.00    +0.000 N 
ATOM      7  C   UNL     1       1.451   3.843  20.599  0.00  0.00    +0.000 C 
ATOM      8  O   UNL     1       1.549   3.343  21.723  0.00  0.00    +0.000 OA
ATOM      9  C   UNL     1       1.932   3.729  18.164  0.00  0.00    +0.000 C 
ATOM     10  O   UNL     1       1.111   4.478  17.652  0.00  0.00    +0.000 OA
ENDROOT
BRANCH   1  13
ATOM     11  C   UNL     1       6.341   4.105  13.998  0.00  0.00    +0.000 A 
ATOM     12  C   UNL     1       5.260   3.746  14.831  0.00  0.00    +0.000 A 
ATOM     13  C   UNL     1       5.043   4.403  16.042  0.00  0.00    +0.000 A 
ATOM     14  C   UNL     1       5.987   5.331  16.482  0.00  0.00    +0.000 A 
ATOM     15  C   UNL     1       7.075   5.689  15.677  0.00  0.00    +0.000 A 
ATOM     16  C   UNL     1       7.269   5.083  14.418  0.00  0.00    +0.000 A 
BRANCH  11  18
ATOM     17  C   UNL     1       5.339   3.256  12.016  0.00  0.00    +0.000 C 
ATOM     18  O   UNL     1       6.519   3.502  12.778  0.00  0.00    +0.000 OA
ENDBRANCH  11  18
BRANCH  15  19
ATOM     19  O   UNL     1       7.880   6.644  16.253  0.00  0.00    +0.000 OA
ATOM     20  C   UNL     1       7.405   7.201  17.475  0.00  0.00    +0.000 C 
ENDBRANCH  15  19
BRANCH  16  21
ATOM     21  O   UNL     1       8.389   5.492  13.743  0.00  0.00    +0.000 OA
ATOM     22  C   UNL     1       8.296   5.976  12.412  0.00  0.00    +0.000 C 
ENDBRANCH  16  21
ENDBRANCH   1  13
BRANCH   7  23
ATOM     23  C   UNL     1       0.941   5.238  20.472  0.00  0.00    +0.000 C 
ATOM     24  C   UNL     1       1.778   6.286  20.559  0.00  0.00    +0.000 C 
BRANCH  24  25
ATOM     25  C   UNL     1       1.302   7.678  20.634  0.00  0.00    +0.000 A 
ATOM     26  C   UNL     1       1.528   8.568  19.575  0.00  0.00    +0.000 A 
ATOM     27  C   UNL     1       0.992   9.855  19.596  0.00  0.00    +0.000 A 
ATOM     28  C   UNL     1       0.206  10.256  20.674  0.00  0.00    +0.000 A 
ATOM     29  C   UNL     1      -0.008   9.399  21.750  0.00  0.00    +0.000 A 
ATOM     30  C   UNL     1       0.528   8.105  21.720  0.00  0.00    +0.000 A 
BRANCH  28  31
ATOM     31  O   UNL     1      -0.303  11.570  20.589  0.00  0.00    +0.000 OA
BRANCH  31  32
ATOM     32  C   UNL     1       0.048  12.562  21.507  0.00  0.00    +0.000 C 
ATOM     33  C   UNL     1      -1.087  12.760  22.471  0.00  0.00    +0.000 C 
ATOM     34  O   UNL     1       1.118  13.142  21.589  0.00  0.00    +0.000 OA
ENDBRANCH  31  32
ENDBRANCH  28  31
ENDBRANCH  24  25
ENDBRANCH   7  23
TORSDOF 8
ENDMDL
MODEL 2
REMARK VINA RESULT:      -8.5      3.459     10.091
REMARK  Name = 
REMARK  12 active torsions:
REMARK  status: ('A' for Active; 'I' for Inactive)
REMARK    1  A    between atoms: C_1  and  O_2
REMARK    2  A    between atoms: O_2  and  C_3
REMARK    3  A    between atoms: C_5  and  C_6
REMARK    4  A    between atoms: C_12  and  C_14
REMARK    5  A    between atoms: C_15  and  C_16
REMARK    6  A    between atoms: C_19  and  O_20
REMARK    7  A    between atoms: O_20  and  C_21
REMARK    8  A    between atoms: C_21  and  C_22
REMARK    9  A    between atoms: C_29  and  O_30
REMARK   10  A    between atoms: O_30  and  C_31
REMARK   11  A    between atoms: C_32  and  O_33
REMARK   12  A    between atoms: O_33  and  C_34
REMARK                            x       y       z     vdW  Elec       q    Type
REMARK                         _______ _______ _______ _____ _____    ______ ____
ROOT
ATOM      1  C   UNL     1      -0.235  10.138  18.225  0.00  0.00    +0.000 C 
ATOM      2  C   UNL     1       0.276   9.881  19.441  0.00  0.00    +0.000 C 
ATOM      3  C   UNL     1      -0.319  10.214  20.770  0.00  0.00    +0.000 C 
ATOM      4  C   UNL     1      -0.342   8.971  21.643  0.00  0.00    +0.000 C 
ATOM      5  C   UNL     1       1.066   8.404  21.728  0.00  0.00    +0.000 C 
ATOM      6  N   UNL     1       1.592   8.067  20.413  0.00  0.00    +0.000 N 
ATOM      7  C   UNL     1       1.987   6.736  20.211  0.00  0.00    +0.000 C 
ATOM      8  O   UNL     1       1.844   5.865  21.074  0.00  0.00    +0.000 OA
ATOM      9  C   UNL     1       1.531   9.046  19.416  0.00  0.00    +0.000 C 
ATOM     10  O   UNL     1       2.402   9.263  18.585  0.00  0.00    +0.000 OA
ENDROOT
BRANCH   1  13
ATOM     11  C   UNL     1      -3.517  10.747  16.460  0.00  0.00    +0.000 A 
ATOM     12  C   UNL     1      -2.150  10.449  16.644  0.00  0.00    +0.000 A 
ATOM     13  C   UNL     1      -1.507  10.757  17.843  0.00  0.00    +0.000 A 
ATOM     14  C   UNL     1      -2.200  11.485  18.811  0.00  0.00    +0.000 A 
ATOM     15  C   UNL     1      -3.552  11.805  18.639  0.00  0.00    +0.000 A 
ATOM     16  C   UNL     1      -4.236  11.438  17.461  0.00  0.00    +0.000 A 
BRANCH  11  18
ATOM     17  C   UNL     1      -3.338  10.087  14.183  0.00  0.00    +0.000 C 
ATOM     18  O   UNL     1      -4.166  10.390  15.305  0.00  0.00    +0.000 OA
ENDBRANCH  11  18
BRANCH  15  19
ATOM     19  O   UNL     1      -4.083  12.489  19.708  0.00  0.00    +0.000 OA
ATOM     20  C   UNL     1      -3.153  12.899  20.706  0.00  0.00    +0.000 C 
ENDBRANCH  15  19
BRANCH  16  21
ATOM     21  O   UNL     1      -5.544  11.841  17.398  0.00  0.00    +0.000 OA
ATOM     22  C   UNL     1      -6.554  11.131  18.099  0.00  0.00    +0.000 C 
ENDBRANCH  16  21
ENDBRANCH   1  13
BRANCH   7  23
ATOM     23  C   UNL     1       2.580   6.360  18.897  0.00  0.00    +0.000 C 
ATOM     24  C   UNL     1       3.608   5.497  18.830  0.00  0.00    +0.000 C 
BRANCH  24  25
ATOM     25  C   UNL     1       4.352   5.242  17.584  0.00  0.00    +0.000 A 
ATOM     26  C   UNL     1       4.710   3.937  17.220  0.00  0.00    +0.000 A 
ATOM     27  C   UNL     1       5.322   3.680  15.994  0.00  0.00    +0.000 A 
ATOM     28  C   UNL     1       5.564   4.729  15.111  0.00  0.00    +0.000 A 
ATOM     29  C   UNL     1       5.242   6.037  15.463  0.00  0.00    +0.000 A 
ATOM     30  C   UNL     1       4.622   6.290  16.694  0.00  0.00    +0.000 A 
BRANCH  28  31
ATOM     31  O   UNL     1       6.171   4.360  13.891  0.00  0.00    +0.000 OA
BRANCH  31  32
ATOM     32  C   UNL     1       7.344   4.963  13.433  0.00  0.00    +0.000 C 
ATOM     33  C   UNL     1       7.423   4.808  11.941  0.00  0.00    +0.000 C 
ATOM     34  O   UNL     1       8.157   5.587  14.096  0.00  0.00    +0.000 OA
ENDBRANCH  31  32
ENDBRANCH  28  31
ENDBRANCH  24  25
ENDBRANCH   7  23
TORSDOF 8
ENDMDL
MODEL 3
REMARK VINA RESULT:      -8.4      3.524     10.146
REMARK  Name = 
REMARK  12 active torsions:
REMARK  status: ('A' for Active; 'I' for Inactive)
REMARK    1  A    between atoms: C_1  and  O_2
REMARK    2  A    between atoms: O_2  and  C_3
REMARK    3  A    between atoms: C_5  and  C_6
REMARK    4  A    between atoms: C_12  and  C_14
REMARK    5  A    between atoms: C_15  and  C_16
REMARK    6  A    between atoms: C_19  and  O_20
REMARK    7  A    between atoms: O_20  and  C_21
REMARK    8  A    between atoms: C_21  and  C_22
REMARK    9  A    between atoms: C_29  and  O_30
REMARK   10  A    between atoms: O_30  and  C_31
REMARK   11  A    between atoms: C_32  and  O_33
REMARK   12  A    between atoms: O_33  and  C_34
REMARK                            x       y       z     vdW  Elec       q    Type
REMARK                         _______ _______ _______ _____ _____    ______ ____
ROOT
ATOM      1  C   UNL     1      -0.228   9.969  17.962  0.00  0.00    +0.000 C 
ATOM      2  C   UNL     1       0.354   9.751  19.154  0.00  0.00    +0.000 C 
ATOM      3  C   UNL     1      -0.173  10.107  20.505  0.00  0.00    +0.000 C 
ATOM      4  C   UNL     1      -0.126   8.887  21.409  0.00  0.00    +0.000 C 
ATOM      5  C   UNL     1       1.294   8.344  21.429  0.00  0.00    +0.000 C 
ATOM      6  N   UNL     1       1.752   7.983  20.095  0.00  0.00    +0.000 N 
ATOM      7  C   UNL     1       2.158   6.653  19.904  0.00  0.00    +0.000 C 
ATOM      8  O   UNL     1       2.078   5.803  20.795  0.00  0.00    +0.000 OA
ATOM      9  C   UNL     1       1.619   8.935  19.080  0.00  0.00    +0.000 C 
ATOM     10  O   UNL     1       2.439   9.145  18.196  0.00  0.00    +0.000 OA
ENDROOT
BRANCH   1  13
ATOM     11  C   UNL     1      -3.599  10.499  16.345  0.00  0.00    +0.000 A 
ATOM     12  C   UNL     1      -2.218  10.233  16.467  0.00  0.00    +0.000 A 
ATOM     13  C   UNL     1      -1.530  10.557  17.636  0.00  0.00    +0.000 A 
ATOM     14  C   UNL     1      -2.196  11.271  18.633  0.00  0.00    +0.000 A 
ATOM     15  C   UNL     1      -3.561  11.560  18.522  0.00  0.00    +0.000 A 
ATOM     16  C   UNL     1      -4.288  11.176  17.375  0.00  0.00    +0.000 A 
BRANCH  11  18
ATOM     17  C   UNL     1      -3.562  10.153  13.993  0.00  0.00    +0.000 C 
ATOM     18  O   UNL     1      -4.289  10.125  15.219  0.00  0.00    +0.000 OA
ENDBRANCH  11  18
BRANCH  15  19
ATOM     19  O   UNL     1      -4.060  12.234  19.612  0.00  0.00    +0.000 OA
ATOM     20  C   UNL     1      -3.090  12.740  20.525  0.00  0.00    +0.000 C 
ENDBRANCH  15  19
BRANCH  16  21
ATOM     21  O   UNL     1      -5.606  11.548  17.371  0.00  0.00    +0.000 OA
ATOM     22  C   UNL     1      -5.989  12.848  16.949  0.00  0.00    +0.000 C 
ENDBRANCH  16  21
ENDBRANCH   1  13
BRANCH   7  23
ATOM     23  C   UNL     1       2.684   6.253  18.569  0.00  0.00    +0.000 C 
ATOM     24  C   UNL     1       3.752   5.444  18.466  0.00  0.00    +0.000 C 
BRANCH  24  25
ATOM     25  C   UNL     1       4.426   5.177  17.183  0.00  0.00    +0.000 A 
ATOM     26  C   UNL     1       4.800   6.231  16.340  0.00  0.00    +0.000 A 
ATOM     27  C   UNL     1       5.529   5.991  15.176  0.00  0.00    +0.000 A 
ATOM     28  C   UNL     1       5.907   4.689  14.856  0.00  0.00    +0.000 A 
ATOM     29  C   UNL     1       5.522   3.623  15.664  0.00  0.00    +0.000 A 
ATOM     30  C   UNL     1       4.795   3.871  16.836  0.00  0.00    +0.000 A 
BRANCH  28  31
ATOM     31  O   UNL     1       6.656   4.557  13.667  0.00  0.00    +0.000 OA
BRANCH  31  32
ATOM     32  C   UNL     1       6.298   3.658  12.660  0.00  0.00    +0.000 C 
ATOM     33  C   UNL     1       4.814   3.731  12.445  0.00  0.00    +0.000 C 
ATOM     34  O   UNL     1       7.049   2.965  11.993  0.00  0.00    +0.000 OA
ENDBRANCH  31  32
ENDBRANCH  28  31
ENDBRANCH  24  25
ENDBRANCH   7  23
TORSDOF 8
ENDMDL
MODEL 4
REMARK VINA RESULT:      -8.4      0.435      1.048
REMARK  Name = 
REMARK  12 active torsions:
REMARK  status: ('A' for Active; 'I' for Inactive)
REMARK    1  A    between atoms: C_1  and  O_2
REMARK    2  A    between atoms: O_2  and  C_3
REMARK    3  A    between atoms: C_5  and  C_6
REMARK    4  A    between atoms: C_12  and  C_14
REMARK    5  A    between atoms: C_15  and  C_16
REMARK    6  A    between atoms: C_19  and  O_20
REMARK    7  A    between atoms: O_20  and  C_21
REMARK    8  A    between atoms: C_21  and  C_22
REMARK    9  A    between atoms: C_29  and  O_30
REMARK   10  A    between atoms: O_30  and  C_31
REMARK   11  A    between atoms: C_32  and  O_33
REMARK   12  A    between atoms: O_33  and  C_34
REMARK                            x       y       z     vdW  Elec       q    Type
REMARK                         _______ _______ _______ _____ _____    ______ ____
ROOT
ATOM      1  C   UNL     1       3.769   4.397  16.794  0.00  0.00    +0.000 C 
ATOM      2  C   UNL     1       3.190   3.400  17.485  0.00  0.00    +0.000 C 
ATOM      3  C   UNL     1       3.696   2.008  17.675  0.00  0.00    +0.000 C 
ATOM      4  C   UNL     1       3.692   1.662  19.154  0.00  0.00    +0.000 C 
ATOM      5  C   UNL     1       2.295   1.886  19.709  0.00  0.00    +0.000 C 
ATOM      6  N   UNL     1       1.857   3.263  19.527  0.00  0.00    +0.000 N 
ATOM      7  C   UNL     1       1.505   3.972  20.686  0.00  0.00    +0.000 C 
ATOM      8  O   UNL     1       1.613   3.489  21.816  0.00  0.00    +0.000 OA
ATOM      9  C   UNL     1       1.958   3.816  18.247  0.00  0.00    +0.000 C 
ATOM     10  O   UNL     1       1.135   4.561  17.733  0.00  0.00    +0.000 OA
ENDROOT
BRANCH   1  13
ATOM     11  C   UNL     1       6.318   4.114  14.022  0.00  0.00    +0.000 A 
ATOM     12  C   UNL     1       5.243   3.771  14.870  0.00  0.00    +0.000 A 
ATOM     13  C   UNL     1       5.048   4.437  16.080  0.00  0.00    +0.000 A 
ATOM     14  C   UNL     1       6.008   5.357  16.504  0.00  0.00    +0.000 A 
ATOM     15  C   UNL     1       7.090   5.698  15.684  0.00  0.00    +0.000 A 
ATOM     16  C   UNL     1       7.262   5.083  14.426  0.00  0.00    +0.000 A 
BRANCH  11  18
ATOM     17  C   UNL     1       5.281   3.241  12.069  0.00  0.00    +0.000 C 
ATOM     18  O   UNL     1       6.475   3.502  12.804  0.00  0.00    +0.000 OA
ENDBRANCH  11  18
BRANCH  15  19
ATOM     19  O   UNL     1       7.913   6.647  16.245  0.00  0.00    +0.000 OA
ATOM     20  C   UNL     1       7.471   7.197  17.483  0.00  0.00    +0.000 C 
ENDBRANCH  15  19
BRANCH  16  21
ATOM     21  O   UNL     1       8.379   5.475  13.736  0.00  0.00    +0.000 OA
ATOM     22  C   UNL     1       8.272   5.984  12.415  0.00  0.00    +0.000 C 
ENDBRANCH  16  21
ENDBRANCH   1  13
BRANCH   7  23
ATOM     23  C   UNL     1       1.001   5.367  20.542  0.00  0.00    +0.000 C 
ATOM     24  C   UNL     1       1.846   6.411  20.596  0.00  0.00    +0.000 C 
BRANCH  24  25
ATOM     25  C   UNL     1       1.380   7.808  20.654  0.00  0.00    +0.000 A 
ATOM     26  C   UNL     1       0.958   8.370  21.866  0.00  0.00    +0.000 A 
ATOM     27  C   UNL     1       0.615   9.719  21.947  0.00  0.00    +0.000 A 
ATOM     28  C   UNL     1       0.710  10.524  20.814  0.00  0.00    +0.000 A 
ATOM     29  C   UNL     1       1.099   9.980  19.592  0.00  0.00    +0.000 A 
ATOM     30  C   UNL     1       1.449   8.625  19.518  0.00  0.00    +0.000 A 
BRANCH  28  31
ATOM     31  O   UNL     1       0.356  11.876  21.006  0.00  0.00    +0.000 OA
BRANCH  31  32
ATOM     32  C   UNL     1      -0.939  12.263  21.355  0.00  0.00    +0.000 C 
ATOM     33  C   UNL     1      -0.896  12.986  22.670  0.00  0.00    +0.000 C 
ATOM     34  O   UNL     1      -1.953  12.120  20.690  0.00  0.00    +0.000 OA
ENDBRANCH  31  32
ENDBRANCH  28  31
ENDBRANCH  24  25
ENDBRANCH   7  23
TORSDOF 8
ENDMDL
MODEL 5
REMARK VINA RESULT:      -8.0      3.561     10.429
REMARK  Name = 
REMARK  12 active torsions:
REMARK  status: ('A' for Active; 'I' for Inactive)
REMARK    1  A    between atoms: C_1  and  O_2
REMARK    2  A    between atoms: O_2  and  C_3
REMARK    3  A    between atoms: C_5  and  C_6
REMARK    4  A    between atoms: C_12  and  C_14
REMARK    5  A    between atoms: C_15  and  C_16
REMARK    6  A    between atoms: C_19  and  O_20
REMARK    7  A    between atoms: O_20  and  C_21
REMARK    8  A    between atoms: C_21  and  C_22
REMARK    9  A    between atoms: C_29  and  O_30
REMARK   10  A    between atoms: O_30  and  C_31
REMARK   11  A    between atoms: C_32  and  O_33
REMARK   12  A    between atoms: O_33  and  C_34
REMARK                            x       y       z     vdW  Elec       q    Type
REMARK                         _______ _______ _______ _____ _____    ______ ____
ROOT
ATOM      1  C   UNL     1      -0.474   9.814  18.191  0.00  0.00    +0.000 C 
ATOM      2  C   UNL     1       0.201   9.647  19.341  0.00  0.00    +0.000 C 
ATOM      3  C   UNL     1      -0.273   9.940  20.727  0.00  0.00    +0.000 C 
ATOM      4  C   UNL     1      -0.048   8.724  21.609  0.00  0.00    +0.000 C 
ATOM      5  C   UNL     1       1.417   8.325  21.535  0.00  0.00    +0.000 C 
ATOM      6  N   UNL     1       1.823   8.020  20.170  0.00  0.00    +0.000 N 
ATOM      7  C   UNL     1       2.346   6.739  19.937  0.00  0.00    +0.000 C 
ATOM      8  O   UNL     1       2.407   5.878  20.819  0.00  0.00    +0.000 OA
ATOM      9  C   UNL     1       1.534   8.962  19.178  0.00  0.00    +0.000 C 
ATOM     10  O   UNL     1       2.272   9.258  18.248  0.00  0.00    +0.000 OA
ENDROOT
BRANCH   1  13
ATOM     11  C   UNL     1      -3.635  11.867  18.405  0.00  0.00    +0.000 A 
ATOM     12  C   UNL     1      -2.492  11.151  18.822  0.00  0.00    +0.000 A 
ATOM     13  C   UNL     1      -1.845  10.273  17.954  0.00  0.00    +0.000 A 
ATOM     14  C   UNL     1      -2.419  10.011  16.709  0.00  0.00    +0.000 A 
ATOM     15  C   UNL     1      -3.562  10.699  16.285  0.00  0.00    +0.000 A 
ATOM     16  C   UNL     1      -4.189  11.643  17.125  0.00  0.00    +0.000 A 
BRANCH  11  18
ATOM     17  C   UNL     1      -3.947  12.650  20.628  0.00  0.00    +0.000 C 
ATOM     18  O   UNL     1      -4.237  12.777  19.238  0.00  0.00    +0.000 OA
ENDBRANCH  11  18
BRANCH  15  19
ATOM     19  O   UNL     1      -3.967  10.342  15.020  0.00  0.00    +0.000 OA
ATOM     20  C   UNL     1      -2.926   9.995  14.111  0.00  0.00    +0.000 C 
ENDBRANCH  15  19
BRANCH  16  21
ATOM     21  O   UNL     1      -5.319  12.220  16.610  0.00  0.00    +0.000 OA
ATOM     22  C   UNL     1      -6.561  12.110  17.287  0.00  0.00    +0.000 C 
ENDBRANCH  16  21
ENDBRANCH   1  13
BRANCH   7  23
ATOM     23  C   UNL     1       2.824   6.403  18.566  0.00  0.00    +0.000 C 
ATOM     24  C   UNL     1       3.681   5.387  18.368  0.00  0.00    +0.000 C 
BRANCH  24  25
ATOM     25  C   UNL     1       4.331   5.137  17.069  0.00  0.00    +0.000 A 
ATOM     26  C   UNL     1       4.719   6.204  16.248  0.00  0.00    +0.000 A 
ATOM     27  C   UNL     1       5.426   5.978  15.068  0.00  0.00    +0.000 A 
ATOM     28  C   UNL     1       5.768   4.676  14.709  0.00  0.00    +0.000 A 
ATOM     29  C   UNL     1       5.370   3.599  15.495  0.00  0.00    +0.000 A 
ATOM     30  C   UNL     1       4.664   3.833  16.683  0.00  0.00    +0.000 A 
BRANCH  28  31
ATOM     31  O   UNL     1       6.498   4.557  13.507  0.00  0.00    +0.000 OA
BRANCH  31  32
ATOM     32  C   UNL     1       6.197   3.587  12.549  0.00  0.00    +0.000 C 
ATOM     33  C   UNL     1       4.726   3.634  12.251  0.00  0.00    +0.000 C 
ATOM     34  O   UNL     1       6.985   2.855  11.972  0.00  0.00    +0.000 OA
ENDBRANCH  31  32
ENDBRANCH  28  31
ENDBRANCH  24  25
ENDBRANCH   7  23
TORSDOF 8
ENDMDL
MODEL 6
REMARK VINA RESULT:      -7.9      3.599     10.355
REMARK  Name = 
REMARK  12 active torsions:
REMARK  status: ('A' for Active; 'I' for Inactive)
REMARK    1  A    between atoms: C_1  and  O_2
REMARK    2  A    between atoms: O_2  and  C_3
REMARK    3  A    between atoms: C_5  and  C_6
REMARK    4  A    between atoms: C_12  and  C_14
REMARK    5  A    between atoms: C_15  and  C_16
REMARK    6  A    between atoms: C_19  and  O_20
REMARK    7  A    between atoms: O_20  and  C_21
REMARK    8  A    between atoms: C_21  and  C_22
REMARK    9  A    between atoms: C_29  and  O_30
REMARK   10  A    between atoms: O_30  and  C_31
REMARK   11  A    between atoms: C_32  and  O_33
REMARK   12  A    between atoms: O_33  and  C_34
REMARK                            x       y       z     vdW  Elec       q    Type
REMARK                         _______ _______ _______ _____ _____    ______ ____
ROOT
ATOM      1  C   UNL     1      -0.426   9.732  18.051  0.00  0.00    +0.000 C 
ATOM      2  C   UNL     1       0.193   9.584  19.235  0.00  0.00    +0.000 C 
ATOM      3  C   UNL     1      -0.345   9.905  20.591  0.00  0.00    +0.000 C 
ATOM      4  C   UNL     1      -0.168   8.705  21.506  0.00  0.00    +0.000 C 
ATOM      5  C   UNL     1       1.297   8.299  21.509  0.00  0.00    +0.000 C 
ATOM      6  N   UNL     1       1.766   7.968  20.171  0.00  0.00    +0.000 N 
ATOM      7  C   UNL     1       2.293   6.680  19.987  0.00  0.00    +0.000 C 
ATOM      8  O   UNL     1       2.308   5.836  20.887  0.00  0.00    +0.000 OA
ATOM      9  C   UNL     1       1.528   8.891  19.149  0.00  0.00    +0.000 C 
ATOM     10  O   UNL     1       2.311   9.167  18.249  0.00  0.00    +0.000 OA
ENDROOT
BRANCH   1  13
ATOM     11  C   UNL     1      -3.718  11.564  18.309  0.00  0.00    +0.000 A 
ATOM     12  C   UNL     1      -2.594  10.803  18.696  0.00  0.00    +0.000 A 
ATOM     13  C   UNL     1      -1.782  10.192  17.741  0.00  0.00    +0.000 A 
ATOM     14  C   UNL     1      -2.172  10.232  16.402  0.00  0.00    +0.000 A 
ATOM     15  C   UNL     1      -3.293  10.968  16.000  0.00  0.00    +0.000 A 
ATOM     16  C   UNL     1      -4.085  11.650  16.948  0.00  0.00    +0.000 A 
BRANCH  11  18
ATOM     17  C   UNL     1      -3.786  12.747  20.370  0.00  0.00    +0.000 C 
ATOM     18  O   UNL     1      -4.482  12.216  19.244  0.00  0.00    +0.000 OA
ENDBRANCH  11  18
BRANCH  15  19
ATOM     19  O   UNL     1      -3.505  10.928  14.642  0.00  0.00    +0.000 OA
ATOM     20  C   UNL     1      -2.913   9.829  13.954  0.00  0.00    +0.000 C 
ENDBRANCH  15  19
BRANCH  16  21
ATOM     21  O   UNL     1      -5.174  12.302  16.433  0.00  0.00    +0.000 OA
ATOM     22  C   UNL     1      -6.393  12.358  17.159  0.00  0.00    +0.000 C 
ENDBRANCH  16  21
ENDBRANCH   1  13
BRANCH   7  23
ATOM     23  C   UNL     1       2.834   6.316  18.647  0.00  0.00    +0.000 C 
ATOM     24  C   UNL     1       3.879   5.479  18.533  0.00  0.00    +0.000 C 
BRANCH  24  25
ATOM     25  C   UNL     1       4.571   5.241  17.254  0.00  0.00    +0.000 A 
ATOM     26  C   UNL     1       4.894   3.939  16.848  0.00  0.00    +0.000 A 
ATOM     27  C   UNL     1       5.454   3.699  15.595  0.00  0.00    +0.000 A 
ATOM     28  C   UNL     1       5.679   4.764  14.725  0.00  0.00    +0.000 A 
ATOM     29  C   UNL     1       5.392   6.069  15.117  0.00  0.00    +0.000 A 
ATOM     30  C   UNL     1       4.823   6.303  16.376  0.00  0.00    +0.000 A 
BRANCH  28  31
ATOM     31  O   UNL     1       6.233   4.412  13.476  0.00  0.00    +0.000 OA
BRANCH  31  32
ATOM     32  C   UNL     1       5.551   3.606  12.562  0.00  0.00    +0.000 C 
ATOM     33  C   UNL     1       6.527   2.660  11.922  0.00  0.00    +0.000 C 
ATOM     34  O   UNL     1       4.350   3.594  12.346  0.00  0.00    +0.000 OA
ENDBRANCH  31  32
ENDBRANCH  28  31
ENDBRANCH  24  25
ENDBRANCH   7  23
TORSDOF 8
ENDMDL
MODEL 7
REMARK VINA RESULT:      -7.7      4.903     10.308
REMARK  Name = 
REMARK  12 active torsions:
REMARK  status: ('A' for Active; 'I' for Inactive)
REMARK    1  A    between atoms: C_1  and  O_2
REMARK    2  A    between atoms: O_2  and  C_3
REMARK    3  A    between atoms: C_5  and  C_6
REMARK    4  A    between atoms: C_12  and  C_14
REMARK    5  A    between atoms: C_15  and  C_16
REMARK    6  A    between atoms: C_19  and  O_20
REMARK    7  A    between atoms: O_20  and  C_21
REMARK    8  A    between atoms: C_21  and  C_22
REMARK    9  A    between atoms: C_29  and  O_30
REMARK   10  A    between atoms: O_30  and  C_31
REMARK   11  A    between atoms: C_32  and  O_33
REMARK   12  A    between atoms: O_33  and  C_34
REMARK                            x       y       z     vdW  Elec       q    Type
REMARK                         _______ _______ _______ _____ _____    ______ ____
ROOT
ATOM      1  C   UNL     1       2.929  13.811  19.789  0.00  0.00    +0.000 C 
ATOM      2  C   UNL     1       1.591  13.734  19.881  0.00  0.00    +0.000 C 
ATOM      3  C   UNL     1       0.593  14.803  19.576  0.00  0.00    +0.000 C 
ATOM      4  C   UNL     1      -0.465  14.258  18.632  0.00  0.00    +0.000 C 
ATOM      5  C   UNL     1      -1.075  13.008  19.244  0.00  0.00    +0.000 C 
ATOM      6  N   UNL     1      -0.069  11.985  19.495  0.00  0.00    +0.000 N 
ATOM      7  C   UNL     1      -0.264  10.741  18.874  0.00  0.00    +0.000 C 
ATOM      8  O   UNL     1      -1.202  10.527  18.101  0.00  0.00    +0.000 OA
ATOM      9  C   UNL     1       1.075  12.356  20.207  0.00  0.00    +0.000 C 
ATOM     10  O   UNL     1       1.637  11.669  21.049  0.00  0.00    +0.000 OA
ENDROOT
BRANCH   1  13
ATOM     11  C   UNL     1       4.779  17.102  19.725  0.00  0.00    +0.000 A 
ATOM     12  C   UNL     1       3.722  16.182  19.897  0.00  0.00    +0.000 A 
ATOM     13  C   UNL     1       3.787  14.908  19.333  0.00  0.00    +0.000 A 
ATOM     14  C   UNL     1       4.852  14.600  18.485  0.00  0.00    +0.000 A 
ATOM     15  C   UNL     1       5.900  15.507  18.289  0.00  0.00    +0.000 A 
ATOM     16  C   UNL     1       5.883  16.774  18.909  0.00  0.00    +0.000 A 
BRANCH  11  18
ATOM     17  C   UNL     1       4.890  18.345  21.749  0.00  0.00    +0.000 C 
ATOM     18  O   UNL     1       4.743  18.333  20.330  0.00  0.00    +0.000 OA
ENDBRANCH  11  18
BRANCH  15  19
ATOM     19  O   UNL     1       6.881  15.023  17.454  0.00  0.00    +0.000 OA
ATOM     20  C   UNL     1       7.808  14.117  18.046  0.00  0.00    +0.000 C 
ENDBRANCH  15  19
BRANCH  16  21
ATOM     21  O   UNL     1       6.948  17.582  18.609  0.00  0.00    +0.000 OA
ATOM     22  C   UNL     1       8.024  17.730  19.522  0.00  0.00    +0.000 C 
ENDBRANCH  16  21
ENDBRANCH   1  13
BRANCH   7  23
ATOM     23  C   UNL     1       0.712   9.648  19.146  0.00  0.00    +0.000 C 
ATOM     24  C   UNL     1       1.504   9.177  18.168  0.00  0.00    +0.000 C 
BRANCH  24  25
ATOM     25  C   UNL     1       2.341   7.975  18.334  0.00  0.00    +0.000 A 
ATOM     26  C   UNL     1       3.385   7.703  17.439  0.00  0.00    +0.000 A 
ATOM     27  C   UNL     1       4.244   6.626  17.650  0.00  0.00    +0.000 A 
ATOM     28  C   UNL     1       4.077   5.821  18.774  0.00  0.00    +0.000 A 
ATOM     29  C   UNL     1       3.030   6.055  19.661  0.00  0.00    +0.000 A 
ATOM     30  C   UNL     1       2.173   7.143  19.448  0.00  0.00    +0.000 A 
BRANCH  28  31
ATOM     31  O   UNL     1       5.010   4.769  18.903  0.00  0.00    +0.000 OA
BRANCH  31  32
ATOM     32  C   UNL     1       4.614   3.434  19.009  0.00  0.00    +0.000 C 
ATOM     33  C   UNL     1       3.888   3.039  17.755  0.00  0.00    +0.000 C 
ATOM     34  O   UNL     1       4.862   2.665  19.923  0.00  0.00    +0.000 OA
ENDBRANCH  31  32
ENDBRANCH  28  31
ENDBRANCH  24  25
ENDBRANCH   7  23
TORSDOF 8
ENDMDL
MODEL 8
REMARK VINA RESULT:      -7.5      4.380     12.127
REMARK  Name = 
REMARK  12 active torsions:
REMARK  status: ('A' for Active; 'I' for Inactive)
REMARK    1  A    between atoms: C_1  and  O_2
REMARK    2  A    between atoms: O_2  and  C_3
REMARK    3  A    between atoms: C_5  and  C_6
REMARK    4  A    between atoms: C_12  and  C_14
REMARK    5  A    between atoms: C_15  and  C_16
REMARK    6  A    between atoms: C_19  and  O_20
REMARK    7  A    between atoms: O_20  and  C_21
REMARK    8  A    between atoms: C_21  and  C_22
REMARK    9  A    between atoms: C_29  and  O_30
REMARK   10  A    between atoms: O_30  and  C_31
REMARK   11  A    between atoms: C_32  and  O_33
REMARK   12  A    between atoms: O_33  and  C_34
REMARK                            x       y       z     vdW  Elec       q    Type
REMARK                         _______ _______ _______ _____ _____    ______ ____
ROOT
ATOM      1  C   UNL     1      -1.496  11.879  21.635  0.00  0.00    +0.000 C 
ATOM      2  C   UNL     1      -1.255  12.263  20.369  0.00  0.00    +0.000 C 
ATOM      3  C   UNL     1      -1.360  13.639  19.798  0.00  0.00    +0.000 C 
ATOM      4  C   UNL     1      -0.076  13.986  19.066  0.00  0.00    +0.000 C 
ATOM      5  C   UNL     1       0.205  12.912  18.027  0.00  0.00    +0.000 C 
ATOM      6  N   UNL     1       0.329  11.595  18.634  0.00  0.00    +0.000 N 
ATOM      7  C   UNL     1       1.535  10.911  18.421  0.00  0.00    +0.000 C 
ATOM      8  O   UNL     1       2.480  11.412  17.803  0.00  0.00    +0.000 OA
ATOM      9  C   UNL     1      -0.691  11.174  19.493  0.00  0.00    +0.000 C 
ATOM     10  O   UNL     1      -1.140  10.037  19.554  0.00  0.00    +0.000 OA
ENDROOT
BRANCH   1  13
ATOM     11  C   UNL     1      -1.546  14.634  24.216  0.00  0.00    +0.000 A 
ATOM     12  C   UNL     1      -1.037  13.643  23.349  0.00  0.00    +0.000 A 
ATOM     13  C   UNL     1      -1.876  12.669  22.809  0.00  0.00    +0.000 A 
ATOM     14  C   UNL     1      -3.200  12.605  23.243  0.00  0.00    +0.000 A 
ATOM     15  C   UNL     1      -3.719  13.568  24.116  0.00  0.00    +0.000 A 
ATOM     16  C   UNL     1      -2.900  14.603  24.616  0.00  0.00    +0.000 A 
BRANCH  11  18
ATOM     17  C   UNL     1       0.045  16.334  23.735  0.00  0.00    +0.000 C 
ATOM     18  O   UNL     1      -0.734  15.629  24.700  0.00  0.00    +0.000 OA
ENDBRANCH  11  18
BRANCH  15  19
ATOM     19  O   UNL     1      -5.049  13.372  24.406  0.00  0.00    +0.000 OA
ATOM     20  C   UNL     1      -5.967  13.725  23.375  0.00  0.00    +0.000 C 
ENDBRANCH  15  19
BRANCH  16  21
ATOM     21  O   UNL     1      -3.516  15.460  25.490  0.00  0.00    +0.000 OA
ATOM     22  C   UNL     1      -4.051  16.694  25.037  0.00  0.00    +0.000 C 
ENDBRANCH  16  21
ENDBRANCH   1  13
BRANCH   7  23
ATOM     23  C   UNL     1       1.685   9.537  18.979  0.00  0.00    +0.000 C 
ATOM     24  C   UNL     1       2.314   8.577  18.280  0.00  0.00    +0.000 C 
BRANCH  24  25
ATOM     25  C   UNL     1       2.319   7.164  18.698  0.00  0.00    +0.000 A 
ATOM     26  C   UNL     1       2.137   6.817  20.043  0.00  0.00    +0.000 A 
ATOM     27  C   UNL     1       2.038   5.481  20.430  0.00  0.00    +0.000 A 
ATOM     28  C   UNL     1       2.101   4.478  19.465  0.00  0.00    +0.000 A 
ATOM     29  C   UNL     1       2.309   4.798  18.126  0.00  0.00    +0.000 A 
ATOM     30  C   UNL     1       2.402   6.143  17.743  0.00  0.00    +0.000 A 
BRANCH  28  31
ATOM     31  O   UNL     1       1.973   3.162  19.958  0.00  0.00    +0.000 OA
BRANCH  31  32
ATOM     32  C   UNL     1       2.862   2.629  20.893  0.00  0.00    +0.000 C 
ATOM     33  C   UNL     1       4.168   2.333  20.213  0.00  0.00    +0.000 C 
ATOM     34  O   UNL     1       2.670   2.483  22.089  0.00  0.00    +0.000 OA
ENDBRANCH  31  32
ENDBRANCH  28  31
ENDBRANCH  24  25
ENDBRANCH   7  23
TORSDOF 8
ENDMDL
MODEL 9
REMARK VINA RESULT:      -7.5      4.457     10.470
REMARK  Name = 
REMARK  12 active torsions:
REMARK  status: ('A' for Active; 'I' for Inactive)
REMARK    1  A    between atoms: C_1  and  O_2
REMARK    2  A    between atoms: O_2  and  C_3
REMARK    3  A    between atoms: C_5  and  C_6
REMARK    4  A    between atoms: C_12  and  C_14
REMARK    5  A    between atoms: C_15  and  C_16
REMARK    6  A    between atoms: C_19  and  O_20
REMARK    7  A    between atoms: O_20  and  C_21
REMARK    8  A    between atoms: C_21  and  C_22
REMARK    9  A    between atoms: C_29  and  O_30
REMARK   10  A    between atoms: O_30  and  C_31
REMARK   11  A    between atoms: C_32  and  O_33
REMARK   12  A    between atoms: O_33  and  C_34
REMARK                            x       y       z     vdW  Elec       q    Type
REMARK                         _______ _______ _______ _____ _____    ______ ____
ROOT
ATOM      1  C   UNL     1       2.611  13.401  20.629  0.00  0.00    +0.000 C 
ATOM      2  C   UNL     1       1.302  13.129  20.494  0.00  0.00    +0.000 C 
ATOM      3  C   UNL     1       0.193  14.093  20.229  0.00  0.00    +0.000 C 
ATOM      4  C   UNL     1      -0.632  13.610  19.049  0.00  0.00    +0.000 C 
ATOM      5  C   UNL     1      -1.106  12.193  19.326  0.00  0.00    +0.000 C 
ATOM      6  N   UNL     1       0.010  11.285  19.548  0.00  0.00    +0.000 N 
ATOM      7  C   UNL     1       0.100  10.174  18.695  0.00  0.00    +0.000 C 
ATOM      8  O   UNL     1      -0.683   9.993  17.758  0.00  0.00    +0.000 OA
ATOM      9  C   UNL     1       0.977  11.657  20.486  0.00  0.00    +0.000 C 
ATOM     10  O   UNL     1       1.529  10.898  21.271  0.00  0.00    +0.000 OA
ENDROOT
BRANCH   1  13
ATOM     11  C   UNL     1       5.273  16.043  21.067  0.00  0.00    +0.000 A 
ATOM     12  C   UNL     1       4.352  15.026  21.398  0.00  0.00    +0.000 A 
ATOM     13  C   UNL     1       3.332  14.671  20.515  0.00  0.00    +0.000 A 
ATOM     14  C   UNL     1       3.153  15.427  19.356  0.00  0.00    +0.000 A 
ATOM     15  C   UNL     1       4.046  16.451  19.019  0.00  0.00    +0.000 A 
ATOM     16  C   UNL     1       5.124  16.775  19.868  0.00  0.00    +0.000 A 
BRANCH  11  18
ATOM     17  C   UNL     1       6.014  17.236  22.986  0.00  0.00    +0.000 C 
ATOM     18  O   UNL     1       6.312  16.351  21.908  0.00  0.00    +0.000 OA
ENDBRANCH  11  18
BRANCH  15  19
ATOM     19  O   UNL     1       3.739  17.062  17.826  0.00  0.00    +0.000 OA
ATOM     20  C   UNL     1       2.358  17.078  17.474  0.00  0.00    +0.000 C 
ENDBRANCH  15  19
BRANCH  16  21
ATOM     21  O   UNL     1       5.904  17.820  19.445  0.00  0.00    +0.000 OA
ATOM     22  C   UNL     1       7.150  17.581  18.809  0.00  0.00    +0.000 C 
ENDBRANCH  16  21
ENDBRANCH   1  13
BRANCH   7  23
ATOM     23  C   UNL     1       1.197   9.190  18.919  0.00  0.00    +0.000 C 
ATOM     24  C   UNL     1       1.892   8.688  17.884  0.00  0.00    +0.000 C 
BRANCH  24  25
ATOM     25  C   UNL     1       2.847   7.576  18.033  0.00  0.00    +0.000 A 
ATOM     26  C   UNL     1       3.892   7.406  17.117  0.00  0.00    +0.000 A 
ATOM     27  C   UNL     1       4.858   6.419  17.309  0.00  0.00    +0.000 A 
ATOM     28  C   UNL     1       4.795   5.604  18.437  0.00  0.00    +0.000 A 
ATOM     29  C   UNL     1       3.749   5.736  19.346  0.00  0.00    +0.000 A 
ATOM     30  C   UNL     1       2.784   6.734  19.151  0.00  0.00    +0.000 A 
BRANCH  28  31
ATOM     31  O   UNL     1       5.829   4.649  18.547  0.00  0.00    +0.000 OA
BRANCH  31  32
ATOM     32  C   UNL     1       7.146   4.936  18.182  0.00  0.00    +0.000 C 
ATOM     33  C   UNL     1       7.779   5.775  19.256  0.00  0.00    +0.000 C 
ATOM     34  O   UNL     1       7.741   4.529  17.198  0.00  0.00    +0.000 OA
ENDBRANCH  31  32
ENDBRANCH  28  31
ENDBRANCH  24  25
ENDBRANCH   7  23
TORSDOF 8
ENDMDL
