MODEL 1
REMARK VINA RESULT:      -8.3      0.000      0.000
REMARK  Name = 
REMARK  4 active torsions:
REMARK  status: ('A' for Active; 'I' for Inactive)
REMARK    1  A    between atoms: C_2  and  C_3
REMARK    2  A    between atoms: C_3  and  C_4
REMARK    3  A    between atoms: C_4  and  N_5
REMARK    4  A    between atoms: N_17  and  C_18
REMARK                            x       y       z     vdW  Elec       q    Type
REMARK                         _______ _______ _______ _____ _____    ______ ____
ROOT
ATOM      1  C   UNL     1       8.563   8.331  18.505  0.00  0.00    +0.000 C 
ENDROOT
BRANCH   1   3
ATOM      2  O   UNL     1       8.322  10.633  17.974  0.00  0.00    +0.000 OA
ATOM      3  C   UNL     1       8.808   9.805  18.733  0.00  0.00    +0.000 C 
ATOM      4  N   UNL     1       9.614  10.188  19.765  0.00  0.00    +0.000 N 
ATOM      5  H   UNL     1      10.120   9.442  20.268  0.00  0.00    +0.000 HD
BRANCH   4   6
ATOM      6  C   UNL     1       9.926  11.542  20.109  0.00  0.00    +0.000 A 
ATOM      7  C   UNL     1       9.345  12.197  21.229  0.00  0.00    +0.000 A 
ATOM      8 CL   UNL     1       8.243  11.391  22.344  0.00  0.00    +0.000 Cl
ATOM      9  C   UNL     1       9.705  13.517  21.531  0.00  0.00    +0.000 A 
ATOM     10  C   UNL     1      10.624  14.200  20.735  0.00  0.00    +0.000 A 
ATOM     11  C   UNL     1      11.209  13.565  19.643  0.00  0.00    +0.000 A 
ATOM     12  C   UNL     1      10.878  12.241  19.336  0.00  0.00    +0.000 A 
ATOM     13 CL   UNL     1      11.645  11.498  17.936  0.00  0.00    +0.000 Cl
ENDBRANCH   4   6
ENDBRANCH   1   3
BRANCH   1  14
ATOM     14  C   UNL     1       7.440   7.986  17.494  0.00  0.00    +0.000 C 
BRANCH  14  15
ATOM     15  N   UNL     1       7.458   6.575  17.015  0.00  0.00    +0.000 NA
ATOM     16  C   UNL     1       7.464   5.543  18.084  0.00  0.00    +0.000 C 
ATOM     17  C   UNL     1       6.148   5.544  18.873  0.00  0.00    +0.000 C 
ATOM     18  N   UNL     1       5.029   5.351  17.962  0.00  0.00    +0.000 N 
ATOM     19  C   UNL     1       4.008   4.379  18.268  0.00  0.00    +0.000 A 
ATOM     20  C   UNL     1       2.707   4.463  17.722  0.00  0.00    +0.000 A 
ATOM     21  C   UNL     1       1.728   3.548  18.123  0.00  0.00    +0.000 A 
ATOM     22  C   UNL     1       2.038   2.552  19.044  0.00  0.00    +0.000 A 
ATOM     23  C   UNL     1       3.331   2.484  19.562  0.00  0.00    +0.000 A 
ATOM     24  N   UNL     1       4.265   3.393  19.176  0.00  0.00    +0.000 NA
ATOM     25  C   UNL     1       4.968   6.256  16.810  0.00  0.00    +0.000 C 
ATOM     26  C   UNL     1       6.332   6.291  16.088  0.00  0.00    +0.000 C 
ENDBRANCH  14  15
ENDBRANCH   1  14
TORSDOF 4
ENDMDL
MODEL 2
REMARK VINA RESULT:      -8.3      0.099      1.852
REMARK  Name = 
REMARK  4 active torsions:
REMARK  status: ('A' for Active; 'I' for Inactive)
REMARK    1  A    between atoms: C_2  and  C_3
REMARK    2  A    between atoms: C_3  and  C_4
REMARK    3  A    between atoms: C_4  and  N_5
REMARK    4  A    between atoms: N_17  and  C_18
REMARK                            x       y       z     vdW  Elec       q    Type
REMARK                         _______ _______ _______ _____ _____    ______ ____
ROOT
ATOM      1  C   UNL     1       8.522   8.334  18.576  0.00  0.00    +0.000 C 
ENDROOT
BRANCH   1   3
ATOM      2  O   UNL     1       8.422  10.626  17.964  0.00  0.00    +0.000 OA
ATOM      3  C   UNL     1       8.843   9.800  18.761  0.00  0.00    +0.000 C 
ATOM      4  N   UNL     1       9.644  10.172  19.801  0.00  0.00    +0.000 N 
ATOM      5  H   UNL     1      10.096   9.417  20.341  0.00  0.00    +0.000 HD
BRANCH   4   6
ATOM      6  C   UNL     1      10.022  11.519  20.109  0.00  0.00    +0.000 A 
ATOM      7  C   UNL     1      10.953  12.248  19.321  0.00  0.00    +0.000 A 
ATOM      8 CL   UNL     1      11.678  11.601  17.852  0.00  0.00    +0.000 Cl
ATOM      9  C   UNL     1      11.267  13.571  19.659  0.00  0.00    +0.000 A 
ATOM     10  C   UNL     1      10.682  14.177  20.770  0.00  0.00    +0.000 A 
ATOM     11  C   UNL     1       9.759  13.477  21.542  0.00  0.00    +0.000 A 
ATOM     12  C   UNL     1       9.416  12.162  21.211  0.00  0.00    +0.000 A 
ATOM     13 CL   UNL     1       8.250  11.326  22.232  0.00  0.00    +0.000 Cl
ENDBRANCH   4   6
ENDBRANCH   1   3
BRANCH   1  14
ATOM     14  C   UNL     1       7.433   8.014  17.521  0.00  0.00    +0.000 C 
BRANCH  14  15
ATOM     15  N   UNL     1       7.471   6.617  17.004  0.00  0.00    +0.000 NA
ATOM     16  C   UNL     1       7.516   5.557  18.044  0.00  0.00    +0.000 C 
ATOM     17  C   UNL     1       6.215   5.510  18.855  0.00  0.00    +0.000 C 
ATOM     18  N   UNL     1       5.084   5.319  17.958  0.00  0.00    +0.000 N 
ATOM     19  C   UNL     1       4.089   4.318  18.256  0.00  0.00    +0.000 A 
ATOM     20  C   UNL     1       2.777   4.389  17.735  0.00  0.00    +0.000 A 
ATOM     21  C   UNL     1       1.823   3.444  18.127  0.00  0.00    +0.000 A 
ATOM     22  C   UNL     1       2.170   2.430  19.017  0.00  0.00    +0.000 A 
ATOM     23  C   UNL     1       3.473   2.376  19.510  0.00  0.00    +0.000 A 
ATOM     24  N   UNL     1       4.381   3.314  19.133  0.00  0.00    +0.000 NA
ATOM     25  C   UNL     1       4.984   6.252  16.833  0.00  0.00    +0.000 C 
ATOM     26  C   UNL     1       6.334   6.334  16.088  0.00  0.00    +0.000 C 
ENDBRANCH  14  15
ENDBRANCH   1  14
TORSDOF 4
ENDMDL
MODEL 3
REMARK VINA RESULT:      -7.7      1.581      2.000
REMARK  Name = 
REMARK  4 active torsions:
REMARK  status: ('A' for Active; 'I' for Inactive)
REMARK    1  A    between atoms: C_2  and  C_3
REMARK    2  A    between atoms: C_3  and  C_4
REMARK    3  A    between atoms: C_4  and  N_5
REMARK    4  A    between atoms: N_17  and  C_18
REMARK                            x       y       z     vdW  Elec       q    Type
REMARK                         _______ _______ _______ _____ _____    ______ ____
ROOT
ATOM      1  C   UNL     1       8.460   9.052  17.666  0.00  0.00    +0.000 C 
ENDROOT
BRANCH   1   3
ATOM      2  O   UNL     1       8.964  10.184  19.692  0.00  0.00    +0.000 OA
ATOM      3  C   UNL     1       8.913  10.249  18.471  0.00  0.00    +0.000 C 
ATOM      4  N   UNL     1       9.215  11.407  17.817  0.00  0.00    +0.000 N 
ATOM      5  H   UNL     1       8.999  11.447  16.808  0.00  0.00    +0.000 HD
BRANCH   4   6
ATOM      6  C   UNL     1       9.667  12.613  18.441  0.00  0.00    +0.000 A 
ATOM      7  C   UNL     1      10.935  12.714  19.076  0.00  0.00    +0.000 A 
ATOM      8 CL   UNL     1      12.103  11.395  19.096  0.00  0.00    +0.000 Cl
ATOM      9  C   UNL     1      11.334  13.928  19.651  0.00  0.00    +0.000 A 
ATOM     10  C   UNL     1      10.491  15.039  19.616  0.00  0.00    +0.000 A 
ATOM     11  C   UNL     1       9.252  14.956  18.986  0.00  0.00    +0.000 A 
ATOM     12  C   UNL     1       8.843  13.759  18.388  0.00  0.00    +0.000 A 
ATOM     13 CL   UNL     1       7.261  13.716  17.617  0.00  0.00    +0.000 Cl
ENDBRANCH   4   6
ENDBRANCH   1   3
BRANCH   1  14
ATOM     14  C   UNL     1       8.058   7.803  18.490  0.00  0.00    +0.000 C 
BRANCH  14  15
ATOM     15  N   UNL     1       7.870   6.566  17.680  0.00  0.00    +0.000 NA
ATOM     16  C   UNL     1       7.658   5.321  18.462  0.00  0.00    +0.000 C 
ATOM     17  C   UNL     1       6.323   5.354  19.217  0.00  0.00    +0.000 C 
ATOM     18  N   UNL     1       5.233   5.578  18.278  0.00  0.00    +0.000 N 
ATOM     19  C   UNL     1       4.055   4.747  18.329  0.00  0.00    +0.000 A 
ATOM     20  C   UNL     1       2.813   5.178  17.810  0.00  0.00    +0.000 A 
ATOM     21  C   UNL     1       1.680   4.371  17.966  0.00  0.00    +0.000 A 
ATOM     22  C   UNL     1       1.780   3.145  18.618  0.00  0.00    +0.000 A 
ATOM     23  C   UNL     1       3.018   2.738  19.113  0.00  0.00    +0.000 A 
ATOM     24  N   UNL     1       4.105   3.543  18.969  0.00  0.00    +0.000 NA
ATOM     25  C   UNL     1       5.374   6.730  17.384  0.00  0.00    +0.000 C 
ATOM     26  C   UNL     1       6.760   6.708  16.702  0.00  0.00    +0.000 C 
ENDBRANCH  14  15
ENDBRANCH   1  14
TORSDOF 4
ENDMDL
MODEL 4
REMARK VINA RESULT:      -7.5      5.952      7.361
REMARK  Name = 
REMARK  4 active torsions:
REMARK  status: ('A' for Active; 'I' for Inactive)
REMARK    1  A    between atoms: C_2  and  C_3
REMARK    2  A    between atoms: C_3  and  C_4
REMARK    3  A    between atoms: C_4  and  N_5
REMARK    4  A    between atoms: N_17  and  C_18
REMARK                            x       y       z     vdW  Elec       q    Type
REMARK                         _______ _______ _______ _____ _____    ______ ____
ROOT
ATOM      1  C   UNL     1       2.509   4.208  20.850  0.00  0.00    +0.000 C 
ENDROOT
BRANCH   1   3
ATOM      2  O   UNL     1       1.131   5.204  19.192  0.00  0.00    +0.000 OA
ATOM      3  C   UNL     1       1.949   5.385  20.083  0.00  0.00    +0.000 C 
ATOM      4  N   UNL     1       2.405   6.637  20.373  0.00  0.00    +0.000 N 
ATOM      5  H   UNL     1       3.207   6.708  21.020  0.00  0.00    +0.000 HD
BRANCH   4   6
ATOM      6  C   UNL     1       1.960   7.843  19.743  0.00  0.00    +0.000 A 
ATOM      7  C   UNL     1       1.090   8.764  20.388  0.00  0.00    +0.000 A 
ATOM      8 CL   UNL     1       0.530   8.552  22.045  0.00  0.00    +0.000 Cl
ATOM      9  C   UNL     1       0.705   9.939  19.730  0.00  0.00    +0.000 A 
ATOM     10  C   UNL     1       1.162  10.212  18.441  0.00  0.00    +0.000 A 
ATOM     11  C   UNL     1       2.025   9.324  17.804  0.00  0.00    +0.000 A 
ATOM     12  C   UNL     1       2.437   8.154  18.451  0.00  0.00    +0.000 A 
ATOM     13 CL   UNL     1       3.521   7.067  17.588  0.00  0.00    +0.000 Cl
ENDBRANCH   4   6
ENDBRANCH   1   3
BRANCH   1  14
ATOM     14  C   UNL     1       2.075   2.809  20.342  0.00  0.00    +0.000 C 
BRANCH  14  15
ATOM     15  N   UNL     1       3.188   1.983  19.794  0.00  0.00    +0.000 NA
ATOM     16  C   UNL     1       3.114   1.707  18.336  0.00  0.00    +0.000 C 
ATOM     17  C   UNL     1       3.297   2.987  17.512  0.00  0.00    +0.000 C 
ATOM     18  N   UNL     1       4.560   3.621  17.864  0.00  0.00    +0.000 N 
ATOM     19  C   UNL     1       5.460   4.060  16.826  0.00  0.00    +0.000 A 
ATOM     20  C   UNL     1       6.427   5.066  17.051  0.00  0.00    +0.000 A 
ATOM     21  C   UNL     1       7.214   5.521  15.987  0.00  0.00    +0.000 A 
ATOM     22  C   UNL     1       7.054   4.975  14.717  0.00  0.00    +0.000 A 
ATOM     23  C   UNL     1       6.100   3.977  14.522  0.00  0.00    +0.000 A 
ATOM     24  N   UNL     1       5.331   3.561  15.563  0.00  0.00    +0.000 NA
ATOM     25  C   UNL     1       4.789   3.861  19.292  0.00  0.00    +0.000 C 
ATOM     26  C   UNL     1       4.518   2.572  20.098  0.00  0.00    +0.000 C 
ENDBRANCH  14  15
ENDBRANCH   1  14
TORSDOF 4
ENDMDL
MODEL 5
REMARK VINA RESULT:      -7.5      5.907      7.585
REMARK  Name = 
REMARK  4 active torsions:
REMARK  status: ('A' for Active; 'I' for Inactive)
REMARK    1  A    between atoms: C_2  and  C_3
REMARK    2  A    between atoms: C_3  and  C_4
REMARK    3  A    between atoms: C_4  and  N_5
REMARK    4  A    between atoms: N_17  and  C_18
REMARK                            x       y       z     vdW  Elec       q    Type
REMARK                         _______ _______ _______ _____ _____    ______ ____
ROOT
ATOM      1  C   UNL     1       2.394   4.291  20.832  0.00  0.00    +0.000 C 
ENDROOT
BRANCH   1   3
ATOM      2  O   UNL     1       1.227   5.286  19.019  0.00  0.00    +0.000 OA
ATOM      3  C   UNL     1       1.921   5.468  20.010  0.00  0.00    +0.000 C 
ATOM      4  N   UNL     1       2.319   6.723  20.367  0.00  0.00    +0.000 N 
ATOM      5  H   UNL     1       3.030   6.798  21.112  0.00  0.00    +0.000 HD
BRANCH   4   6
ATOM      6  C   UNL     1       1.942   7.930  19.695  0.00  0.00    +0.000 A 
ATOM      7  C   UNL     1       2.466   8.290  18.423  0.00  0.00    +0.000 A 
ATOM      8 CL   UNL     1       3.570   7.259  17.516  0.00  0.00    +0.000 Cl
ATOM      9  C   UNL     1       2.043   9.473  17.803  0.00  0.00    +0.000 A 
ATOM     10  C   UNL     1       1.119  10.309  18.429  0.00  0.00    +0.000 A 
ATOM     11  C   UNL     1       0.589   9.962  19.668  0.00  0.00    +0.000 A 
ATOM     12  C   UNL     1       0.983   8.774  20.296  0.00  0.00    +0.000 A 
ATOM     13 CL   UNL     1       0.285   8.396  21.867  0.00  0.00    +0.000 Cl
ENDBRANCH   4   6
ENDBRANCH   1   3
BRANCH   1  14
ATOM     14  C   UNL     1       1.963   2.895  20.315  0.00  0.00    +0.000 C 
BRANCH  14  15
ATOM     15  N   UNL     1       3.083   2.058  19.800  0.00  0.00    +0.000 NA
ATOM     16  C   UNL     1       3.037   1.762  18.345  0.00  0.00    +0.000 C 
ATOM     17  C   UNL     1       3.241   3.030  17.508  0.00  0.00    +0.000 C 
ATOM     18  N   UNL     1       4.499   3.666  17.876  0.00  0.00    +0.000 N 
ATOM     19  C   UNL     1       5.420   4.088  16.850  0.00  0.00    +0.000 A 
ATOM     20  C   UNL     1       6.386   5.094  17.080  0.00  0.00    +0.000 A 
ATOM     21  C   UNL     1       7.195   5.532  16.026  0.00  0.00    +0.000 A 
ATOM     22  C   UNL     1       7.058   4.969  14.761  0.00  0.00    +0.000 A 
ATOM     23  C   UNL     1       6.105   3.971  14.560  0.00  0.00    +0.000 A 
ATOM     24  N   UNL     1       5.314   3.571  15.592  0.00  0.00    +0.000 NA
ATOM     25  C   UNL     1       4.700   3.925  19.304  0.00  0.00    +0.000 C 
ATOM     26  C   UNL     1       4.408   2.648  20.123  0.00  0.00    +0.000 C 
ENDBRANCH  14  15
ENDBRANCH   1  14
TORSDOF 4
ENDMDL
MODEL 6
REMARK VINA RESULT:      -7.5      1.057      1.059
REMARK  Name = 
REMARK  4 active torsions:
REMARK  status: ('A' for Active; 'I' for Inactive)
REMARK    1  A    between atoms: C_2  and  C_3
REMARK    2  A    between atoms: C_3  and  C_4
REMARK    3  A    between atoms: C_4  and  N_5
REMARK    4  A    between atoms: N_17  and  C_18
REMARK                            x       y       z     vdW  Elec       q    Type
REMARK                         _______ _______ _______ _____ _____    ______ ____
ROOT
ATOM      1  C   UNL     1       7.913   9.106  17.739  0.00  0.00    +0.000 C 
ENDROOT
BRANCH   1   3
ATOM      2  O   UNL     1       9.572   9.507  19.391  0.00  0.00    +0.000 OA
ATOM      3  C   UNL     1       8.813   9.997  18.566  0.00  0.00    +0.000 C 
ATOM      4  N   UNL     1       8.728  11.349  18.407  0.00  0.00    +0.000 N 
ATOM      5  H   UNL     1       7.960  11.706  17.815  0.00  0.00    +0.000 HD
BRANCH   4   6
ATOM      6  C   UNL     1       9.521  12.313  19.108  0.00  0.00    +0.000 A 
ATOM      7  C   UNL     1       9.362  12.568  20.497  0.00  0.00    +0.000 A 
ATOM      8 CL   UNL     1       8.228  11.676  21.509  0.00  0.00    +0.000 Cl
ATOM      9  C   UNL     1      10.182  13.507  21.134  0.00  0.00    +0.000 A 
ATOM     10  C   UNL     1      11.151  14.206  20.413  0.00  0.00    +0.000 A 
ATOM     11  C   UNL     1      11.325  13.956  19.055  0.00  0.00    +0.000 A 
ATOM     12  C   UNL     1      10.529  13.007  18.403  0.00  0.00    +0.000 A 
ATOM     13 CL   UNL     1      10.792  12.745  16.682  0.00  0.00    +0.000 Cl
ENDBRANCH   4   6
ENDBRANCH   1   3
BRANCH   1  14
ATOM     14  C   UNL     1       7.876   7.615  18.160  0.00  0.00    +0.000 C 
BRANCH  14  15
ATOM     15  N   UNL     1       7.503   6.677  17.064  0.00  0.00    +0.000 NA
ATOM     16  C   UNL     1       7.475   5.240  17.441  0.00  0.00    +0.000 C 
ATOM     17  C   UNL     1       6.353   4.944  18.444  0.00  0.00    +0.000 C 
ATOM     18  N   UNL     1       5.075   5.367  17.890  0.00  0.00    +0.000 N 
ATOM     19  C   UNL     1       3.940   4.479  17.936  0.00  0.00    +0.000 A 
ATOM     20  C   UNL     1       2.612   4.958  17.868  0.00  0.00    +0.000 A 
ATOM     21  C   UNL     1       1.544   4.064  18.009  0.00  0.00    +0.000 A 
ATOM     22  C   UNL     1       1.791   2.707  18.202  0.00  0.00    +0.000 A 
ATOM     23  C   UNL     1       3.110   2.257  18.256  0.00  0.00    +0.000 A 
ATOM     24  N   UNL     1       4.134   3.143  18.136  0.00  0.00    +0.000 NA
ATOM     25  C   UNL     1       5.007   6.745  17.396  0.00  0.00    +0.000 C 
ATOM     26  C   UNL     1       6.196   7.032  16.453  0.00  0.00    +0.000 C 
ENDBRANCH  14  15
ENDBRANCH   1  14
TORSDOF 4
ENDMDL
MODEL 7
REMARK VINA RESULT:      -7.4      1.620      1.710
REMARK  Name = 
REMARK  4 active torsions:
REMARK  status: ('A' for Active; 'I' for Inactive)
REMARK    1  A    between atoms: C_2  and  C_3
REMARK    2  A    between atoms: C_3  and  C_4
REMARK    3  A    between atoms: C_4  and  N_5
REMARK    4  A    between atoms: N_17  and  C_18
REMARK                            x       y       z     vdW  Elec       q    Type
REMARK                         _______ _______ _______ _____ _____    ______ ____
ROOT
ATOM      1  C   UNL     1       8.387   9.055  17.723  0.00  0.00    +0.000 C 
ENDROOT
BRANCH   1   3
ATOM      2  O   UNL     1       8.851  10.277  19.706  0.00  0.00    +0.000 OA
ATOM      3  C   UNL     1       8.845  10.280  18.483  0.00  0.00    +0.000 C 
ATOM      4  N   UNL     1       9.203  11.394  17.783  0.00  0.00    +0.000 N 
ATOM      5  H   UNL     1       9.025  11.388  16.765  0.00  0.00    +0.000 HD
BRANCH   4   6
ATOM      6  C   UNL     1       9.668  12.618  18.362  0.00  0.00    +0.000 A 
ATOM      7  C   UNL     1       8.864  13.789  18.417  0.00  0.00    +0.000 A 
ATOM      8 CL   UNL     1       7.197  13.834  17.846  0.00  0.00    +0.000 Cl
ATOM      9  C   UNL     1       9.364  14.953  19.016  0.00  0.00    +0.000 A 
ATOM     10  C   UNL     1      10.651  14.976  19.552  0.00  0.00    +0.000 A 
ATOM     11  C   UNL     1      11.443  13.832  19.516  0.00  0.00    +0.000 A 
ATOM     12  C   UNL     1      10.956  12.654  18.940  0.00  0.00    +0.000 A 
ATOM     13 CL   UNL     1      12.011  11.244  18.916  0.00  0.00    +0.000 Cl
ENDBRANCH   4   6
ENDBRANCH   1   3
BRANCH   1  14
ATOM     14  C   UNL     1       8.141   7.788  18.580  0.00  0.00    +0.000 C 
BRANCH  14  15
ATOM     15  N   UNL     1       7.956   6.538  17.789  0.00  0.00    +0.000 NA
ATOM     16  C   UNL     1       7.690   5.315  18.589  0.00  0.00    +0.000 C 
ATOM     17  C   UNL     1       6.331   5.391  19.295  0.00  0.00    +0.000 C 
ATOM     18  N   UNL     1       5.279   5.617  18.313  0.00  0.00    +0.000 N 
ATOM     19  C   UNL     1       4.083   4.811  18.340  0.00  0.00    +0.000 A 
ATOM     20  C   UNL     1       2.869   5.256  17.769  0.00  0.00    +0.000 A 
ATOM     21  C   UNL     1       1.714   4.476  17.901  0.00  0.00    +0.000 A 
ATOM     22  C   UNL     1       1.766   3.262  18.581  0.00  0.00    +0.000 A 
ATOM     23  C   UNL     1       2.977   2.841  19.128  0.00  0.00    +0.000 A 
ATOM     24  N   UNL     1       4.085   3.620  19.006  0.00  0.00    +0.000 NA
ATOM     25  C   UNL     1       5.476   6.747  17.401  0.00  0.00    +0.000 C 
ATOM     26  C   UNL     1       6.884   6.682  16.770  0.00  0.00    +0.000 C 
ENDBRANCH  14  15
ENDBRANCH   1  14
TORSDOF 4
ENDMDL
MODEL 8
REMARK VINA RESULT:      -7.2      1.088      2.129
REMARK  Name = 
REMARK  4 active torsions:
REMARK  status: ('A' for Active; 'I' for Inactive)
REMARK    1  A    between atoms: C_2  and  C_3
REMARK    2  A    between atoms: C_3  and  C_4
REMARK    3  A    between atoms: C_4  and  N_5
REMARK    4  A    between atoms: N_17  and  C_18
REMARK                            x       y       z     vdW  Elec       q    Type
REMARK                         _______ _______ _______ _____ _____    ______ ____
ROOT
ATOM      1  C   UNL     1       7.851   9.096  17.779  0.00  0.00    +0.000 C 
ENDROOT
BRANCH   1   3
ATOM      2  O   UNL     1       9.594   9.484  19.345  0.00  0.00    +0.000 OA
ATOM      3  C   UNL     1       8.809   9.979  18.548  0.00  0.00    +0.000 C 
ATOM      4  N   UNL     1       8.747  11.330  18.371  0.00  0.00    +0.000 N 
ATOM      5  H   UNL     1       7.960  11.695  17.810  0.00  0.00    +0.000 HD
BRANCH   4   6
ATOM      6  C   UNL     1       9.594  12.286  19.017  0.00  0.00    +0.000 A 
ATOM      7  C   UNL     1      10.607  13.000  18.322  0.00  0.00    +0.000 A 
ATOM      8 CL   UNL     1      10.875  12.836  16.588  0.00  0.00    +0.000 Cl
ATOM      9  C   UNL     1      11.391  13.941  19.002  0.00  0.00    +0.000 A 
ATOM     10  C   UNL     1      11.193  14.177  20.362  0.00  0.00    +0.000 A 
ATOM     11  C   UNL     1      10.196  13.493  21.051  0.00  0.00    +0.000 A 
ATOM     12  C   UNL     1       9.388  12.563  20.387  0.00  0.00    +0.000 A 
ATOM     13 CL   UNL     1       8.151  11.724  21.317  0.00  0.00    +0.000 Cl
ENDBRANCH   4   6
ENDBRANCH   1   3
BRANCH   1  14
ATOM     14  C   UNL     1       7.886   7.591  18.145  0.00  0.00    +0.000 C 
BRANCH  14  15
ATOM     15  N   UNL     1       7.489   6.680  17.035  0.00  0.00    +0.000 NA
ATOM     16  C   UNL     1       7.466   5.235  17.378  0.00  0.00    +0.000 C 
ATOM     17  C   UNL     1       6.362   4.917  18.395  0.00  0.00    +0.000 C 
ATOM     18  N   UNL     1       5.074   5.356  17.875  0.00  0.00    +0.000 N 
ATOM     19  C   UNL     1       3.938   4.468  17.922  0.00  0.00    +0.000 A 
ATOM     20  C   UNL     1       2.610   4.951  17.891  0.00  0.00    +0.000 A 
ATOM     21  C   UNL     1       1.544   4.056  18.031  0.00  0.00    +0.000 A 
ATOM     22  C   UNL     1       1.791   2.695  18.187  0.00  0.00    +0.000 A 
ATOM     23  C   UNL     1       3.109   2.241  18.205  0.00  0.00    +0.000 A 
ATOM     24  N   UNL     1       4.134   3.128  18.087  0.00  0.00    +0.000 NA
ATOM     25  C   UNL     1       5.000   6.745  17.415  0.00  0.00    +0.000 C 
ATOM     26  C   UNL     1       6.172   7.051  16.457  0.00  0.00    +0.000 C 
ENDBRANCH  14  15
ENDBRANCH   1  14
TORSDOF 4
ENDMDL
MODEL 9
REMARK VINA RESULT:      -7.0      1.638      1.871
REMARK  Name = 
REMARK  4 active torsions:
REMARK  status: ('A' for Active; 'I' for Inactive)
REMARK    1  A    between atoms: C_2  and  C_3
REMARK    2  A    between atoms: C_3  and  C_4
REMARK    3  A    between atoms: C_4  and  N_5
REMARK    4  A    between atoms: N_17  and  C_18
REMARK                            x       y       z     vdW  Elec       q    Type
REMARK                         _______ _______ _______ _____ _____    ______ ____
ROOT
ATOM      1  C   UNL     1       8.483   8.951  18.790  0.00  0.00    +0.000 C 
ENDROOT
BRANCH   1   3
ATOM      2  O   UNL     1       9.737  10.335  17.323  0.00  0.00    +0.000 OA
ATOM      3  C   UNL     1       9.103  10.264  18.367  0.00  0.00    +0.000 C 
ATOM      4  N   UNL     1       8.982  11.345  19.190  0.00  0.00    +0.000 N 
ATOM      5  H   UNL     1       8.576  11.181  20.126  0.00  0.00    +0.000 HD
BRANCH   4   6
ATOM      6  C   UNL     1       9.503  12.650  18.919  0.00  0.00    +0.000 A 
ATOM      7  C   UNL     1       8.818  13.589  18.100  0.00  0.00    +0.000 A 
ATOM      8 CL   UNL     1       7.233  13.272  17.399  0.00  0.00    +0.000 Cl
ATOM      9  C   UNL     1       9.366  14.861  17.888  0.00  0.00    +0.000 A 
ATOM     10  C   UNL     1      10.586  15.212  18.466  0.00  0.00    +0.000 A 
ATOM     11  C   UNL     1      11.260  14.306  19.279  0.00  0.00    +0.000 A 
ATOM     12  C   UNL     1      10.720  13.037  19.520  0.00  0.00    +0.000 A 
ATOM     13 CL   UNL     1      11.626  11.933  20.550  0.00  0.00    +0.000 Cl
ENDBRANCH   4   6
ENDBRANCH   1   3
BRANCH   1  14
ATOM     14  C   UNL     1       7.604   8.250  17.723  0.00  0.00    +0.000 C 
BRANCH  14  15
ATOM     15  N   UNL     1       7.960   6.825  17.473  0.00  0.00    +0.000 NA
ATOM     16  C   UNL     1       7.889   5.936  18.661  0.00  0.00    +0.000 C 
ATOM     17  C   UNL     1       6.446   5.772  19.153  0.00  0.00    +0.000 C 
ATOM     18  N   UNL     1       5.611   5.270  18.070  0.00  0.00    +0.000 N 
ATOM     19  C   UNL     1       4.720   4.160  18.301  0.00  0.00    +0.000 A 
ATOM     20  C   UNL     1       3.583   3.933  17.493  0.00  0.00    +0.000 A 
ATOM     21  C   UNL     1       2.700   2.896  17.815  0.00  0.00    +0.000 A 
ATOM     22  C   UNL     1       2.949   2.085  18.919  0.00  0.00    +0.000 A 
ATOM     23  C   UNL     1       4.082   2.323  19.696  0.00  0.00    +0.000 A 
ATOM     24  N   UNL     1       4.919   3.347  19.379  0.00  0.00    +0.000 NA
ATOM     25  C   UNL     1       5.669   6.015  16.809  0.00  0.00    +0.000 C 
ATOM     26  C   UNL     1       7.139   6.231  16.386  0.00  0.00    +0.000 C 
ENDBRANCH  14  15
ENDBRANCH   1  14
TORSDOF 4
ENDMDL
