MODEL 1
REMARK VINA RESULT:      -8.2      0.000      0.000
REMARK  Name = 
REMARK  7 active torsions:
REMARK  status: ('A' for Active; 'I' for Inactive)
REMARK    1  A    between atoms: N_1  and  S_2
REMARK    2  A    between atoms: S_2  and  C_5
REMARK    3  A    between atoms: C_7  and  N_8
REMARK    4  A    between atoms: C_9  and  C_11
REMARK    5  A    between atoms: C_13  and  C_14
REMARK    6  A    between atoms: C_14  and  C_15
REMARK    7  A    between atoms: C_20  and  N_21
REMARK                            x       y       z     vdW  Elec       q    Type
REMARK                         _______ _______ _______ _____ _____    ______ ____
ROOT
ATOM      1  C   UNL     1       4.532   6.297  18.102  0.00  0.00    +0.000 A 
ATOM      2  C   UNL     1       5.508   7.267  17.794  0.00  0.00    +0.000 A 
ATOM      3  C   UNL     1       6.835   6.898  17.634  0.00  0.00    +0.000 A 
ATOM      4  C   UNL     1       7.102   5.541  17.739  0.00  0.00    +0.000 A 
ATOM      5  N   UNL     1       6.178   4.587  18.008  0.00  0.00    +0.000 NA
ATOM      6  C   UNL     1       4.880   4.939  18.202  0.00  0.00    +0.000 A 
ENDROOT
BRANCH   6   7
ATOM      7  N   UNL     1       4.042   3.885  18.544  0.00  0.00    +0.000 N 
ATOM      8  C   UNL     1       3.680   2.830  17.606  0.00  0.00    +0.000 C 
ATOM      9  C   UNL     1       2.193   2.474  17.688  0.00  0.00    +0.000 C 
ATOM     10  C   UNL     1       1.851   1.701  18.955  0.00  0.00    +0.000 C 
ATOM     11  C   UNL     1       1.580   2.573  20.170  0.00  0.00    +0.000 C 
ATOM     12  F   UNL     1       1.689   1.777  21.275  0.00  0.00    +0.000 F 
ATOM     13  F   UNL     1       0.270   2.960  20.136  0.00  0.00    +0.000 F 
ATOM     14  C   UNL     1       2.424   3.815  20.383  0.00  0.00    +0.000 C 
ATOM     15  C   UNL     1       3.879   3.628  19.982  0.00  0.00    +0.000 C 
ENDBRANCH   6   7
BRANCH   1  17
ATOM     16  N   UNL     1       3.020   8.119  18.580  0.00  0.00    +0.000 N 
ATOM     17  C   UNL     1       3.142   6.787  18.199  0.00  0.00    +0.000 C 
ATOM     18  O   UNL     1       2.220   6.031  17.924  0.00  0.00    +0.000 OA
ATOM     19  H   UNL     1       3.861   8.683  18.609  0.00  0.00    +0.000 HD
BRANCH  16  22
ATOM     20  C   UNL     1       0.187   9.531  20.459  0.00  0.00    +0.000 A 
ATOM     21  C   UNL     1       1.364   8.854  20.233  0.00  0.00    +0.000 A 
ATOM     22  C   UNL     1       1.815   8.763  18.923  0.00  0.00    +0.000 A 
ATOM     23  C   UNL     1       1.073   9.366  17.903  0.00  0.00    +0.000 A 
ATOM     24  C   UNL     1      -0.105  10.021  18.234  0.00  0.00    +0.000 A 
ATOM     25  N   UNL     1      -0.568  10.134  19.496  0.00  0.00    +0.000 NA
BRANCH  20  26
ATOM     26  S   UNL     1      -0.454   9.689  22.112  0.00  0.00    +0.000 S 
ATOM     27  O   UNL     1      -1.055   8.441  22.520  0.00  0.00    +0.000 OA
ATOM     28  O   UNL     1      -1.153  10.950  22.239  0.00  0.00    +0.000 OA
BRANCH  26  29
ATOM     29  N   UNL     1       0.940   9.828  23.055  0.00  0.00    +0.000 NA
ATOM     30  H   UNL     1       0.880  10.679  23.611  0.00  0.00    +0.000 HD
ATOM     31  H   UNL     1       1.759   9.762  22.456  0.00  0.00    +0.000 HD
ENDBRANCH  26  29
ENDBRANCH  20  26
ENDBRANCH  16  22
ENDBRANCH   1  17
BRANCH   3  32
ATOM     32  C   UNL     1       7.933   7.845  17.236  0.00  0.00    +0.000 C 
BRANCH  32  33
ATOM     33  C   UNL     1       7.950   9.165  17.959  0.00  0.00    +0.000 C 
ATOM     34  C   UNL     1       8.946   9.554  19.028  0.00  0.00    +0.000 C 
ATOM     35  C   UNL     1       9.085  10.112  17.642  0.00  0.00    +0.000 C 
ENDBRANCH  32  33
ENDBRANCH   3  32
TORSDOF 7
ENDMDL
MODEL 2
REMARK VINA RESULT:      -8.2      2.407      3.379
REMARK  Name = 
REMARK  7 active torsions:
REMARK  status: ('A' for Active; 'I' for Inactive)
REMARK    1  A    between atoms: N_1  and  S_2
REMARK    2  A    between atoms: S_2  and  C_5
REMARK    3  A    between atoms: C_7  and  N_8
REMARK    4  A    between atoms: C_9  and  C_11
REMARK    5  A    between atoms: C_13  and  C_14
REMARK    6  A    between atoms: C_14  and  C_15
REMARK    7  A    between atoms: C_20  and  N_21
REMARK                            x       y       z     vdW  Elec       q    Type
REMARK                         _______ _______ _______ _____ _____    ______ ____
ROOT
ATOM      1  C   UNL     1       4.411   5.273  17.328  0.00  0.00    +0.000 A 
ATOM      2  C   UNL     1       5.314   5.570  16.288  0.00  0.00    +0.000 A 
ATOM      3  C   UNL     1       5.717   4.579  15.406  0.00  0.00    +0.000 A 
ATOM      4  C   UNL     1       5.134   3.334  15.588  0.00  0.00    +0.000 A 
ATOM      5  N   UNL     1       4.243   3.030  16.564  0.00  0.00    +0.000 NA
ATOM      6  C   UNL     1       3.867   3.982  17.456  0.00  0.00    +0.000 A 
ENDROOT
BRANCH   6   7
ATOM      7  N   UNL     1       3.009   3.533  18.452  0.00  0.00    +0.000 N 
ATOM      8  C   UNL     1       1.564   3.715  18.388  0.00  0.00    +0.000 C 
ATOM      9  C   UNL     1       0.979   4.147  19.735  0.00  0.00    +0.000 C 
ATOM     10  C   UNL     1       0.964   3.012  20.751  0.00  0.00    +0.000 C 
ATOM     11  C   UNL     1       2.266   2.835  21.516  0.00  0.00    +0.000 C 
ATOM     12  F   UNL     1       2.247   1.584  22.065  0.00  0.00    +0.000 F 
ATOM     13  F   UNL     1       2.259   3.692  22.579  0.00  0.00    +0.000 F 
ATOM     14  C   UNL     1       3.579   3.020  20.779  0.00  0.00    +0.000 C 
ATOM     15  C   UNL     1       3.544   2.500  19.350  0.00  0.00    +0.000 C 
ENDBRANCH   6   7
BRANCH   1  17
ATOM     16  N   UNL     1       2.690   6.826  18.009  0.00  0.00    +0.000 N 
ATOM     17  C   UNL     1       4.006   6.411  18.178  0.00  0.00    +0.000 C 
ATOM     18  O   UNL     1       4.813   6.885  18.967  0.00  0.00    +0.000 OA
ATOM     19  H   UNL     1       2.077   6.241  17.454  0.00  0.00    +0.000 HD
BRANCH  16  22
ATOM     20  C   UNL     1       1.186   9.271  20.313  0.00  0.00    +0.000 A 
ATOM     21  C   UNL     1       1.696   8.069  19.874  0.00  0.00    +0.000 A 
ATOM     22  C   UNL     1       2.125   7.994  18.556  0.00  0.00    +0.000 A 
ATOM     23  C   UNL     1       2.037   9.129  17.744  0.00  0.00    +0.000 A 
ATOM     24  C   UNL     1       1.501  10.292  18.281  0.00  0.00    +0.000 A 
ATOM     25  N   UNL     1       1.081  10.401  19.558  0.00  0.00    +0.000 NA
BRANCH  20  26
ATOM     26  S   UNL     1       0.616   9.443  21.991  0.00  0.00    +0.000 S 
ATOM     27  O   UNL     1       1.733   9.317  22.897  0.00  0.00    +0.000 OA
ATOM     28  O   UNL     1      -0.600   8.676  22.167  0.00  0.00    +0.000 OA
BRANCH  26  29
ATOM     29  N   UNL     1       0.164  11.067  22.081  0.00  0.00    +0.000 NA
ATOM     30  H   UNL     1       0.431  11.435  22.992  0.00  0.00    +0.000 HD
ATOM     31  H   UNL     1      -0.823  11.155  21.854  0.00  0.00    +0.000 HD
ENDBRANCH  26  29
ENDBRANCH  20  26
ENDBRANCH  16  22
ENDBRANCH   1  17
BRANCH   3  32
ATOM     32  C   UNL     1       6.619   4.813  14.226  0.00  0.00    +0.000 C 
BRANCH  32  33
ATOM     33  C   UNL     1       6.698   3.685  13.232  0.00  0.00    +0.000 C 
ATOM     34  C   UNL     1       5.703   3.441  12.119  0.00  0.00    +0.000 C 
ATOM     35  C   UNL     1       7.040   4.045  11.804  0.00  0.00    +0.000 C 
ENDBRANCH  32  33
ENDBRANCH   3  32
TORSDOF 7
ENDMDL
MODEL 3
REMARK VINA RESULT:      -8.0      2.500      3.353
REMARK  Name = 
REMARK  7 active torsions:
REMARK  status: ('A' for Active; 'I' for Inactive)
REMARK    1  A    between atoms: N_1  and  S_2
REMARK    2  A    between atoms: S_2  and  C_5
REMARK    3  A    between atoms: C_7  and  N_8
REMARK    4  A    between atoms: C_9  and  C_11
REMARK    5  A    between atoms: C_13  and  C_14
REMARK    6  A    between atoms: C_14  and  C_15
REMARK    7  A    between atoms: C_20  and  N_21
REMARK                            x       y       z     vdW  Elec       q    Type
REMARK                         _______ _______ _______ _____ _____    ______ ____
ROOT
ATOM      1  C   UNL     1       4.910   5.498  16.817  0.00  0.00    +0.000 A 
ATOM      2  C   UNL     1       5.855   5.719  15.795  0.00  0.00    +0.000 A 
ATOM      3  C   UNL     1       6.323   4.660  15.032  0.00  0.00    +0.000 A 
ATOM      4  C   UNL     1       5.760   3.422  15.309  0.00  0.00    +0.000 A 
ATOM      5  N   UNL     1       4.831   3.188  16.268  0.00  0.00    +0.000 NA
ATOM      6  C   UNL     1       4.391   4.212  17.045  0.00  0.00    +0.000 A 
ENDROOT
BRANCH   6   7
ATOM      7  N   UNL     1       3.497   3.837  18.041  0.00  0.00    +0.000 N 
ATOM      8  C   UNL     1       2.199   3.241  17.750  0.00  0.00    +0.000 C 
ATOM      9  C   UNL     1       1.090   3.822  18.630  0.00  0.00    +0.000 C 
ATOM     10  C   UNL     1       1.181   3.339  20.072  0.00  0.00    +0.000 C 
ATOM     11  C   UNL     1       2.126   4.147  20.947  0.00  0.00    +0.000 C 
ATOM     12  F   UNL     1       2.410   3.388  22.047  0.00  0.00    +0.000 F 
ATOM     13  F   UNL     1       1.446   5.230  21.427  0.00  0.00    +0.000 F 
ATOM     14  C   UNL     1       3.430   4.644  20.353  0.00  0.00    +0.000 C 
ATOM     15  C   UNL     1       4.063   3.657  19.385  0.00  0.00    +0.000 C 
ENDBRANCH   6   7
BRANCH   1  17
ATOM     16  N   UNL     1       3.070   6.739  17.772  0.00  0.00    +0.000 N 
ATOM     17  C   UNL     1       4.440   6.702  17.533  0.00  0.00    +0.000 C 
ATOM     18  O   UNL     1       5.253   7.547  17.882  0.00  0.00    +0.000 OA
ATOM     19  H   UNL     1       2.534   5.900  17.588  0.00  0.00    +0.000 HD
BRANCH  16  22
ATOM     20  C   UNL     1       1.176   9.040  19.932  0.00  0.00    +0.000 A 
ATOM     21  C   UNL     1       1.830   7.892  19.545  0.00  0.00    +0.000 A 
ATOM     22  C   UNL     1       2.357   7.850  18.262  0.00  0.00    +0.000 A 
ATOM     23  C   UNL     1       2.217   8.965  17.431  0.00  0.00    +0.000 A 
ATOM     24  C   UNL     1       1.534  10.074  17.913  0.00  0.00    +0.000 A 
ATOM     25  N   UNL     1       1.015  10.150  19.156  0.00  0.00    +0.000 NA
BRANCH  20  26
ATOM     26  S   UNL     1       0.474   9.167  21.563  0.00  0.00    +0.000 S 
ATOM     27  O   UNL     1      -0.381   8.029  21.811  0.00  0.00    +0.000 OA
ATOM     28  O   UNL     1       0.023  10.524  21.789  0.00  0.00    +0.000 OA
BRANCH  26  29
ATOM     29  N   UNL     1       1.805   8.939  22.575  0.00  0.00    +0.000 NA
ATOM     30  H   UNL     1       1.534   9.153  23.533  0.00  0.00    +0.000 HD
ATOM     31  H   UNL     1       2.593   9.476  22.222  0.00  0.00    +0.000 HD
ENDBRANCH  26  29
ENDBRANCH  20  26
ENDBRANCH  16  22
ENDBRANCH   1  17
BRANCH   3  32
ATOM     32  C   UNL     1       7.273   4.804  13.877  0.00  0.00    +0.000 C 
BRANCH  32  33
ATOM     33  C   UNL     1       6.699   4.501  12.519  0.00  0.00    +0.000 C 
ATOM     34  C   UNL     1       7.011   3.267  11.702  0.00  0.00    +0.000 C 
ATOM     35  C   UNL     1       5.702   3.368  12.428  0.00  0.00    +0.000 C 
ENDBRANCH  32  33
ENDBRANCH   3  32
TORSDOF 7
ENDMDL
MODEL 4
REMARK VINA RESULT:      -7.8      1.466      2.002
REMARK  Name = 
REMARK  7 active torsions:
REMARK  status: ('A' for Active; 'I' for Inactive)
REMARK    1  A    between atoms: N_1  and  S_2
REMARK    2  A    between atoms: S_2  and  C_5
REMARK    3  A    between atoms: C_7  and  N_8
REMARK    4  A    between atoms: C_9  and  C_11
REMARK    5  A    between atoms: C_13  and  C_14
REMARK    6  A    between atoms: C_14  and  C_15
REMARK    7  A    between atoms: C_20  and  N_21
REMARK                            x       y       z     vdW  Elec       q    Type
REMARK                         _______ _______ _______ _____ _____    ______ ____
ROOT
ATOM      1  C   UNL     1       4.416   6.365  18.178  0.00  0.00    +0.000 A 
ATOM      2  C   UNL     1       5.383   7.335  17.845  0.00  0.00    +0.000 A 
ATOM      3  C   UNL     1       6.699   6.963  17.616  0.00  0.00    +0.000 A 
ATOM      4  C   UNL     1       6.962   5.602  17.681  0.00  0.00    +0.000 A 
ATOM      5  N   UNL     1       6.045   4.647  17.974  0.00  0.00    +0.000 NA
ATOM      6  C   UNL     1       4.760   5.002  18.234  0.00  0.00    +0.000 A 
ENDROOT
BRANCH   6   7
ATOM      7  N   UNL     1       3.931   3.947  18.593  0.00  0.00    +0.000 N 
ATOM      8  C   UNL     1       3.613   2.852  17.686  0.00  0.00    +0.000 C 
ATOM      9  C   UNL     1       2.131   2.471  17.742  0.00  0.00    +0.000 C 
ATOM     10  C   UNL     1       1.770   1.738  19.028  0.00  0.00    +0.000 C 
ATOM     11  C   UNL     1       1.450   2.650  20.202  0.00  0.00    +0.000 C 
ATOM     12  F   UNL     1       1.544   1.897  21.338  0.00  0.00    +0.000 F 
ATOM     13  F   UNL     1       0.136   3.010  20.120  0.00  0.00    +0.000 F 
ATOM     14  C   UNL     1       2.267   3.914  20.391  0.00  0.00    +0.000 C 
ATOM     15  C   UNL     1       3.735   3.739  20.035  0.00  0.00    +0.000 C 
ENDBRANCH   6   7
BRANCH   1  17
ATOM     16  N   UNL     1       2.928   8.050  19.062  0.00  0.00    +0.000 N 
ATOM     17  C   UNL     1       3.035   6.860  18.350  0.00  0.00    +0.000 C 
ATOM     18  O   UNL     1       2.109   6.234  17.853  0.00  0.00    +0.000 OA
ATOM     19  H   UNL     1       3.780   8.557  19.269  0.00  0.00    +0.000 HD
BRANCH  16  22
ATOM     20  C   UNL     1      -0.227   9.934  19.262  0.00  0.00    +0.000 A 
ATOM     21  C   UNL     1       0.945   9.453  18.725  0.00  0.00    +0.000 A 
ATOM     22  C   UNL     1       1.725   8.623  19.518  0.00  0.00    +0.000 A 
ATOM     23  C   UNL     1       1.287   8.303  20.807  0.00  0.00    +0.000 A 
ATOM     24  C   UNL     1       0.091   8.845  21.258  0.00  0.00    +0.000 A 
ATOM     25  N   UNL     1      -0.693   9.649  20.511  0.00  0.00    +0.000 NA
BRANCH  20  26
ATOM     26  S   UNL     1      -1.279  11.005  18.303  0.00  0.00    +0.000 S 
ATOM     27  O   UNL     1      -2.283  11.590  19.160  0.00  0.00    +0.000 OA
ATOM     28  O   UNL     1      -1.624  10.351  17.058  0.00  0.00    +0.000 OA
BRANCH  26  29
ATOM     29  N   UNL     1      -0.257  12.284  17.894  0.00  0.00    +0.000 NA
ATOM     30  H   UNL     1      -0.806  13.016  17.444  0.00  0.00    +0.000 HD
ATOM     31  H   UNL     1       0.521  11.932  17.344  0.00  0.00    +0.000 HD
ENDBRANCH  26  29
ENDBRANCH  20  26
ENDBRANCH  16  22
ENDBRANCH   1  17
BRANCH   3  32
ATOM     32  C   UNL     1       7.784   7.911  17.187  0.00  0.00    +0.000 C 
BRANCH  32  33
ATOM     33  C   UNL     1       7.879   9.191  17.973  0.00  0.00    +0.000 C 
ATOM     34  C   UNL     1       8.950   9.502  18.995  0.00  0.00    +0.000 C 
ATOM     35  C   UNL     1       9.016  10.127  17.633  0.00  0.00    +0.000 C 
ENDBRANCH  32  33
ENDBRANCH   3  32
TORSDOF 7
ENDMDL
MODEL 5
REMARK VINA RESULT:      -7.8      2.199      2.726
REMARK  Name = 
REMARK  7 active torsions:
REMARK  status: ('A' for Active; 'I' for Inactive)
REMARK    1  A    between atoms: N_1  and  S_2
REMARK    2  A    between atoms: S_2  and  C_5
REMARK    3  A    between atoms: C_7  and  N_8
REMARK    4  A    between atoms: C_9  and  C_11
REMARK    5  A    between atoms: C_13  and  C_14
REMARK    6  A    between atoms: C_14  and  C_15
REMARK    7  A    between atoms: C_20  and  N_21
REMARK                            x       y       z     vdW  Elec       q    Type
REMARK                         _______ _______ _______ _____ _____    ______ ____
ROOT
ATOM      1  C   UNL     1       3.998   5.349  17.156  0.00  0.00    +0.000 A 
ATOM      2  C   UNL     1       4.903   5.989  16.284  0.00  0.00    +0.000 A 
ATOM      3  C   UNL     1       5.974   5.289  15.750  0.00  0.00    +0.000 A 
ATOM      4  C   UNL     1       6.044   3.944  16.084  0.00  0.00    +0.000 A 
ATOM      5  N   UNL     1       5.173   3.300  16.898  0.00  0.00    +0.000 NA
ATOM      6  C   UNL     1       4.139   3.983  17.456  0.00  0.00    +0.000 A 
ENDROOT
BRANCH   6   7
ATOM      7  N   UNL     1       3.359   3.236  18.330  0.00  0.00    +0.000 N 
ATOM      8  C   UNL     1       2.376   2.262  17.871  0.00  0.00    +0.000 C 
ATOM      9  C   UNL     1       1.070   2.346  18.666  0.00  0.00    +0.000 C 
ATOM     10  C   UNL     1       1.214   1.793  20.077  0.00  0.00    +0.000 C 
ATOM     11  C   UNL     1       1.749   2.790  21.093  0.00  0.00    +0.000 C 
ATOM     12  F   UNL     1       2.195   2.076  22.168  0.00  0.00    +0.000 F 
ATOM     13  F   UNL     1       0.700   3.527  21.563  0.00  0.00    +0.000 F 
ATOM     14  C   UNL     1       2.839   3.755  20.667  0.00  0.00    +0.000 C 
ATOM     15  C   UNL     1       3.848   3.137  19.712  0.00  0.00    +0.000 C 
ENDBRANCH   6   7
BRANCH   1  17
ATOM     16  N   UNL     1       3.163   7.513  17.832  0.00  0.00    +0.000 N 
ATOM     17  C   UNL     1       2.864   6.170  17.626  0.00  0.00    +0.000 C 
ATOM     18  O   UNL     1       1.768   5.647  17.775  0.00  0.00    +0.000 OA
ATOM     19  H   UNL     1       4.060   7.854  17.507  0.00  0.00    +0.000 HD
BRANCH  16  22
ATOM     20  C   UNL     1       1.037   9.282  20.261  0.00  0.00    +0.000 A 
ATOM     21  C   UNL     1       1.835   8.287  19.742  0.00  0.00    +0.000 A 
ATOM     22  C   UNL     1       2.316   8.452  18.451  0.00  0.00    +0.000 A 
ATOM     23  C   UNL     1       1.987   9.613  17.745  0.00  0.00    +0.000 A 
ATOM     24  C   UNL     1       1.170  10.555  18.354  0.00  0.00    +0.000 A 
ATOM     25  N   UNL     1       0.691  10.428  19.609  0.00  0.00    +0.000 NA
BRANCH  20  26
ATOM     26  S   UNL     1       0.383   9.139  21.910  0.00  0.00    +0.000 S 
ATOM     27  O   UNL     1       1.463   9.208  22.866  0.00  0.00    +0.000 OA
ATOM     28  O   UNL     1      -0.603   8.079  21.947  0.00  0.00    +0.000 OA
BRANCH  26  29
ATOM     29  N   UNL     1      -0.470  10.582  22.114  0.00  0.00    +0.000 NA
ATOM     30  H   UNL     1      -1.467  10.391  22.031  0.00  0.00    +0.000 HD
ATOM     31  H   UNL     1      -0.110  11.279  21.468  0.00  0.00    +0.000 HD
ENDBRANCH  26  29
ENDBRANCH  20  26
ENDBRANCH  16  22
ENDBRANCH   1  17
BRANCH   3  32
ATOM     32  C   UNL     1       6.948   5.861  14.758  0.00  0.00    +0.000 C 
BRANCH  32  33
ATOM     33  C   UNL     1       7.533   4.880  13.778  0.00  0.00    +0.000 C 
ATOM     34  C   UNL     1       6.841   4.390  12.526  0.00  0.00    +0.000 C 
ATOM     35  C   UNL     1       7.933   5.414  12.421  0.00  0.00    +0.000 C 
ENDBRANCH  32  33
ENDBRANCH   3  32
TORSDOF 7
ENDMDL
MODEL 6
REMARK VINA RESULT:      -7.7      4.888      9.489
REMARK  Name = 
REMARK  7 active torsions:
REMARK  status: ('A' for Active; 'I' for Inactive)
REMARK    1  A    between atoms: N_1  and  S_2
REMARK    2  A    between atoms: S_2  and  C_5
REMARK    3  A    between atoms: C_7  and  N_8
REMARK    4  A    between atoms: C_9  and  C_11
REMARK    5  A    between atoms: C_13  and  C_14
REMARK    6  A    between atoms: C_14  and  C_15
REMARK    7  A    between atoms: C_20  and  N_21
REMARK                            x       y       z     vdW  Elec       q    Type
REMARK                         _______ _______ _______ _____ _____    ______ ____
ROOT
ATOM      1  C   UNL     1       0.014  10.316  18.535  0.00  0.00    +0.000 A 
ATOM      2  C   UNL     1      -1.003   9.704  17.775  0.00  0.00    +0.000 A 
ATOM      3  C   UNL     1      -2.030  10.465  17.238  0.00  0.00    +0.000 A 
ATOM      4  C   UNL     1      -1.944  11.833  17.452  0.00  0.00    +0.000 A 
ATOM      5  N   UNL     1      -0.963  12.448  18.156  0.00  0.00    +0.000 NA
ATOM      6  C   UNL     1       0.030  11.710  18.718  0.00  0.00    +0.000 A 
ENDROOT
BRANCH   6   7
ATOM      7  N   UNL     1       0.935  12.442  19.476  0.00  0.00    +0.000 N 
ATOM      8  C   UNL     1       0.783  12.637  20.912  0.00  0.00    +0.000 C 
ATOM      9  C   UNL     1       1.089  14.077  21.333  0.00  0.00    +0.000 C 
ATOM     10  C   UNL     1       2.577  14.394  21.274  0.00  0.00    +0.000 C 
ATOM     11  C   UNL     1       3.075  14.822  19.902  0.00  0.00    +0.000 C 
ATOM     12  F   UNL     1       4.434  14.680  19.901  0.00  0.00    +0.000 F 
ATOM     13  F   UNL     1       2.855  16.163  19.766  0.00  0.00    +0.000 F 
ATOM     14  C   UNL     1       2.516  14.132  18.672  0.00  0.00    +0.000 C 
ATOM     15  C   UNL     1       2.262  12.647  18.879  0.00  0.00    +0.000 C 
ENDBRANCH   6   7
BRANCH   1  17
ATOM     16  N   UNL     1       1.739   8.705  18.019  0.00  0.00    +0.000 N 
ATOM     17  C   UNL     1       1.088   9.423  19.016  0.00  0.00    +0.000 C 
ATOM     18  O   UNL     1       1.347   9.388  20.212  0.00  0.00    +0.000 OA
ATOM     19  H   UNL     1       1.548   8.953  17.055  0.00  0.00    +0.000 HD
BRANCH  16  22
ATOM     20  C   UNL     1       4.648   6.463  17.779  0.00  0.00    +0.000 A 
ATOM     21  C   UNL     1       3.803   7.503  17.464  0.00  0.00    +0.000 A 
ATOM     22  C   UNL     1       2.658   7.660  18.233  0.00  0.00    +0.000 A 
ATOM     23  C   UNL     1       2.420   6.776  19.290  0.00  0.00    +0.000 A 
ATOM     24  C   UNL     1       3.331   5.754  19.522  0.00  0.00    +0.000 A 
ATOM     25  N   UNL     1       4.456   5.578  18.799  0.00  0.00    +0.000 NA
BRANCH  20  26
ATOM     26  S   UNL     1       6.136   6.199  16.837  0.00  0.00    +0.000 S 
ATOM     27  O   UNL     1       6.677   4.895  17.142  0.00  0.00    +0.000 OA
ATOM     28  O   UNL     1       6.952   7.394  16.882  0.00  0.00    +0.000 OA
BRANCH  26  29
ATOM     29  N   UNL     1       5.571   6.075  15.251  0.00  0.00    +0.000 NA
ATOM     30  H   UNL     1       4.783   5.430  15.230  0.00  0.00    +0.000 HD
ATOM     31  H   UNL     1       6.343   5.830  14.637  0.00  0.00    +0.000 HD
ENDBRANCH  26  29
ENDBRANCH  20  26
ENDBRANCH  16  22
ENDBRANCH   1  17
BRANCH   3  32
ATOM     32  C   UNL     1      -3.117   9.916  16.356  0.00  0.00    +0.000 C 
BRANCH  32  33
ATOM     33  C   UNL     1      -3.180  10.489  14.966  0.00  0.00    +0.000 C 
ATOM     34  C   UNL     1      -2.806   9.742  13.705  0.00  0.00    +0.000 C 
ATOM     35  C   UNL     1      -4.252   9.952  14.045  0.00  0.00    +0.000 C 
ENDBRANCH  32  33
ENDBRANCH   3  32
TORSDOF 7
ENDMDL
MODEL 7
REMARK VINA RESULT:      -7.7      4.846      9.482
REMARK  Name = 
REMARK  7 active torsions:
REMARK  status: ('A' for Active; 'I' for Inactive)
REMARK    1  A    between atoms: N_1  and  S_2
REMARK    2  A    between atoms: S_2  and  C_5
REMARK    3  A    between atoms: C_7  and  N_8
REMARK    4  A    between atoms: C_9  and  C_11
REMARK    5  A    between atoms: C_13  and  C_14
REMARK    6  A    between atoms: C_14  and  C_15
REMARK    7  A    between atoms: C_20  and  N_21
REMARK                            x       y       z     vdW  Elec       q    Type
REMARK                         _______ _______ _______ _____ _____    ______ ____
ROOT
ATOM      1  C   UNL     1       0.071  10.428  18.826  0.00  0.00    +0.000 A 
ATOM      2  C   UNL     1      -1.139   9.879  18.354  0.00  0.00    +0.000 A 
ATOM      3  C   UNL     1      -2.163  10.708  17.923  0.00  0.00    +0.000 A 
ATOM      4  C   UNL     1      -1.887  12.068  17.939  0.00  0.00    +0.000 A 
ATOM      5  N   UNL     1      -0.723  12.618  18.364  0.00  0.00    +0.000 NA
ATOM      6  C   UNL     1       0.275  11.819  18.821  0.00  0.00    +0.000 A 
ENDROOT
BRANCH   6   7
ATOM      7  N   UNL     1       1.388  12.501  19.297  0.00  0.00    +0.000 N 
ATOM      8  C   UNL     1       1.635  12.711  20.718  0.00  0.00    +0.000 C 
ATOM      9  C   UNL     1       2.121  14.132  21.013  0.00  0.00    +0.000 C 
ATOM     10  C   UNL     1       3.555  14.362  20.554  0.00  0.00    +0.000 C 
ATOM     11  C   UNL     1       3.692  14.754  19.092  0.00  0.00    +0.000 C 
ATOM     12  F   UNL     1       4.992  14.533  18.732  0.00  0.00    +0.000 F 
ATOM     13  F   UNL     1       3.518  16.104  18.991  0.00  0.00    +0.000 F 
ATOM     14  C   UNL     1       2.789  14.092  18.069  0.00  0.00    +0.000 C 
ATOM     15  C   UNL     1       2.518  12.626  18.365  0.00  0.00    +0.000 C 
ENDBRANCH   6   7
BRANCH   1  17
ATOM     16  N   UNL     1       1.750   8.831  18.143  0.00  0.00    +0.000 N 
ATOM     17  C   UNL     1       1.115   9.456  19.211  0.00  0.00    +0.000 C 
ATOM     18  O   UNL     1       1.366   9.286  20.397  0.00  0.00    +0.000 OA
ATOM     19  H   UNL     1       1.572   9.187  17.212  0.00  0.00    +0.000 HD
BRANCH  16  22
ATOM     20  C   UNL     1       4.544   6.495  17.607  0.00  0.00    +0.000 A 
ATOM     21  C   UNL     1       3.724   7.582  17.399  0.00  0.00    +0.000 A 
ATOM     22  C   UNL     1       2.636   7.741  18.246  0.00  0.00    +0.000 A 
ATOM     23  C   UNL     1       2.428   6.813  19.270  0.00  0.00    +0.000 A 
ATOM     24  C   UNL     1       3.309   5.746  19.393  0.00  0.00    +0.000 A 
ATOM     25  N   UNL     1       4.379   5.566  18.591  0.00  0.00    +0.000 NA
BRANCH  20  26
ATOM     26  S   UNL     1       5.958   6.225  16.560  0.00  0.00    +0.000 S 
ATOM     27  O   UNL     1       7.028   7.110  16.955  0.00  0.00    +0.000 OA
ATOM     28  O   UNL     1       5.525   6.118  15.183  0.00  0.00    +0.000 OA
BRANCH  26  29
ATOM     29  N   UNL     1       6.482   4.684  17.009  0.00  0.00    +0.000 NA
ATOM     30  H   UNL     1       7.439   4.552  16.687  0.00  0.00    +0.000 HD
ATOM     31  H   UNL     1       5.817   3.991  16.675  0.00  0.00    +0.000 HD
ENDBRANCH  26  29
ENDBRANCH  20  26
ENDBRANCH  16  22
ENDBRANCH   1  17
BRANCH   3  32
ATOM     32  C   UNL     1      -3.458  10.218  17.338  0.00  0.00    +0.000 C 
BRANCH  32  33
ATOM     33  C   UNL     1      -3.356   9.568  15.984  0.00  0.00    +0.000 C 
ATOM     34  C   UNL     1      -4.082  10.036  14.742  0.00  0.00    +0.000 C 
ATOM     35  C   UNL     1      -2.620  10.331  14.906  0.00  0.00    +0.000 C 
ENDBRANCH  32  33
ENDBRANCH   3  32
TORSDOF 7
ENDMDL
MODEL 8
REMARK VINA RESULT:      -7.6      4.659      9.236
REMARK  Name = 
REMARK  7 active torsions:
REMARK  status: ('A' for Active; 'I' for Inactive)
REMARK    1  A    between atoms: N_1  and  S_2
REMARK    2  A    between atoms: S_2  and  C_5
REMARK    3  A    between atoms: C_7  and  N_8
REMARK    4  A    between atoms: C_9  and  C_11
REMARK    5  A    between atoms: C_13  and  C_14
REMARK    6  A    between atoms: C_14  and  C_15
REMARK    7  A    between atoms: C_20  and  N_21
REMARK                            x       y       z     vdW  Elec       q    Type
REMARK                         _______ _______ _______ _____ _____    ______ ____
ROOT
ATOM      1  C   UNL     1       0.073  10.352  18.631  0.00  0.00    +0.000 A 
ATOM      2  C   UNL     1      -1.140   9.824  18.144  0.00  0.00    +0.000 A 
ATOM      3  C   UNL     1      -2.186  10.669  17.807  0.00  0.00    +0.000 A 
ATOM      4  C   UNL     1      -1.929  12.027  17.927  0.00  0.00    +0.000 A 
ATOM      5  N   UNL     1      -0.763  12.560  18.368  0.00  0.00    +0.000 NA
ATOM      6  C   UNL     1       0.257  11.742  18.735  0.00  0.00    +0.000 A 
ENDROOT
BRANCH   6   7
ATOM      7  N   UNL     1       1.372  12.400  19.240  0.00  0.00    +0.000 N 
ATOM      8  C   UNL     1       1.628  12.535  20.668  0.00  0.00    +0.000 C 
ATOM      9  C   UNL     1       2.112  13.940  21.035  0.00  0.00    +0.000 C 
ATOM     10  C   UNL     1       3.542  14.198  20.580  0.00  0.00    +0.000 C 
ATOM     11  C   UNL     1       3.670  14.667  19.139  0.00  0.00    +0.000 C 
ATOM     12  F   UNL     1       4.967  14.469  18.760  0.00  0.00    +0.000 F 
ATOM     13  F   UNL     1       3.492  16.020  19.111  0.00  0.00    +0.000 F 
ATOM     14  C   UNL     1       2.761  14.058  18.088  0.00  0.00    +0.000 C 
ATOM     15  C   UNL     1       2.495  12.577  18.309  0.00  0.00    +0.000 C 
ENDBRANCH   6   7
BRANCH   1  17
ATOM     16  N   UNL     1       1.696   8.777  17.782  0.00  0.00    +0.000 N 
ATOM     17  C   UNL     1       1.139   9.369  18.911  0.00  0.00    +0.000 C 
ATOM     18  O   UNL     1       1.474   9.162  20.070  0.00  0.00    +0.000 OA
ATOM     19  H   UNL     1       1.453   9.161  16.877  0.00  0.00    +0.000 HD
BRANCH  16  22
ATOM     20  C   UNL     1       3.135   5.402  18.082  0.00  0.00    +0.000 A 
ATOM     21  C   UNL     1       2.190   6.402  18.140  0.00  0.00    +0.000 A 
ATOM     22  C   UNL     1       2.585   7.685  17.787  0.00  0.00    +0.000 A 
ATOM     23  C   UNL     1       3.905   7.904  17.379  0.00  0.00    +0.000 A 
ATOM     24  C   UNL     1       4.784   6.829  17.361  0.00  0.00    +0.000 A 
ATOM     25  N   UNL     1       4.431   5.570  17.691  0.00  0.00    +0.000 NA
BRANCH  20  26
ATOM     26  S   UNL     1       2.702   3.732  18.520  0.00  0.00    +0.000 S 
ATOM     27  O   UNL     1       1.783   3.198  17.543  0.00  0.00    +0.000 OA
ATOM     28  O   UNL     1       2.431   3.662  19.941  0.00  0.00    +0.000 OA
BRANCH  26  29
ATOM     29  N   UNL     1       4.140   2.883  18.274  0.00  0.00    +0.000 NA
ATOM     30  H   UNL     1       4.820   3.174  18.975  0.00  0.00    +0.000 HD
ATOM     31  H   UNL     1       4.440   3.000  17.310  0.00  0.00    +0.000 HD
ENDBRANCH  26  29
ENDBRANCH  20  26
ENDBRANCH  16  22
ENDBRANCH   1  17
BRANCH   3  32
ATOM     32  C   UNL     1      -3.488  10.208  17.213  0.00  0.00    +0.000 C 
BRANCH  32  33
ATOM     33  C   UNL     1      -3.391   9.546  15.864  0.00  0.00    +0.000 C 
ATOM     34  C   UNL     1      -4.089  10.028  14.612  0.00  0.00    +0.000 C 
ATOM     35  C   UNL     1      -2.621  10.279  14.790  0.00  0.00    +0.000 C 
ENDBRANCH  32  33
ENDBRANCH   3  32
TORSDOF 7
ENDMDL
MODEL 9
REMARK VINA RESULT:      -7.5      4.947      9.734
REMARK  Name = 
REMARK  7 active torsions:
REMARK  status: ('A' for Active; 'I' for Inactive)
REMARK    1  A    between atoms: N_1  and  S_2
REMARK    2  A    between atoms: S_2  and  C_5
REMARK    3  A    between atoms: C_7  and  N_8
REMARK    4  A    between atoms: C_9  and  C_11
REMARK    5  A    between atoms: C_13  and  C_14
REMARK    6  A    between atoms: C_14  and  C_15
REMARK    7  A    between atoms: C_20  and  N_21
REMARK                            x       y       z     vdW  Elec       q    Type
REMARK                         _______ _______ _______ _____ _____    ______ ____
ROOT
ATOM      1  C   UNL     1      -0.028  10.509  18.964  0.00  0.00    +0.000 A 
ATOM      2  C   UNL     1      -1.275   9.985  18.567  0.00  0.00    +0.000 A 
ATOM      3  C   UNL     1      -2.293  10.834  18.160  0.00  0.00    +0.000 A 
ATOM      4  C   UNL     1      -1.975  12.184  18.120  0.00  0.00    +0.000 A 
ATOM      5  N   UNL     1      -0.776  12.709  18.472  0.00  0.00    +0.000 NA
ATOM      6  C   UNL     1       0.219  11.892  18.906  0.00  0.00    +0.000 A 
ENDROOT
BRANCH   6   7
ATOM      7  N   UNL     1       1.373  12.552  19.307  0.00  0.00    +0.000 N 
ATOM      8  C   UNL     1       1.707  12.774  20.709  0.00  0.00    +0.000 C 
ATOM      9  C   UNL     1       2.243  14.186  20.955  0.00  0.00    +0.000 C 
ATOM     10  C   UNL     1       3.654  14.374  20.411  0.00  0.00    +0.000 C 
ATOM     11  C   UNL     1       3.716  14.743  18.937  0.00  0.00    +0.000 C 
ATOM     12  F   UNL     1       4.987  14.485  18.507  0.00  0.00    +0.000 F 
ATOM     13  F   UNL     1       3.569  16.096  18.828  0.00  0.00    +0.000 F 
ATOM     14  C   UNL     1       2.739  14.091  17.978  0.00  0.00    +0.000 C 
ATOM     15  C   UNL     1       2.450  12.636  18.311  0.00  0.00    +0.000 C 
ENDBRANCH   6   7
BRANCH   1  17
ATOM     16  N   UNL     1       1.658   8.933  18.250  0.00  0.00    +0.000 N 
ATOM     17  C   UNL     1       1.003   9.516  19.330  0.00  0.00    +0.000 C 
ATOM     18  O   UNL     1       1.228   9.294  20.512  0.00  0.00    +0.000 OA
ATOM     19  H   UNL     1       1.501   9.328  17.331  0.00  0.00    +0.000 HD
BRANCH  16  22
ATOM     20  C   UNL     1       4.423   6.581  17.640  0.00  0.00    +0.000 A 
ATOM     21  C   UNL     1       3.609   7.677  17.458  0.00  0.00    +0.000 A 
ATOM     22  C   UNL     1       2.537   7.835  18.325  0.00  0.00    +0.000 A 
ATOM     23  C   UNL     1       2.337   6.896  19.341  0.00  0.00    +0.000 A 
ATOM     24  C   UNL     1       3.211   5.821  19.436  0.00  0.00    +0.000 A 
ATOM     25  N   UNL     1       4.266   5.642  18.615  0.00  0.00    +0.000 NA
BRANCH  20  26
ATOM     26  S   UNL     1       5.818   6.312  16.566  0.00  0.00    +0.000 S 
ATOM     27  O   UNL     1       6.894   7.200  16.940  0.00  0.00    +0.000 OA
ATOM     28  O   UNL     1       5.358   6.203  15.198  0.00  0.00    +0.000 OA
BRANCH  26  29
ATOM     29  N   UNL     1       6.353   4.773  17.007  0.00  0.00    +0.000 NA
ATOM     30  H   UNL     1       5.740   4.404  17.733  0.00  0.00    +0.000 HD
ATOM     31  H   UNL     1       7.337   4.817  17.257  0.00  0.00    +0.000 HD
ENDBRANCH  26  29
ENDBRANCH  20  26
ENDBRANCH  16  22
ENDBRANCH   1  17
BRANCH   3  32
ATOM     32  C   UNL     1      -3.629  10.369  17.651  0.00  0.00    +0.000 C 
BRANCH  32  33
ATOM     33  C   UNL     1      -4.728  11.397  17.672  0.00  0.00    +0.000 C 
ATOM     34  C   UNL     1      -6.175  11.111  18.006  0.00  0.00    +0.000 C 
ATOM     35  C   UNL     1      -5.294  11.775  19.022  0.00  0.00    +0.000 C 
ENDBRANCH  32  33
ENDBRANCH   3  32
TORSDOF 7
ENDMDL
