MODEL 1
REMARK VINA RESULT:      -8.8      0.000      0.000
REMARK  Name = 
REMARK  13 active torsions:
REMARK  status: ('A' for Active; 'I' for Inactive)
REMARK    1  A    between atoms: C_1  and  C_2
REMARK    2  A    between atoms: C_2  and  C_3
REMARK    3  A    between atoms: C_2  and  C_4
REMARK    4  A    between atoms: C_2  and  O_5
REMARK    5  A    between atoms: O_5  and  C_6
REMARK    6  A    between atoms: C_6  and  C_8
REMARK    7  A    between atoms: C_12  and  N_13
REMARK    8  A    between atoms: C_14  and  C_16
REMARK    9  A    between atoms: C_16  and  C_17
REMARK   10  A    between atoms: C_17  and  N_18
REMARK   11  A    between atoms: N_18  and  S_19
REMARK   12  A    between atoms: S_19  and  C_22
REMARK   13  A    between atoms: C_26  and  C_27
REMARK                            x       y       z     vdW  Elec       q    Type
REMARK                         _______ _______ _______ _____ _____    ______ ____
ROOT
ATOM      1  C   UNL     1       2.204   3.597  21.656  0.00  0.00    +0.000 C 
ENDROOT
BRANCH   1   3
ATOM      2  N   UNL     1       2.661   5.670  20.418  0.00  0.00    +0.000 N 
ATOM      3  C   UNL     1       1.710   4.723  20.772  0.00  0.00    +0.000 C 
ATOM      4  O   UNL     1       0.526   4.750  20.447  0.00  0.00    +0.000 OA
ATOM      5  H   UNL     1       3.619   5.527  20.721  0.00  0.00    +0.000 HD
BRANCH   2  10
ATOM      6  C   UNL     1       1.289   9.066  19.671  0.00  0.00    +0.000 A 
ATOM      7  C   UNL     1       1.717   9.262  18.356  0.00  0.00    +0.000 A 
ATOM      8  C   UNL     1       2.464   8.281  17.726  0.00  0.00    +0.000 A 
ATOM      9  C   UNL     1       2.784   7.104  18.403  0.00  0.00    +0.000 A 
ATOM     10  C   UNL     1       2.380   6.878  19.723  0.00  0.00    +0.000 A 
ATOM     11  C   UNL     1       1.637   7.880  20.361  0.00  0.00    +0.000 A 
BRANCH   6  12
ATOM     12  C   UNL     1       0.446  10.072  20.364  0.00  0.00    +0.000 C 
ATOM     13  O   UNL     1      -0.105   9.833  21.421  0.00  0.00    +0.000 OA
BRANCH  12  14
ATOM     14  O   UNL     1       0.371  11.229  19.645  0.00  0.00    +0.000 OA
BRANCH  14  16
ATOM     15  C   UNL     1      -0.761  12.873  18.214  0.00  0.00    +0.000 C 
ATOM     16  C   UNL     1      -0.924  11.743  19.237  0.00  0.00    +0.000 C 
ATOM     17  C   UNL     1      -1.745  12.172  20.459  0.00  0.00    +0.000 C 
ATOM     18  C   UNL     1      -1.661  10.582  18.544  0.00  0.00    +0.000 C 
ENDBRANCH  14  16
ENDBRANCH  12  14
ENDBRANCH   6  12
ENDBRANCH   2  10
ENDBRANCH   1   3
BRANCH   1  19
ATOM     19  C   UNL     1       2.677   2.434  20.768  0.00  0.00    +0.000 C 
BRANCH  19  20
ATOM     20  N   UNL     1       3.822   2.860  19.929  0.00  0.00    +0.000 NA
ATOM     21  H   UNL     1       4.695   2.350  20.106  0.00  0.00    +0.000 HD
BRANCH  20  22
ATOM     22  S   UNL     1       3.585   2.863  18.254  0.00  0.00    +0.000 S 
ATOM     23  O   UNL     1       3.883   1.525  17.796  0.00  0.00    +0.000 OA
ATOM     24  O   UNL     1       2.322   3.505  17.971  0.00  0.00    +0.000 OA
BRANCH  22  25
ATOM     25  C   UNL     1       4.894   3.906  17.675  0.00  0.00    +0.000 A 
ATOM     26  C   UNL     1       5.125   4.027  16.302  0.00  0.00    +0.000 A 
ATOM     27  C   UNL     1       6.209   4.780  15.854  0.00  0.00    +0.000 A 
ATOM     28  C   UNL     1       7.057   5.403  16.774  0.00  0.00    +0.000 A 
ATOM     29  C   UNL     1       6.816   5.287  18.151  0.00  0.00    +0.000 A 
ATOM     30  C   UNL     1       5.731   4.532  18.605  0.00  0.00    +0.000 A 
BRANCH  29  31
ATOM     31  C   UNL     1       7.726   5.935  19.139  0.00  0.00    +0.000 C 
ATOM     32  N   UNL     1       7.978   5.430  20.305  0.00  0.00    +0.000 NA
ATOM     33  N   UNL     1       8.338   7.117  18.846  0.00  0.00    +0.000 N 
ATOM     34  H   UNL     1       7.523   4.524  20.434  0.00  0.00    +0.000 HD
ATOM     35  H   UNL     1       7.812   7.777  18.285  0.00  0.00    +0.000 HD
ATOM     36  H   UNL     1       8.731   7.540  19.682  0.00  0.00    +0.000 HD
ENDBRANCH  29  31
ENDBRANCH  22  25
ENDBRANCH  20  22
ENDBRANCH  19  20
ENDBRANCH   1  19
TORSDOF 10
ENDMDL
MODEL 2
REMARK VINA RESULT:      -8.0      1.384      1.938
REMARK  Name = 
REMARK  13 active torsions:
REMARK  status: ('A' for Active; 'I' for Inactive)
REMARK    1  A    between atoms: C_1  and  C_2
REMARK    2  A    between atoms: C_2  and  C_3
REMARK    3  A    between atoms: C_2  and  C_4
REMARK    4  A    between atoms: C_2  and  O_5
REMARK    5  A    between atoms: O_5  and  C_6
REMARK    6  A    between atoms: C_6  and  C_8
REMARK    7  A    between atoms: C_12  and  N_13
REMARK    8  A    between atoms: C_14  and  C_16
REMARK    9  A    between atoms: C_16  and  C_17
REMARK   10  A    between atoms: C_17  and  N_18
REMARK   11  A    between atoms: N_18  and  S_19
REMARK   12  A    between atoms: S_19  and  C_22
REMARK   13  A    between atoms: C_26  and  C_27
REMARK                            x       y       z     vdW  Elec       q    Type
REMARK                         _______ _______ _______ _____ _____    ______ ____
ROOT
ATOM      1  C   UNL     1       2.418   3.938  21.344  0.00  0.00    +0.000 C 
ENDROOT
BRANCH   1   3
ATOM      2  N   UNL     1       2.454   6.299  20.661  0.00  0.00    +0.000 N 
ATOM      3  C   UNL     1       1.713   5.127  20.723  0.00  0.00    +0.000 C 
ATOM      4  O   UNL     1       0.553   4.999  20.341  0.00  0.00    +0.000 OA
ATOM      5  H   UNL     1       3.418   6.277  20.980  0.00  0.00    +0.000 HD
BRANCH   2  10
ATOM      6  C   UNL     1       0.741   9.618  20.815  0.00  0.00    +0.000 A 
ATOM      7  C   UNL     1       0.819  10.039  19.486  0.00  0.00    +0.000 A 
ATOM      8  C   UNL     1       1.445   9.235  18.548  0.00  0.00    +0.000 A 
ATOM      9  C   UNL     1       1.992   8.010  18.932  0.00  0.00    +0.000 A 
ATOM     10  C   UNL     1       1.939   7.561  20.256  0.00  0.00    +0.000 A 
ATOM     11  C   UNL     1       1.318   8.385  21.203  0.00  0.00    +0.000 A 
BRANCH   6  12
ATOM     12  C   UNL     1       0.036  10.429  21.839  0.00  0.00    +0.000 C 
ATOM     13  O   UNL     1      -0.765   9.938  22.610  0.00  0.00    +0.000 OA
BRANCH  12  14
ATOM     14  O   UNL     1       0.393  11.743  21.755  0.00  0.00    +0.000 OA
BRANCH  14  16
ATOM     15  C   UNL     1      -1.134  13.166  23.049  0.00  0.00    +0.000 C 
ATOM     16  C   UNL     1      -0.635  12.764  21.657  0.00  0.00    +0.000 C 
ATOM     17  C   UNL     1      -1.771  12.304  20.736  0.00  0.00    +0.000 C 
ATOM     18  C   UNL     1       0.031  14.000  21.021  0.00  0.00    +0.000 C 
ENDBRANCH  14  16
ENDBRANCH  12  14
ENDBRANCH   6  12
ENDBRANCH   2  10
ENDBRANCH   1   3
BRANCH   1  19
ATOM     19  C   UNL     1       1.849   2.646  20.736  0.00  0.00    +0.000 C 
BRANCH  19  20
ATOM     20  N   UNL     1       2.165   2.575  19.289  0.00  0.00    +0.000 NA
ATOM     21  H   UNL     1       1.867   3.392  18.746  0.00  0.00    +0.000 HD
BRANCH  20  22
ATOM     22  S   UNL     1       3.774   2.266  18.871  0.00  0.00    +0.000 S 
ATOM     23  O   UNL     1       4.453   1.904  20.095  0.00  0.00    +0.000 OA
ATOM     24  O   UNL     1       3.789   1.409  17.707  0.00  0.00    +0.000 OA
BRANCH  22  25
ATOM     25  C   UNL     1       4.373   3.866  18.405  0.00  0.00    +0.000 A 
ATOM     26  C   UNL     1       3.651   4.635  17.489  0.00  0.00    +0.000 A 
ATOM     27  C   UNL     1       4.169   5.856  17.061  0.00  0.00    +0.000 A 
ATOM     28  C   UNL     1       5.403   6.301  17.544  0.00  0.00    +0.000 A 
ATOM     29  C   UNL     1       6.121   5.530  18.470  0.00  0.00    +0.000 A 
ATOM     30  C   UNL     1       5.605   4.305  18.902  0.00  0.00    +0.000 A 
BRANCH  29  31
ATOM     31  C   UNL     1       7.446   5.990  18.976  0.00  0.00    +0.000 C 
ATOM     32  N   UNL     1       8.094   6.986  18.460  0.00  0.00    +0.000 NA
ATOM     33  N   UNL     1       8.043   5.358  20.027  0.00  0.00    +0.000 N 
ATOM     34  H   UNL     1       7.566   7.436  17.711  0.00  0.00    +0.000 HD
ATOM     35  H   UNL     1       7.908   4.357  20.095  0.00  0.00    +0.000 HD
ATOM     36  H   UNL     1       9.019   5.628  20.106  0.00  0.00    +0.000 HD
ENDBRANCH  29  31
ENDBRANCH  22  25
ENDBRANCH  20  22
ENDBRANCH  19  20
ENDBRANCH   1  19
TORSDOF 10
ENDMDL
MODEL 3
REMARK VINA RESULT:      -7.6      4.004      9.376
REMARK  Name = 
REMARK  13 active torsions:
REMARK  status: ('A' for Active; 'I' for Inactive)
REMARK    1  A    between atoms: C_1  and  C_2
REMARK    2  A    between atoms: C_2  and  C_3
REMARK    3  A    between atoms: C_2  and  C_4
REMARK    4  A    between atoms: C_2  and  O_5
REMARK    5  A    between atoms: O_5  and  C_6
REMARK    6  A    between atoms: C_6  and  C_8
REMARK    7  A    between atoms: C_12  and  N_13
REMARK    8  A    between atoms: C_14  and  C_16
REMARK    9  A    between atoms: C_16  and  C_17
REMARK   10  A    between atoms: C_17  and  N_18
REMARK   11  A    between atoms: N_18  and  S_19
REMARK   12  A    between atoms: S_19  and  C_22
REMARK   13  A    between atoms: C_26  and  C_27
REMARK                            x       y       z     vdW  Elec       q    Type
REMARK                         _______ _______ _______ _____ _____    ______ ____
ROOT
ATOM      1  C   UNL     1       1.306   8.972  21.584  0.00  0.00    +0.000 C 
ENDROOT
BRANCH   1   3
ATOM      2  N   UNL     1       1.550   6.566  21.145  0.00  0.00    +0.000 N 
ATOM      3  C   UNL     1       1.582   7.846  20.608  0.00  0.00    +0.000 C 
ATOM      4  O   UNL     1       1.835   8.120  19.438  0.00  0.00    +0.000 OA
ATOM      5  H   UNL     1       1.298   6.459  22.122  0.00  0.00    +0.000 HD
BRANCH   2  10
ATOM      6  C   UNL     1       3.615   4.123  19.209  0.00  0.00    +0.000 A 
ATOM      7  C   UNL     1       2.694   3.101  18.969  0.00  0.00    +0.000 A 
ATOM      8  C   UNL     1       1.402   3.215  19.455  0.00  0.00    +0.000 A 
ATOM      9  C   UNL     1       1.025   4.348  20.178  0.00  0.00    +0.000 A 
ATOM     10  C   UNL     1       1.924   5.386  20.445  0.00  0.00    +0.000 A 
ATOM     11  C   UNL     1       3.233   5.259  19.964  0.00  0.00    +0.000 A 
BRANCH   6  12
ATOM     12  C   UNL     1       4.994   4.060  18.664  0.00  0.00    +0.000 C 
ATOM     13  O   UNL     1       5.974   4.133  19.380  0.00  0.00    +0.000 OA
BRANCH  12  14
ATOM     14  O   UNL     1       4.979   3.946  17.304  0.00  0.00    +0.000 OA
BRANCH  14  16
ATOM     15  C   UNL     1       7.256   4.489  16.561  0.00  0.00    +0.000 C 
ATOM     16  C   UNL     1       5.769   4.856  16.495  0.00  0.00    +0.000 C 
ATOM     17  C   UNL     1       5.506   6.310  16.902  0.00  0.00    +0.000 C 
ATOM     18  C   UNL     1       5.302   4.670  15.039  0.00  0.00    +0.000 C 
ENDBRANCH  14  16
ENDBRANCH  12  14
ENDBRANCH   6  12
ENDBRANCH   2  10
ENDBRANCH   1   3
BRANCH   1  19
ATOM     19  C   UNL     1      -0.009   9.664  21.189  0.00  0.00    +0.000 C 
BRANCH  19  20
ATOM     20  N   UNL     1       0.211  10.566  20.033  0.00  0.00    +0.000 NA
ATOM     21  H   UNL     1       0.309  10.089  19.131  0.00  0.00    +0.000 HD
BRANCH  20  22
ATOM     22  S   UNL     1      -0.911  11.812  19.811  0.00  0.00    +0.000 S 
ATOM     23  O   UNL     1      -1.658  11.915  21.044  0.00  0.00    +0.000 OA
ATOM     24  O   UNL     1      -0.227  12.948  19.235  0.00  0.00    +0.000 OA
BRANCH  22  25
ATOM     25  C   UNL     1      -2.012  11.138  18.598  0.00  0.00    +0.000 A 
ATOM     26  C   UNL     1      -1.504  10.331  17.576  0.00  0.00    +0.000 A 
ATOM     27  C   UNL     1      -2.360   9.873  16.576  0.00  0.00    +0.000 A 
ATOM     28  C   UNL     1      -3.713  10.224  16.598  0.00  0.00    +0.000 A 
ATOM     29  C   UNL     1      -4.221  11.026  17.630  0.00  0.00    +0.000 A 
ATOM     30  C   UNL     1      -3.365  11.488  18.635  0.00  0.00    +0.000 A 
BRANCH  29  31
ATOM     31  C   UNL     1      -5.659  11.418  17.651  0.00  0.00    +0.000 C 
ATOM     32  N   UNL     1      -6.151  12.345  16.892  0.00  0.00    +0.000 NA
ATOM     33  N   UNL     1      -6.533  10.803  18.497  0.00  0.00    +0.000 N 
ATOM     34  H   UNL     1      -5.449  12.727  16.255  0.00  0.00    +0.000 HD
ATOM     35  H   UNL     1      -6.175  10.528  19.404  0.00  0.00    +0.000 HD
ATOM     36  H   UNL     1      -7.403  11.322  18.562  0.00  0.00    +0.000 HD
ENDBRANCH  29  31
ENDBRANCH  22  25
ENDBRANCH  20  22
ENDBRANCH  19  20
ENDBRANCH   1  19
TORSDOF 10
ENDMDL
MODEL 4
REMARK VINA RESULT:      -7.6      4.220      9.930
REMARK  Name = 
REMARK  13 active torsions:
REMARK  status: ('A' for Active; 'I' for Inactive)
REMARK    1  A    between atoms: C_1  and  C_2
REMARK    2  A    between atoms: C_2  and  C_3
REMARK    3  A    between atoms: C_2  and  C_4
REMARK    4  A    between atoms: C_2  and  O_5
REMARK    5  A    between atoms: O_5  and  C_6
REMARK    6  A    between atoms: C_6  and  C_8
REMARK    7  A    between atoms: C_12  and  N_13
REMARK    8  A    between atoms: C_14  and  C_16
REMARK    9  A    between atoms: C_16  and  C_17
REMARK   10  A    between atoms: C_17  and  N_18
REMARK   11  A    between atoms: N_18  and  S_19
REMARK   12  A    between atoms: S_19  and  C_22
REMARK   13  A    between atoms: C_26  and  C_27
REMARK                            x       y       z     vdW  Elec       q    Type
REMARK                         _______ _______ _______ _____ _____    ______ ____
ROOT
ATOM      1  C   UNL     1       1.382   8.416  21.575  0.00  0.00    +0.000 C 
ENDROOT
BRANCH   1   3
ATOM      2  N   UNL     1       1.926   6.191  20.683  0.00  0.00    +0.000 N 
ATOM      3  C   UNL     1       1.770   7.541  20.400  0.00  0.00    +0.000 C 
ATOM      4  O   UNL     1       1.944   8.062  19.301  0.00  0.00    +0.000 OA
ATOM      5  H   UNL     1       1.726   5.869  21.625  0.00  0.00    +0.000 HD
BRANCH   2  10
ATOM      6  C   UNL     1       4.317   4.289  18.527  0.00  0.00    +0.000 A 
ATOM      7  C   UNL     1       3.465   3.387  17.887  0.00  0.00    +0.000 A 
ATOM      8  C   UNL     1       2.110   3.401  18.176  0.00  0.00    +0.000 A 
ATOM      9  C   UNL     1       1.603   4.314  19.101  0.00  0.00    +0.000 A 
ATOM     10  C   UNL     1       2.428   5.226  19.767  0.00  0.00    +0.000 A 
ATOM     11  C   UNL     1       3.799   5.198  19.482  0.00  0.00    +0.000 A 
BRANCH   6  12
ATOM     12  C   UNL     1       5.766   4.338  18.209  0.00  0.00    +0.000 C 
ATOM     13  O   UNL     1       6.613   4.428  19.076  0.00  0.00    +0.000 OA
BRANCH  12  14
ATOM     14  O   UNL     1       5.973   4.299  16.861  0.00  0.00    +0.000 OA
BRANCH  14  16
ATOM     15  C   UNL     1       7.296   6.361  17.035  0.00  0.00    +0.000 C 
ATOM     16  C   UNL     1       6.376   5.504  16.158  0.00  0.00    +0.000 C 
ATOM     17  C   UNL     1       5.149   6.278  15.663  0.00  0.00    +0.000 C 
ATOM     18  C   UNL     1       7.186   5.047  14.930  0.00  0.00    +0.000 C 
ENDBRANCH  14  16
ENDBRANCH  12  14
ENDBRANCH   6  12
ENDBRANCH   2  10
ENDBRANCH   1   3
BRANCH   1  19
ATOM     19  C   UNL     1      -0.148   8.558  21.608  0.00  0.00    +0.000 C 
BRANCH  19  20
ATOM     20  N   UNL     1      -0.557   9.861  21.028  0.00  0.00    +0.000 NA
ATOM     21  H   UNL     1      -1.502   9.875  20.632  0.00  0.00    +0.000 HD
BRANCH  20  22
ATOM     22  S   UNL     1      -0.421  11.219  22.027  0.00  0.00    +0.000 S 
ATOM     23  O   UNL     1      -0.369  10.725  23.385  0.00  0.00    +0.000 OA
ATOM     24  O   UNL     1       0.604  12.084  21.490  0.00  0.00    +0.000 OA
BRANCH  22  25
ATOM     25  C   UNL     1      -1.993  12.010  21.829  0.00  0.00    +0.000 A 
ATOM     26  C   UNL     1      -2.390  12.451  20.564  0.00  0.00    +0.000 A 
ATOM     27  C   UNL     1      -3.589  13.149  20.427  0.00  0.00    +0.000 A 
ATOM     28  C   UNL     1      -4.381  13.407  21.550  0.00  0.00    +0.000 A 
ATOM     29  C   UNL     1      -3.984  12.955  22.816  0.00  0.00    +0.000 A 
ATOM     30  C   UNL     1      -2.781  12.255  22.958  0.00  0.00    +0.000 A 
BRANCH  29  31
ATOM     31  C   UNL     1      -4.814  13.241  24.021  0.00  0.00    +0.000 C 
ATOM     32  N   UNL     1      -5.004  14.437  24.482  0.00  0.00    +0.000 NA
ATOM     33  N   UNL     1      -5.417  12.226  24.704  0.00  0.00    +0.000 N 
ATOM     34  H   UNL     1      -4.562  15.146  23.894  0.00  0.00    +0.000 HD
ATOM     35  H   UNL     1      -4.914  11.349  24.757  0.00  0.00    +0.000 HD
ATOM     36  H   UNL     1      -5.747  12.544  25.610  0.00  0.00    +0.000 HD
ENDBRANCH  29  31
ENDBRANCH  22  25
ENDBRANCH  20  22
ENDBRANCH  19  20
ENDBRANCH   1  19
TORSDOF 10
ENDMDL
MODEL 5
REMARK VINA RESULT:      -7.6      4.180      9.739
REMARK  Name = 
REMARK  13 active torsions:
REMARK  status: ('A' for Active; 'I' for Inactive)
REMARK    1  A    between atoms: C_1  and  C_2
REMARK    2  A    between atoms: C_2  and  C_3
REMARK    3  A    between atoms: C_2  and  C_4
REMARK    4  A    between atoms: C_2  and  O_5
REMARK    5  A    between atoms: O_5  and  C_6
REMARK    6  A    between atoms: C_6  and  C_8
REMARK    7  A    between atoms: C_12  and  N_13
REMARK    8  A    between atoms: C_14  and  C_16
REMARK    9  A    between atoms: C_16  and  C_17
REMARK   10  A    between atoms: C_17  and  N_18
REMARK   11  A    between atoms: N_18  and  S_19
REMARK   12  A    between atoms: S_19  and  C_22
REMARK   13  A    between atoms: C_26  and  C_27
REMARK                            x       y       z     vdW  Elec       q    Type
REMARK                         _______ _______ _______ _____ _____    ______ ____
ROOT
ATOM      1  C   UNL     1      -0.163   9.457  23.434  0.00  0.00    +0.000 C 
ENDROOT
BRANCH   1   3
ATOM      2  N   UNL     1       0.409   8.868  21.118  0.00  0.00    +0.000 N 
ATOM      3  C   UNL     1       0.887   9.270  22.357  0.00  0.00    +0.000 C 
ATOM      4  O   UNL     1       2.068   9.457  22.638  0.00  0.00    +0.000 OA
ATOM      5  H   UNL     1      -0.594   8.774  20.994  0.00  0.00    +0.000 HD
BRANCH   2  10
ATOM      6  C   UNL     1       2.787   6.905  19.003  0.00  0.00    +0.000 A 
ATOM      7  C   UNL     1       2.944   7.744  17.898  0.00  0.00    +0.000 A 
ATOM      8  C   UNL     1       2.257   8.946  17.849  0.00  0.00    +0.000 A 
ATOM      9  C   UNL     1       1.417   9.314  18.901  0.00  0.00    +0.000 A 
ATOM     10  C   UNL     1       1.230   8.494  20.018  0.00  0.00    +0.000 A 
ATOM     11  C   UNL     1       1.914   7.273  20.056  0.00  0.00    +0.000 A 
BRANCH   6  12
ATOM     12  C   UNL     1       3.543   5.632  19.116  0.00  0.00    +0.000 C 
ATOM     13  O   UNL     1       4.620   5.472  18.576  0.00  0.00    +0.000 OA
BRANCH  12  14
ATOM     14  O   UNL     1       2.853   4.716  19.855  0.00  0.00    +0.000 OA
BRANCH  14  16
ATOM     15  C   UNL     1       3.109   2.398  19.085  0.00  0.00    +0.000 C 
ATOM     16  C   UNL     1       2.180   3.613  19.192  0.00  0.00    +0.000 C 
ATOM     17  C   UNL     1       1.631   4.053  17.831  0.00  0.00    +0.000 C 
ATOM     18  C   UNL     1       0.991   3.220  20.089  0.00  0.00    +0.000 C 
ENDBRANCH  14  16
ENDBRANCH  12  14
ENDBRANCH   6  12
ENDBRANCH   2  10
ENDBRANCH   1   3
BRANCH   1  19
ATOM     19  C   UNL     1      -1.023  10.682  23.087  0.00  0.00    +0.000 C 
BRANCH  19  20
ATOM     20  N   UNL     1      -0.231  11.665  22.311  0.00  0.00    +0.000 NA
ATOM     21  H   UNL     1      -0.063  11.404  21.334  0.00  0.00    +0.000 HD
BRANCH  20  22
ATOM     22  S   UNL     1      -0.787  13.263  22.303  0.00  0.00    +0.000 S 
ATOM     23  O   UNL     1      -0.893  13.665  23.688  0.00  0.00    +0.000 OA
ATOM     24  O   UNL     1      -0.008  14.016  21.347  0.00  0.00    +0.000 OA
BRANCH  22  25
ATOM     25  C   UNL     1      -2.439  13.100  21.688  0.00  0.00    +0.000 A 
ATOM     26  C   UNL     1      -3.521  13.350  22.537  0.00  0.00    +0.000 A 
ATOM     27  C   UNL     1      -4.818  13.137  22.074  0.00  0.00    +0.000 A 
ATOM     28  C   UNL     1      -5.030  12.675  20.772  0.00  0.00    +0.000 A 
ATOM     29  C   UNL     1      -3.942  12.434  19.920  0.00  0.00    +0.000 A 
ATOM     30  C   UNL     1      -2.639  12.645  20.381  0.00  0.00    +0.000 A 
BRANCH  29  31
ATOM     31  C   UNL     1      -4.159  11.924  18.536  0.00  0.00    +0.000 C 
ATOM     32  N   UNL     1      -5.111  12.348  17.766  0.00  0.00    +0.000 NA
ATOM     33  N   UNL     1      -3.344  10.962  18.017  0.00  0.00    +0.000 N 
ATOM     34  H   UNL     1      -5.649  13.098  18.205  0.00  0.00    +0.000 HD
ATOM     35  H   UNL     1      -3.001  10.258  18.659  0.00  0.00    +0.000 HD
ATOM     36  H   UNL     1      -3.746  10.560  17.175  0.00  0.00    +0.000 HD
ENDBRANCH  29  31
ENDBRANCH  22  25
ENDBRANCH  20  22
ENDBRANCH  19  20
ENDBRANCH   1  19
TORSDOF 10
ENDMDL
MODEL 6
REMARK VINA RESULT:      -7.6      3.341      4.478
REMARK  Name = 
REMARK  13 active torsions:
REMARK  status: ('A' for Active; 'I' for Inactive)
REMARK    1  A    between atoms: C_1  and  C_2
REMARK    2  A    between atoms: C_2  and  C_3
REMARK    3  A    between atoms: C_2  and  C_4
REMARK    4  A    between atoms: C_2  and  O_5
REMARK    5  A    between atoms: O_5  and  C_6
REMARK    6  A    between atoms: C_6  and  C_8
REMARK    7  A    between atoms: C_12  and  N_13
REMARK    8  A    between atoms: C_14  and  C_16
REMARK    9  A    between atoms: C_16  and  C_17
REMARK   10  A    between atoms: C_17  and  N_18
REMARK   11  A    between atoms: N_18  and  S_19
REMARK   12  A    between atoms: S_19  and  C_22
REMARK   13  A    between atoms: C_26  and  C_27
REMARK                            x       y       z     vdW  Elec       q    Type
REMARK                         _______ _______ _______ _____ _____    ______ ____
ROOT
ATOM      1  C   UNL     1       3.537   2.882  17.598  0.00  0.00    +0.000 C 
ENDROOT
BRANCH   1   3
ATOM      2  N   UNL     1       3.199   5.086  18.633  0.00  0.00    +0.000 N 
ATOM      3  C   UNL     1       2.596   3.980  18.050  0.00  0.00    +0.000 C 
ATOM      4  O   UNL     1       1.386   3.827  17.901  0.00  0.00    +0.000 OA
ATOM      5  H   UNL     1       4.213   5.115  18.676  0.00  0.00    +0.000 HD
BRANCH   2  10
ATOM      6  C   UNL     1       1.736   8.478  19.207  0.00  0.00    +0.000 A 
ATOM      7  C   UNL     1       1.194   8.340  20.487  0.00  0.00    +0.000 A 
ATOM      8  C   UNL     1       1.303   7.129  21.150  0.00  0.00    +0.000 A 
ATOM      9  C   UNL     1       1.953   6.055  20.540  0.00  0.00    +0.000 A 
ATOM     10  C   UNL     1       2.498   6.155  19.256  0.00  0.00    +0.000 A 
ATOM     11  C   UNL     1       2.373   7.377  18.585  0.00  0.00    +0.000 A 
BRANCH   6  12
ATOM     12  C   UNL     1       1.682   9.773  18.484  0.00  0.00    +0.000 C 
ATOM     13  O   UNL     1       2.074   9.888  17.339  0.00  0.00    +0.000 OA
BRANCH  12  14
ATOM     14  O   UNL     1       1.179  10.759  19.281  0.00  0.00    +0.000 OA
BRANCH  14  16
ATOM     15  C   UNL     1      -0.945  10.339  18.122  0.00  0.00    +0.000 C 
ATOM     16  C   UNL     1      -0.147  11.290  19.022  0.00  0.00    +0.000 C 
ATOM     17  C   UNL     1      -0.061  12.708  18.447  0.00  0.00    +0.000 C 
ATOM     18  C   UNL     1      -0.866  11.363  20.383  0.00  0.00    +0.000 C 
ENDBRANCH  14  16
ENDBRANCH  12  14
ENDBRANCH   6  12
ENDBRANCH   2  10
ENDBRANCH   1   3
BRANCH   1  19
ATOM     19  C   UNL     1       4.340   3.378  16.386  0.00  0.00    +0.000 C 
BRANCH  19  20
ATOM     20  N   UNL     1       5.710   3.766  16.800  0.00  0.00    +0.000 NA
ATOM     21  H   UNL     1       6.430   3.060  16.612  0.00  0.00    +0.000 HD
BRANCH  20  22
ATOM     22  S   UNL     1       6.300   5.239  16.212  0.00  0.00    +0.000 S 
ATOM     23  O   UNL     1       5.171   6.140  16.161  0.00  0.00    +0.000 OA
ATOM     24  O   UNL     1       7.509   5.569  16.931  0.00  0.00    +0.000 OA
BRANCH  22  25
ATOM     25  C   UNL     1       6.723   4.851  14.537  0.00  0.00    +0.000 A 
ATOM     26  C   UNL     1       7.751   5.553  13.903  0.00  0.00    +0.000 A 
ATOM     27  C   UNL     1       8.024   5.305  12.559  0.00  0.00    +0.000 A 
ATOM     28  C   UNL     1       7.269   4.362  11.855  0.00  0.00    +0.000 A 
ATOM     29  C   UNL     1       6.244   3.653  12.496  0.00  0.00    +0.000 A 
ATOM     30  C   UNL     1       5.966   3.900  13.844  0.00  0.00    +0.000 A 
BRANCH  29  31
ATOM     31  C   UNL     1       5.423   2.659  11.747  0.00  0.00    +0.000 C 
ATOM     32  N   UNL     1       4.243   2.922  11.282  0.00  0.00    +0.000 NA
ATOM     33  N   UNL     1       5.894   1.399  11.523  0.00  0.00    +0.000 N 
ATOM     34  H   UNL     1       3.977   3.895  11.447  0.00  0.00    +0.000 HD
ATOM     35  H   UNL     1       6.463   0.987  12.253  0.00  0.00    +0.000 HD
ATOM     36  H   UNL     1       5.149   0.782  11.213  0.00  0.00    +0.000 HD
ENDBRANCH  29  31
ENDBRANCH  22  25
ENDBRANCH  20  22
ENDBRANCH  19  20
ENDBRANCH   1  19
TORSDOF 10
ENDMDL
MODEL 7
REMARK VINA RESULT:      -7.5      1.902      2.973
REMARK  Name = 
REMARK  13 active torsions:
REMARK  status: ('A' for Active; 'I' for Inactive)
REMARK    1  A    between atoms: C_1  and  C_2
REMARK    2  A    between atoms: C_2  and  C_3
REMARK    3  A    between atoms: C_2  and  C_4
REMARK    4  A    between atoms: C_2  and  O_5
REMARK    5  A    between atoms: O_5  and  C_6
REMARK    6  A    between atoms: C_6  and  C_8
REMARK    7  A    between atoms: C_12  and  N_13
REMARK    8  A    between atoms: C_14  and  C_16
REMARK    9  A    between atoms: C_16  and  C_17
REMARK   10  A    between atoms: C_17  and  N_18
REMARK   11  A    between atoms: N_18  and  S_19
REMARK   12  A    between atoms: S_19  and  C_22
REMARK   13  A    between atoms: C_26  and  C_27
REMARK                            x       y       z     vdW  Elec       q    Type
REMARK                         _______ _______ _______ _____ _____    ______ ____
ROOT
ATOM      1  C   UNL     1       2.939   6.955  18.193  0.00  0.00    +0.000 C 
ENDROOT
BRANCH   1   3
ATOM      2  N   UNL     1       1.938   8.019  20.169  0.00  0.00    +0.000 N 
ATOM      3  C   UNL     1       2.098   8.065  18.792  0.00  0.00    +0.000 C 
ATOM      4  O   UNL     1       1.601   8.904  18.046  0.00  0.00    +0.000 OA
ATOM      5  H   UNL     1       2.423   7.293  20.687  0.00  0.00    +0.000 HD
BRANCH   2  10
ATOM      6  C   UNL     1       0.287  11.124  21.437  0.00  0.00    +0.000 A 
ATOM      7  C   UNL     1      -0.561  10.613  22.422  0.00  0.00    +0.000 A 
ATOM      8  C   UNL     1      -0.594   9.248  22.656  0.00  0.00    +0.000 A 
ATOM      9  C   UNL     1       0.218   8.392  21.911  0.00  0.00    +0.000 A 
ATOM     10  C   UNL     1       1.073   8.869  20.912  0.00  0.00    +0.000 A 
ATOM     11  C   UNL     1       1.091  10.248  20.669  0.00  0.00    +0.000 A 
BRANCH   6  12
ATOM     12  C   UNL     1       0.387  12.585  21.190  0.00  0.00    +0.000 C 
ATOM     13  O   UNL     1      -0.408  13.374  21.662  0.00  0.00    +0.000 OA
BRANCH  12  14
ATOM     14  O   UNL     1       1.437  12.872  20.368  0.00  0.00    +0.000 OA
BRANCH  14  16
ATOM     15  C   UNL     1       1.288  15.038  19.221  0.00  0.00    +0.000 C 
ATOM     16  C   UNL     1       1.197  13.514  19.088  0.00  0.00    +0.000 C 
ATOM     17  C   UNL     1      -0.139  13.056  18.495  0.00  0.00    +0.000 C 
ATOM     18  C   UNL     1       2.327  13.054  18.146  0.00  0.00    +0.000 C 
ENDBRANCH  14  16
ENDBRANCH  12  14
ENDBRANCH   6  12
ENDBRANCH   2  10
ENDBRANCH   1   3
BRANCH   1  19
ATOM     19  C   UNL     1       2.076   5.690  18.060  0.00  0.00    +0.000 C 
BRANCH  19  20
ATOM     20  N   UNL     1       2.393   4.734  19.149  0.00  0.00    +0.000 NA
ATOM     21  H   UNL     1       1.584   4.427  19.698  0.00  0.00    +0.000 HD
BRANCH  20  22
ATOM     22  S   UNL     1       3.252   3.342  18.719  0.00  0.00    +0.000 S 
ATOM     23  O   UNL     1       3.597   2.676  19.955  0.00  0.00    +0.000 OA
ATOM     24  O   UNL     1       2.533   2.667  17.663  0.00  0.00    +0.000 OA
BRANCH  22  25
ATOM     25  C   UNL     1       4.756   3.998  18.053  0.00  0.00    +0.000 A 
ATOM     26  C   UNL     1       5.083   3.758  16.716  0.00  0.00    +0.000 A 
ATOM     27  C   UNL     1       6.307   4.203  16.220  0.00  0.00    +0.000 A 
ATOM     28  C   UNL     1       7.198   4.879  17.057  0.00  0.00    +0.000 A 
ATOM     29  C   UNL     1       6.863   5.126  18.397  0.00  0.00    +0.000 A 
ATOM     30  C   UNL     1       5.636   4.681  18.899  0.00  0.00    +0.000 A 
BRANCH  29  31
ATOM     31  C   UNL     1       7.815   5.832  19.301  0.00  0.00    +0.000 C 
ATOM     32  N   UNL     1       8.156   5.375  20.465  0.00  0.00    +0.000 NA
ATOM     33  N   UNL     1       8.374   7.018  18.929  0.00  0.00    +0.000 N 
ATOM     34  H   UNL     1       7.735   4.464  20.654  0.00  0.00    +0.000 HD
ATOM     35  H   UNL     1       7.796   7.644  18.382  0.00  0.00    +0.000 HD
ATOM     36  H   UNL     1       8.808   7.480  19.723  0.00  0.00    +0.000 HD
ENDBRANCH  29  31
ENDBRANCH  22  25
ENDBRANCH  20  22
ENDBRANCH  19  20
ENDBRANCH   1  19
TORSDOF 10
ENDMDL
MODEL 8
REMARK VINA RESULT:      -7.4      6.564      9.171
REMARK  Name = 
REMARK  13 active torsions:
REMARK  status: ('A' for Active; 'I' for Inactive)
REMARK    1  A    between atoms: C_1  and  C_2
REMARK    2  A    between atoms: C_2  and  C_3
REMARK    3  A    between atoms: C_2  and  C_4
REMARK    4  A    between atoms: C_2  and  O_5
REMARK    5  A    between atoms: O_5  and  C_6
REMARK    6  A    between atoms: C_6  and  C_8
REMARK    7  A    between atoms: C_12  and  N_13
REMARK    8  A    between atoms: C_14  and  C_16
REMARK    9  A    between atoms: C_16  and  C_17
REMARK   10  A    between atoms: C_17  and  N_18
REMARK   11  A    between atoms: N_18  and  S_19
REMARK   12  A    between atoms: S_19  and  C_22
REMARK   13  A    between atoms: C_26  and  C_27
REMARK                            x       y       z     vdW  Elec       q    Type
REMARK                         _______ _______ _______ _____ _____    ______ ____
ROOT
ATOM      1  C   UNL     1       8.256   9.712  18.044  0.00  0.00    +0.000 C 
ENDROOT
BRANCH   1   3
ATOM      2  N   UNL     1       7.088   7.813  17.010  0.00  0.00    +0.000 N 
ATOM      3  C   UNL     1       7.972   8.224  17.998  0.00  0.00    +0.000 C 
ATOM      4  O   UNL     1       8.504   7.490  18.826  0.00  0.00    +0.000 OA
ATOM      5  H   UNL     1       6.733   8.508  16.361  0.00  0.00    +0.000 HD
BRANCH   2  10
ATOM      6  C   UNL     1       5.288   4.641  17.833  0.00  0.00    +0.000 A 
ATOM      7  C   UNL     1       5.595   3.845  16.727  0.00  0.00    +0.000 A 
ATOM      8  C   UNL     1       6.384   4.360  15.712  0.00  0.00    +0.000 A 
ATOM      9  C   UNL     1       6.868   5.666  15.797  0.00  0.00    +0.000 A 
ATOM     10  C   UNL     1       6.572   6.494  16.885  0.00  0.00    +0.000 A 
ATOM     11  C   UNL     1       5.762   5.974  17.902  0.00  0.00    +0.000 A 
BRANCH   6  12
ATOM     12  C   UNL     1       4.486   4.110  18.964  0.00  0.00    +0.000 C 
ATOM     13  O   UNL     1       4.379   2.918  19.174  0.00  0.00    +0.000 OA
BRANCH  12  14
ATOM     14  O   UNL     1       3.902   5.122  19.668  0.00  0.00    +0.000 OA
BRANCH  14  16
ATOM     15  C   UNL     1       1.664   4.750  20.610  0.00  0.00    +0.000 C 
ATOM     16  C   UNL     1       2.487   5.399  19.492  0.00  0.00    +0.000 C 
ATOM     17  C   UNL     1       2.021   4.972  18.096  0.00  0.00    +0.000 C 
ATOM     18  C   UNL     1       2.320   6.926  19.610  0.00  0.00    +0.000 C 
ENDBRANCH  14  16
ENDBRANCH  12  14
ENDBRANCH   6  12
ENDBRANCH   2  10
ENDBRANCH   1   3
BRANCH   1  19
ATOM     19  C   UNL     1       9.422   9.968  19.012  0.00  0.00    +0.000 C 
BRANCH  19  20
ATOM     20  N   UNL     1       9.175  11.197  19.803  0.00  0.00    +0.000 NA
ATOM     21  H   UNL     1       8.660  11.047  20.677  0.00  0.00    +0.000 HD
BRANCH  20  22
ATOM     22  S   UNL     1      10.522  12.148  20.183  0.00  0.00    +0.000 S 
ATOM     23  O   UNL     1      10.117  13.016  21.266  0.00  0.00    +0.000 OA
ATOM     24  O   UNL     1      11.677  11.286  20.286  0.00  0.00    +0.000 OA
BRANCH  22  25
ATOM     25  C   UNL     1      10.699  13.168  18.747  0.00  0.00    +0.000 A 
ATOM     26  C   UNL     1      11.360  12.669  17.622  0.00  0.00    +0.000 A 
ATOM     27  C   UNL     1      11.574  13.504  16.526  0.00  0.00    +0.000 A 
ATOM     28  C   UNL     1      11.131  14.829  16.559  0.00  0.00    +0.000 A 
ATOM     29  C   UNL     1      10.460  15.324  17.687  0.00  0.00    +0.000 A 
ATOM     30  C   UNL     1      10.245  14.491  18.788  0.00  0.00    +0.000 A 
BRANCH  29  31
ATOM     31  C   UNL     1      10.001  16.742  17.737  0.00  0.00    +0.000 C 
ATOM     32  N   UNL     1       9.015  17.141  18.476  0.00  0.00    +0.000 NA
ATOM     33  N   UNL     1      10.615  17.696  16.981  0.00  0.00    +0.000 N 
ATOM     34  H   UNL     1       8.636  16.382  19.047  0.00  0.00    +0.000 HD
ATOM     35  H   UNL     1      10.951  17.411  16.070  0.00  0.00    +0.000 HD
ATOM     36  H   UNL     1      10.058  18.545  16.945  0.00  0.00    +0.000 HD
ENDBRANCH  29  31
ENDBRANCH  22  25
ENDBRANCH  20  22
ENDBRANCH  19  20
ENDBRANCH   1  19
TORSDOF 10
ENDMDL
MODEL 9
REMARK VINA RESULT:      -7.4      4.351      9.753
REMARK  Name = 
REMARK  13 active torsions:
REMARK  status: ('A' for Active; 'I' for Inactive)
REMARK    1  A    between atoms: C_1  and  C_2
REMARK    2  A    between atoms: C_2  and  C_3
REMARK    3  A    between atoms: C_2  and  C_4
REMARK    4  A    between atoms: C_2  and  O_5
REMARK    5  A    between atoms: O_5  and  C_6
REMARK    6  A    between atoms: C_6  and  C_8
REMARK    7  A    between atoms: C_12  and  N_13
REMARK    8  A    between atoms: C_14  and  C_16
REMARK    9  A    between atoms: C_16  and  C_17
REMARK   10  A    between atoms: C_17  and  N_18
REMARK   11  A    between atoms: N_18  and  S_19
REMARK   12  A    between atoms: S_19  and  C_22
REMARK   13  A    between atoms: C_26  and  C_27
REMARK                            x       y       z     vdW  Elec       q    Type
REMARK                         _______ _______ _______ _____ _____    ______ ____
ROOT
ATOM      1  C   UNL     1      -0.758  10.333  23.093  0.00  0.00    +0.000 C 
ENDROOT
BRANCH   1   3
ATOM      2  N   UNL     1       0.058   9.569  20.905  0.00  0.00    +0.000 N 
ATOM      3  C   UNL     1       0.378   9.821  22.231  0.00  0.00    +0.000 C 
ATOM      4  O   UNL     1       1.480   9.640  22.743  0.00  0.00    +0.000 OA
ATOM      5  H   UNL     1      -0.881   9.785  20.585  0.00  0.00    +0.000 HD
BRANCH   2  10
ATOM      6  C   UNL     1       2.349   7.055  19.353  0.00  0.00    +0.000 A 
ATOM      7  C   UNL     1       2.732   7.707  18.179  0.00  0.00    +0.000 A 
ATOM      8  C   UNL     1       2.226   8.965  17.898  0.00  0.00    +0.000 A 
ATOM      9  C   UNL     1       1.340   9.576  18.786  0.00  0.00    +0.000 A 
ATOM     10  C   UNL     1       0.928   8.948  19.967  0.00  0.00    +0.000 A 
ATOM     11  C   UNL     1       1.431   7.670  20.239  0.00  0.00    +0.000 A 
BRANCH   6  12
ATOM     12  C   UNL     1       2.907   5.727  19.713  0.00  0.00    +0.000 C 
ATOM     13  O   UNL     1       2.609   5.162  20.747  0.00  0.00    +0.000 OA
BRANCH  12  14
ATOM     14  O   UNL     1       3.781   5.288  18.762  0.00  0.00    +0.000 OA
BRANCH  14  16
ATOM     15  C   UNL     1       2.035   3.972  17.645  0.00  0.00    +0.000 C 
ATOM     16  C   UNL     1       3.511   4.052  18.050  0.00  0.00    +0.000 C 
ATOM     17  C   UNL     1       3.959   2.842  18.876  0.00  0.00    +0.000 C 
ATOM     18  C   UNL     1       4.351   4.094  16.760  0.00  0.00    +0.000 C 
ENDBRANCH  14  16
ENDBRANCH  12  14
ENDBRANCH   6  12
ENDBRANCH   2  10
ENDBRANCH   1   3
BRANCH   1  19
ATOM     19  C   UNL     1      -1.024  11.807  22.747  0.00  0.00    +0.000 C 
BRANCH  19  20
ATOM     20  N   UNL     1      -1.877  11.906  21.538  0.00  0.00    +0.000 NA
ATOM     21  H   UNL     1      -2.152  11.005  21.133  0.00  0.00    +0.000 HD
BRANCH  20  22
ATOM     22  S   UNL     1      -3.284  12.837  21.668  0.00  0.00    +0.000 S 
ATOM     23  O   UNL     1      -4.008  12.325  22.810  0.00  0.00    +0.000 OA
ATOM     24  O   UNL     1      -2.924  14.231  21.554  0.00  0.00    +0.000 OA
BRANCH  22  25
ATOM     25  C   UNL     1      -4.200  12.367  20.227  0.00  0.00    +0.000 A 
ATOM     26  C   UNL     1      -5.588  12.228  20.305  0.00  0.00    +0.000 A 
ATOM     27  C   UNL     1      -6.294  11.775  19.192  0.00  0.00    +0.000 A 
ATOM     28  C   UNL     1      -5.615  11.460  18.012  0.00  0.00    +0.000 A 
ATOM     29  C   UNL     1      -4.222  11.609  17.935  0.00  0.00    +0.000 A 
ATOM     30  C   UNL     1      -3.510  12.062  19.049  0.00  0.00    +0.000 A 
BRANCH  29  31
ATOM     31  C   UNL     1      -3.488  11.259  16.685  0.00  0.00    +0.000 C 
ATOM     32  N   UNL     1      -2.232  11.521  16.505  0.00  0.00    +0.000 NA
ATOM     33  N   UNL     1      -4.130  10.637  15.656  0.00  0.00    +0.000 N 
ATOM     34  H   UNL     1      -1.809  11.944  17.334  0.00  0.00    +0.000 HD
ATOM     35  H   UNL     1      -5.097  10.892  15.499  0.00  0.00    +0.000 HD
ATOM     36  H   UNL     1      -3.574  10.672  14.807  0.00  0.00    +0.000 HD
ENDBRANCH  29  31
ENDBRANCH  22  25
ENDBRANCH  20  22
ENDBRANCH  19  20
ENDBRANCH   1  19
TORSDOF 10
ENDMDL
