MODEL 1
REMARK VINA RESULT:      -7.4      0.000      0.000
REMARK  Name = 
REMARK  9 active torsions:
REMARK  status: ('A' for Active; 'I' for Inactive)
REMARK    1  A    between atoms: C_1  and  C_2
REMARK    2  A    between atoms: C_2  and  C_3
REMARK    3  A    between atoms: C_2  and  C_21
REMARK    4  A    between atoms: C_3  and  C_4
REMARK    5  A    between atoms: C_7  and  C_8
REMARK    6  A    between atoms: C_8  and  O_10
REMARK    7  A    between atoms: O_10  and  C_11
REMARK    8  A    between atoms: C_14  and  C_15
REMARK    9  A    between atoms: C_21  and  O_23
REMARK                            x       y       z     vdW  Elec       q    Type
REMARK                         _______ _______ _______ _____ _____    ______ ____
ROOT
ATOM      1  C   UNL     1       6.050   6.268  16.633  0.00  0.00    +0.000 C 
ATOM      2  O   UNL     1       5.293   6.721  15.782  0.00  0.00    +0.000 OA
ENDROOT
BRANCH   1   6
ATOM      3  C   UNL     1       8.101   8.824  18.031  0.00  0.00    +0.000 A 
ATOM      4  C   UNL     1       8.549   7.801  18.836  0.00  0.00    +0.000 A 
ATOM      5  C   UNL     1       7.799   6.657  18.479  0.00  0.00    +0.000 A 
ATOM      6  C   UNL     1       6.954   7.038  17.453  0.00  0.00    +0.000 A 
ATOM      7  O   UNL     1       7.126   8.374  17.198  0.00  0.00    +0.000 OA
BRANCH   3   8
ATOM      8  C   UNL     1       8.458  10.262  17.913  0.00  0.00    +0.000 C 
BRANCH   8  10
ATOM      9  C   UNL     1      10.703  11.478  17.882  0.00  0.00    +0.000 C 
ATOM     10  C   UNL     1       9.745  10.595  18.681  0.00  0.00    +0.000 C 
BRANCH  10  11
ATOM     11  C   UNL     1       9.381  11.314  19.962  0.00  0.00    +0.000 C 
ATOM     12  O   UNL     1       9.073  12.493  20.033  0.00  0.00    +0.000 OA
BRANCH  11  13
ATOM     13  O   UNL     1       9.461  10.525  21.058  0.00  0.00    +0.000 OA
ATOM     14  H   UNL     1       8.613  10.391  21.522  0.00  0.00    +0.000 HD
ENDBRANCH  11  13
ENDBRANCH  10  11
ENDBRANCH   8  10
ENDBRANCH   3   8
ENDBRANCH   1   6
BRANCH   1  15
ATOM     15  O   UNL     1       6.108   4.932  17.012  0.00  0.00    +0.000 OA
BRANCH  15  16
ATOM     16  C   UNL     1       4.931   4.377  17.542  0.00  0.00    +0.000 A 
ATOM     17  C   UNL     1       4.647   4.664  18.876  0.00  0.00    +0.000 A 
ATOM     18  C   UNL     1       3.415   4.278  19.413  0.00  0.00    +0.000 A 
ATOM     19  C   UNL     1       2.472   3.622  18.609  0.00  0.00    +0.000 A 
ATOM     20  C   UNL     1       2.775   3.329  17.275  0.00  0.00    +0.000 A 
ATOM     21  C   UNL     1       4.001   3.717  16.736  0.00  0.00    +0.000 A 
BRANCH  19  22
ATOM     22  C   UNL     1       1.145   3.256  19.172  0.00  0.00    +0.000 C 
ATOM     23  N   UNL     1       0.360   2.385  18.620  0.00  0.00    +0.000 NA
ATOM     24  N   UNL     1       0.699   3.833  20.322  0.00  0.00    +0.000 N 
ATOM     25  H   UNL     1       0.744   2.039  17.738  0.00  0.00    +0.000 HD
ATOM     26  H   UNL     1       1.401   4.008  21.033  0.00  0.00    +0.000 HD
ATOM     27  H   UNL     1      -0.104   3.329  20.685  0.00  0.00    +0.000 HD
ENDBRANCH  19  22
ENDBRANCH  15  16
ENDBRANCH   1  15
TORSDOF 8
ENDMDL
MODEL 2
REMARK VINA RESULT:      -7.4      4.701      7.464
REMARK  Name = 
REMARK  9 active torsions:
REMARK  status: ('A' for Active; 'I' for Inactive)
REMARK    1  A    between atoms: C_1  and  C_2
REMARK    2  A    between atoms: C_2  and  C_3
REMARK    3  A    between atoms: C_2  and  C_21
REMARK    4  A    between atoms: C_3  and  C_4
REMARK    5  A    between atoms: C_7  and  C_8
REMARK    6  A    between atoms: C_8  and  O_10
REMARK    7  A    between atoms: O_10  and  C_11
REMARK    8  A    between atoms: C_14  and  C_15
REMARK    9  A    between atoms: C_21  and  O_23
REMARK                            x       y       z     vdW  Elec       q    Type
REMARK                         _______ _______ _______ _____ _____    ______ ____
ROOT
ATOM      1  C   UNL     1       5.860   5.427  18.412  0.00  0.00    +0.000 C 
ATOM      2  O   UNL     1       6.521   4.676  19.121  0.00  0.00    +0.000 OA
ENDROOT
BRANCH   1   6
ATOM      3  C   UNL     1       2.554   5.838  19.677  0.00  0.00    +0.000 A 
ATOM      4  C   UNL     1       2.461   6.779  18.677  0.00  0.00    +0.000 A 
ATOM      5  C   UNL     1       3.731   6.827  18.056  0.00  0.00    +0.000 A 
ATOM      6  C   UNL     1       4.522   5.887  18.694  0.00  0.00    +0.000 A 
ATOM      7  O   UNL     1       3.801   5.300  19.702  0.00  0.00    +0.000 OA
BRANCH   3   8
ATOM      8  C   UNL     1       1.595   5.328  20.692  0.00  0.00    +0.000 C 
BRANCH   8  10
ATOM      9  C   UNL     1       1.237   3.591  18.856  0.00  0.00    +0.000 C 
ATOM     10  C   UNL     1       1.081   3.926  20.338  0.00  0.00    +0.000 C 
BRANCH  10  11
ATOM     11  C   UNL     1       1.848   2.902  21.147  0.00  0.00    +0.000 C 
ATOM     12  O   UNL     1       1.485   2.454  22.223  0.00  0.00    +0.000 OA
BRANCH  11  13
ATOM     13  O   UNL     1       3.020   2.540  20.576  0.00  0.00    +0.000 OA
ATOM     14  H   UNL     1       3.814   2.854  21.048  0.00  0.00    +0.000 HD
ENDBRANCH  11  13
ENDBRANCH  10  11
ENDBRANCH   8  10
ENDBRANCH   3   8
ENDBRANCH   1   6
BRANCH   1  15
ATOM     15  O   UNL     1       6.321   6.030  17.248  0.00  0.00    +0.000 OA
BRANCH  15  16
ATOM     16  C   UNL     1       6.309   5.242  16.086  0.00  0.00    +0.000 A 
ATOM     17  C   UNL     1       5.170   4.472  15.860  0.00  0.00    +0.000 A 
ATOM     18  C   UNL     1       5.029   3.794  14.645  0.00  0.00    +0.000 A 
ATOM     19  C   UNL     1       6.021   3.904  13.660  0.00  0.00    +0.000 A 
ATOM     20  C   UNL     1       7.165   4.671  13.903  0.00  0.00    +0.000 A 
ATOM     21  C   UNL     1       7.306   5.351  15.113  0.00  0.00    +0.000 A 
BRANCH  19  22
ATOM     22  C   UNL     1       5.844   3.219  12.351  0.00  0.00    +0.000 C 
ATOM     23  N   UNL     1       4.729   3.235  11.692  0.00  0.00    +0.000 NA
ATOM     24  N   UNL     1       6.878   2.539  11.782  0.00  0.00    +0.000 N 
ATOM     25  H   UNL     1       3.993   3.721  12.209  0.00  0.00    +0.000 HD
ATOM     26  H   UNL     1       7.798   2.950  11.898  0.00  0.00    +0.000 HD
ATOM     27  H   UNL     1       6.669   2.320  10.813  0.00  0.00    +0.000 HD
ENDBRANCH  19  22
ENDBRANCH  15  16
ENDBRANCH   1  15
TORSDOF 8
ENDMDL
MODEL 3
REMARK VINA RESULT:      -7.4      0.272      1.404
REMARK  Name = 
REMARK  9 active torsions:
REMARK  status: ('A' for Active; 'I' for Inactive)
REMARK    1  A    between atoms: C_1  and  C_2
REMARK    2  A    between atoms: C_2  and  C_3
REMARK    3  A    between atoms: C_2  and  C_21
REMARK    4  A    between atoms: C_3  and  C_4
REMARK    5  A    between atoms: C_7  and  C_8
REMARK    6  A    between atoms: C_8  and  O_10
REMARK    7  A    between atoms: O_10  and  C_11
REMARK    8  A    between atoms: C_14  and  C_15
REMARK    9  A    between atoms: C_21  and  O_23
REMARK                            x       y       z     vdW  Elec       q    Type
REMARK                         _______ _______ _______ _____ _____    ______ ____
ROOT
ATOM      1  C   UNL     1       6.338   6.048  16.548  0.00  0.00    +0.000 C 
ATOM      2  O   UNL     1       5.821   6.384  15.489  0.00  0.00    +0.000 OA
ENDROOT
BRANCH   1   6
ATOM      3  C   UNL     1       8.122   8.768  18.003  0.00  0.00    +0.000 A 
ATOM      4  C   UNL     1       8.552   7.804  18.887  0.00  0.00    +0.000 A 
ATOM      5  C   UNL     1       7.896   6.606  18.517  0.00  0.00    +0.000 A 
ATOM      6  C   UNL     1       7.125   6.899  17.407  0.00  0.00    +0.000 A 
ATOM      7  O   UNL     1       7.249   8.232  17.110  0.00  0.00    +0.000 OA
BRANCH   3   8
ATOM      8  C   UNL     1       8.412  10.218  17.854  0.00  0.00    +0.000 C 
BRANCH   8  10
ATOM      9  C   UNL     1      10.608  11.514  17.726  0.00  0.00    +0.000 C 
ATOM     10  C   UNL     1       9.707  10.619  18.574  0.00  0.00    +0.000 C 
BRANCH  10  11
ATOM     11  C   UNL     1       9.353  11.358  19.847  0.00  0.00    +0.000 C 
ATOM     12  O   UNL     1       9.321  10.852  20.958  0.00  0.00    +0.000 OA
BRANCH  11  13
ATOM     13  O   UNL     1       9.033  12.656  19.639  0.00  0.00    +0.000 OA
ATOM     14  H   UNL     1       8.213  12.792  19.128  0.00  0.00    +0.000 HD
ENDBRANCH  11  13
ENDBRANCH  10  11
ENDBRANCH   8  10
ENDBRANCH   3   8
ENDBRANCH   1   6
BRANCH   1  15
ATOM     15  O   UNL     1       6.186   4.803  17.145  0.00  0.00    +0.000 OA
BRANCH  15  16
ATOM     16  C   UNL     1       4.914   4.505  17.662  0.00  0.00    +0.000 A 
ATOM     17  C   UNL     1       4.060   3.768  16.843  0.00  0.00    +0.000 A 
ATOM     18  C   UNL     1       2.847   3.303  17.359  0.00  0.00    +0.000 A 
ATOM     19  C   UNL     1       2.504   3.565  18.693  0.00  0.00    +0.000 A 
ATOM     20  C   UNL     1       3.364   4.315  19.501  0.00  0.00    +0.000 A 
ATOM     21  C   UNL     1       4.577   4.777  18.989  0.00  0.00    +0.000 A 
BRANCH  19  22
ATOM     22  C   UNL     1       1.233   3.027  19.250  0.00  0.00    +0.000 C 
ATOM     23  N   UNL     1       0.638   3.546  20.278  0.00  0.00    +0.000 NA
ATOM     24  N   UNL     1       0.633   1.946  18.681  0.00  0.00    +0.000 N 
ATOM     25  H   UNL     1       1.179   4.319  20.674  0.00  0.00    +0.000 HD
ATOM     26  H   UNL     1       0.680   1.891  17.670  0.00  0.00    +0.000 HD
ATOM     27  H   UNL     1      -0.315   1.840  19.032  0.00  0.00    +0.000 HD
ENDBRANCH  19  22
ENDBRANCH  15  16
ENDBRANCH   1  15
TORSDOF 8
ENDMDL
MODEL 4
REMARK VINA RESULT:      -7.3      4.101      7.242
REMARK  Name = 
REMARK  9 active torsions:
REMARK  status: ('A' for Active; 'I' for Inactive)
REMARK    1  A    between atoms: C_1  and  C_2
REMARK    2  A    between atoms: C_2  and  C_3
REMARK    3  A    between atoms: C_2  and  C_21
REMARK    4  A    between atoms: C_3  and  C_4
REMARK    5  A    between atoms: C_7  and  C_8
REMARK    6  A    between atoms: C_8  and  O_10
REMARK    7  A    between atoms: O_10  and  C_11
REMARK    8  A    between atoms: C_14  and  C_15
REMARK    9  A    between atoms: C_21  and  O_23
REMARK                            x       y       z     vdW  Elec       q    Type
REMARK                         _______ _______ _______ _____ _____    ______ ____
ROOT
ATOM      1  C   UNL     1       6.855   6.539  17.140  0.00  0.00    +0.000 C 
ATOM      2  O   UNL     1       7.059   7.742  17.018  0.00  0.00    +0.000 OA
ENDROOT
BRANCH   1   6
ATOM      3  C   UNL     1       3.724   5.540  18.517  0.00  0.00    +0.000 A 
ATOM      4  C   UNL     1       4.514   4.998  19.506  0.00  0.00    +0.000 A 
ATOM      5  C   UNL     1       5.854   5.236  19.119  0.00  0.00    +0.000 A 
ATOM      6  C   UNL     1       5.806   5.939  17.929  0.00  0.00    +0.000 A 
ATOM      7  O   UNL     1       4.498   6.102  17.552  0.00  0.00    +0.000 OA
BRANCH   3   8
ATOM      8  C   UNL     1       2.254   5.616  18.311  0.00  0.00    +0.000 C 
BRANCH   8  10
ATOM      9  C   UNL     1       2.720   3.337  17.257  0.00  0.00    +0.000 C 
ATOM     10  C   UNL     1       1.671   4.268  17.862  0.00  0.00    +0.000 C 
BRANCH  10  11
ATOM     11  C   UNL     1       1.047   3.580  19.057  0.00  0.00    +0.000 C 
ATOM     12  O   UNL     1       1.113   3.988  20.206  0.00  0.00    +0.000 OA
BRANCH  11  13
ATOM     13  O   UNL     1       0.420   2.423  18.740  0.00  0.00    +0.000 OA
ATOM     14  H   UNL     1      -0.325   2.193  19.327  0.00  0.00    +0.000 HD
ENDBRANCH  11  13
ENDBRANCH  10  11
ENDBRANCH   8  10
ENDBRANCH   3   8
ENDBRANCH   1   6
BRANCH   1  15
ATOM     15  O   UNL     1       7.556   5.544  16.470  0.00  0.00    +0.000 OA
BRANCH  15  16
ATOM     16  C   UNL     1       6.916   4.960  15.365  0.00  0.00    +0.000 A 
ATOM     17  C   UNL     1       7.471   5.212  14.111  0.00  0.00    +0.000 A 
ATOM     18  C   UNL     1       6.979   4.532  12.993  0.00  0.00    +0.000 A 
ATOM     19  C   UNL     1       5.947   3.595  13.139  0.00  0.00    +0.000 A 
ATOM     20  C   UNL     1       5.389   3.359  14.401  0.00  0.00    +0.000 A 
ATOM     21  C   UNL     1       5.882   4.034  15.518  0.00  0.00    +0.000 A 
BRANCH  19  22
ATOM     22  C   UNL     1       5.459   2.839  11.954  0.00  0.00    +0.000 C 
ATOM     23  N   UNL     1       6.069   1.800  11.479  0.00  0.00    +0.000 NA
ATOM     24  N   UNL     1       4.319   3.221  11.313  0.00  0.00    +0.000 N 
ATOM     25  H   UNL     1       6.939   1.612  11.984  0.00  0.00    +0.000 HD
ATOM     26  H   UNL     1       3.570   3.565  11.903  0.00  0.00    +0.000 HD
ATOM     27  H   UNL     1       4.008   2.493  10.676  0.00  0.00    +0.000 HD
ENDBRANCH  19  22
ENDBRANCH  15  16
ENDBRANCH   1  15
TORSDOF 8
ENDMDL
MODEL 5
REMARK VINA RESULT:      -7.3      4.040      7.229
REMARK  Name = 
REMARK  9 active torsions:
REMARK  status: ('A' for Active; 'I' for Inactive)
REMARK    1  A    between atoms: C_1  and  C_2
REMARK    2  A    between atoms: C_2  and  C_3
REMARK    3  A    between atoms: C_2  and  C_21
REMARK    4  A    between atoms: C_3  and  C_4
REMARK    5  A    between atoms: C_7  and  C_8
REMARK    6  A    between atoms: C_8  and  O_10
REMARK    7  A    between atoms: O_10  and  C_11
REMARK    8  A    between atoms: C_14  and  C_15
REMARK    9  A    between atoms: C_21  and  O_23
REMARK                            x       y       z     vdW  Elec       q    Type
REMARK                         _______ _______ _______ _____ _____    ______ ____
ROOT
ATOM      1  C   UNL     1       7.085   6.683  17.144  0.00  0.00    +0.000 C 
ATOM      2  O   UNL     1       7.743   7.717  17.111  0.00  0.00    +0.000 OA
ENDROOT
BRANCH   1   6
ATOM      3  C   UNL     1       3.985   5.633  18.552  0.00  0.00    +0.000 A 
ATOM      4  C   UNL     1       3.478   6.673  17.806  0.00  0.00    +0.000 A 
ATOM      5  C   UNL     1       4.586   7.293  17.183  0.00  0.00    +0.000 A 
ATOM      6  C   UNL     1       5.708   6.575  17.559  0.00  0.00    +0.000 A 
ATOM      7  O   UNL     1       5.336   5.573  18.418  0.00  0.00    +0.000 OA
BRANCH   3   8
ATOM      8  C   UNL     1       3.364   4.616  19.441  0.00  0.00    +0.000 C 
BRANCH   8  10
ATOM      9  C   UNL     1       4.069   2.201  19.876  0.00  0.00    +0.000 C 
ATOM     10  C   UNL     1       3.500   3.198  18.868  0.00  0.00    +0.000 C 
BRANCH  10  11
ATOM     11  C   UNL     1       2.136   2.713  18.427  0.00  0.00    +0.000 C 
ATOM     12  O   UNL     1       1.309   3.399  17.849  0.00  0.00    +0.000 OA
BRANCH  11  13
ATOM     13  O   UNL     1       1.891   1.426  18.768  0.00  0.00    +0.000 OA
ATOM     14  H   UNL     1       1.659   1.295  19.707  0.00  0.00    +0.000 HD
ENDBRANCH  11  13
ENDBRANCH  10  11
ENDBRANCH   8  10
ENDBRANCH   3   8
ENDBRANCH   1   6
BRANCH   1  15
ATOM     15  O   UNL     1       7.535   5.443  16.708  0.00  0.00    +0.000 OA
BRANCH  15  16
ATOM     16  C   UNL     1       6.901   4.909  15.573  0.00  0.00    +0.000 A 
ATOM     17  C   UNL     1       7.445   5.242  14.334  0.00  0.00    +0.000 A 
ATOM     18  C   UNL     1       6.962   4.615  13.181  0.00  0.00    +0.000 A 
ATOM     19  C   UNL     1       5.949   3.651  13.278  0.00  0.00    +0.000 A 
ATOM     20  C   UNL     1       5.403   3.334  14.526  0.00  0.00    +0.000 A 
ATOM     21  C   UNL     1       5.886   3.955  15.678  0.00  0.00    +0.000 A 
BRANCH  19  22
ATOM     22  C   UNL     1       5.471   2.953  12.054  0.00  0.00    +0.000 C 
ATOM     23  N   UNL     1       4.410   3.314  11.405  0.00  0.00    +0.000 NA
ATOM     24  N   UNL     1       6.155   1.885  11.556  0.00  0.00    +0.000 N 
ATOM     25  H   UNL     1       3.929   4.087  11.871  0.00  0.00    +0.000 HD
ATOM     26  H   UNL     1       7.166   1.936  11.619  0.00  0.00    +0.000 HD
ATOM     27  H   UNL     1       5.835   1.664  10.618  0.00  0.00    +0.000 HD
ENDBRANCH  19  22
ENDBRANCH  15  16
ENDBRANCH   1  15
TORSDOF 8
ENDMDL
MODEL 6
REMARK VINA RESULT:      -7.3      3.995      6.837
REMARK  Name = 
REMARK  9 active torsions:
REMARK  status: ('A' for Active; 'I' for Inactive)
REMARK    1  A    between atoms: C_1  and  C_2
REMARK    2  A    between atoms: C_2  and  C_3
REMARK    3  A    between atoms: C_2  and  C_21
REMARK    4  A    between atoms: C_3  and  C_4
REMARK    5  A    between atoms: C_7  and  C_8
REMARK    6  A    between atoms: C_8  and  O_10
REMARK    7  A    between atoms: O_10  and  C_11
REMARK    8  A    between atoms: C_14  and  C_15
REMARK    9  A    between atoms: C_21  and  O_23
REMARK                            x       y       z     vdW  Elec       q    Type
REMARK                         _______ _______ _______ _____ _____    ______ ____
ROOT
ATOM      1  C   UNL     1       7.133   4.785  17.490  0.00  0.00    +0.000 C 
ATOM      2  O   UNL     1       8.150   4.150  17.745  0.00  0.00    +0.000 OA
ENDROOT
BRANCH   1   6
ATOM      3  C   UNL     1       6.305   4.515  14.035  0.00  0.00    +0.000 A 
ATOM      4  C   UNL     1       5.371   5.476  14.349  0.00  0.00    +0.000 A 
ATOM      5  C   UNL     1       5.487   5.704  15.740  0.00  0.00    +0.000 A 
ATOM      6  C   UNL     1       6.509   4.890  16.194  0.00  0.00    +0.000 A 
ATOM      7  O   UNL     1       6.991   4.145  15.148  0.00  0.00    +0.000 OA
BRANCH   3   8
ATOM      8  C   UNL     1       6.680   3.830  12.770  0.00  0.00    +0.000 C 
BRANCH   8  10
ATOM      9  C   UNL     1       4.507   3.423  11.494  0.00  0.00    +0.000 C 
ATOM     10  C   UNL     1       5.621   2.807  12.339  0.00  0.00    +0.000 C 
BRANCH  10  11
ATOM     11  C   UNL     1       6.291   1.716  11.531  0.00  0.00    +0.000 C 
ATOM     12  O   UNL     1       5.751   0.677  11.185  0.00  0.00    +0.000 OA
BRANCH  11  13
ATOM     13  O   UNL     1       7.587   1.983  11.246  0.00  0.00    +0.000 OA
ATOM     14  H   UNL     1       7.751   2.241  10.319  0.00  0.00    +0.000 HD
ENDBRANCH  11  13
ENDBRANCH  10  11
ENDBRANCH   8  10
ENDBRANCH   3   8
ENDBRANCH   1   6
BRANCH   1  15
ATOM     15  O   UNL     1       6.359   5.454  18.431  0.00  0.00    +0.000 OA
BRANCH  15  16
ATOM     16  C   UNL     1       5.169   4.821  18.829  0.00  0.00    +0.000 A 
ATOM     17  C   UNL     1       4.023   5.611  18.879  0.00  0.00    +0.000 A 
ATOM     18  C   UNL     1       2.782   5.008  19.109  0.00  0.00    +0.000 A 
ATOM     19  C   UNL     1       2.697   3.618  19.273  0.00  0.00    +0.000 A 
ATOM     20  C   UNL     1       3.857   2.837  19.233  0.00  0.00    +0.000 A 
ATOM     21  C   UNL     1       5.094   3.437  19.000  0.00  0.00    +0.000 A 
BRANCH  19  22
ATOM     22  C   UNL     1       1.370   2.976  19.472  0.00  0.00    +0.000 C 
ATOM     23  N   UNL     1       0.562   3.305  20.430  0.00  0.00    +0.000 NA
ATOM     24  N   UNL     1       0.943   1.997  18.626  0.00  0.00    +0.000 N 
ATOM     25  H   UNL     1       0.978   4.007  21.047  0.00  0.00    +0.000 HD
ATOM     26  H   UNL     1       1.188   2.115  17.649  0.00  0.00    +0.000 HD
ATOM     27  H   UNL     1      -0.049   1.819  18.759  0.00  0.00    +0.000 HD
ENDBRANCH  19  22
ENDBRANCH  15  16
ENDBRANCH   1  15
TORSDOF 8
ENDMDL
MODEL 7
REMARK VINA RESULT:      -7.3      4.562      7.401
REMARK  Name = 
REMARK  9 active torsions:
REMARK  status: ('A' for Active; 'I' for Inactive)
REMARK    1  A    between atoms: C_1  and  C_2
REMARK    2  A    between atoms: C_2  and  C_3
REMARK    3  A    between atoms: C_2  and  C_21
REMARK    4  A    between atoms: C_3  and  C_4
REMARK    5  A    between atoms: C_7  and  C_8
REMARK    6  A    between atoms: C_8  and  O_10
REMARK    7  A    between atoms: O_10  and  C_11
REMARK    8  A    between atoms: C_14  and  C_15
REMARK    9  A    between atoms: C_21  and  O_23
REMARK                            x       y       z     vdW  Elec       q    Type
REMARK                         _______ _______ _______ _____ _____    ______ ____
ROOT
ATOM      1  C   UNL     1       7.068   5.619  17.147  0.00  0.00    +0.000 C 
ATOM      2  O   UNL     1       7.924   5.096  17.852  0.00  0.00    +0.000 OA
ENDROOT
BRANCH   1   6
ATOM      3  C   UNL     1       3.820   5.715  18.610  0.00  0.00    +0.000 A 
ATOM      4  C   UNL     1       3.674   6.833  17.820  0.00  0.00    +0.000 A 
ATOM      5  C   UNL     1       4.914   7.024  17.166  0.00  0.00    +0.000 A 
ATOM      6  C   UNL     1       5.740   5.991  17.571  0.00  0.00    +0.000 A 
ATOM      7  O   UNL     1       5.072   5.205  18.474  0.00  0.00    +0.000 OA
BRANCH   3   8
ATOM      8  C   UNL     1       2.913   4.999  19.545  0.00  0.00    +0.000 C 
BRANCH   8  10
ATOM      9  C   UNL     1       2.280   3.696  17.443  0.00  0.00    +0.000 C 
ATOM     10  C   UNL     1       1.816   4.228  18.798  0.00  0.00    +0.000 C 
BRANCH  10  11
ATOM     11  C   UNL     1       1.372   3.057  19.649  0.00  0.00    +0.000 C 
ATOM     12  O   UNL     1       1.689   1.895  19.451  0.00  0.00    +0.000 OA
BRANCH  11  13
ATOM     13  O   UNL     1       0.543   3.415  20.657  0.00  0.00    +0.000 OA
ATOM     14  H   UNL     1       0.889   4.123  21.233  0.00  0.00    +0.000 HD
ENDBRANCH  11  13
ENDBRANCH  10  11
ENDBRANCH   8  10
ENDBRANCH   3   8
ENDBRANCH   1   6
BRANCH   1  15
ATOM     15  O   UNL     1       7.262   6.017  15.830  0.00  0.00    +0.000 OA
BRANCH  15  16
ATOM     16  C   UNL     1       6.919   5.086  14.835  0.00  0.00    +0.000 A 
ATOM     17  C   UNL     1       5.776   4.321  15.058  0.00  0.00    +0.000 A 
ATOM     18  C   UNL     1       5.293   3.495  14.038  0.00  0.00    +0.000 A 
ATOM     19  C   UNL     1       5.949   3.453  12.799  0.00  0.00    +0.000 A 
ATOM     20  C   UNL     1       7.102   4.217  12.592  0.00  0.00    +0.000 A 
ATOM     21  C   UNL     1       7.583   5.044  13.607  0.00  0.00    +0.000 A 
BRANCH  19  22
ATOM     22  C   UNL     1       5.404   2.609  11.701  0.00  0.00    +0.000 C 
ATOM     23  N   UNL     1       6.007   1.551  11.260  0.00  0.00    +0.000 NA
ATOM     24  N   UNL     1       4.218   2.925  11.110  0.00  0.00    +0.000 N 
ATOM     25  H   UNL     1       6.910   1.413  11.719  0.00  0.00    +0.000 HD
ATOM     26  H   UNL     1       3.501   3.296  11.723  0.00  0.00    +0.000 HD
ATOM     27  H   UNL     1       3.884   2.150  10.546  0.00  0.00    +0.000 HD
ENDBRANCH  19  22
ENDBRANCH  15  16
ENDBRANCH   1  15
TORSDOF 8
ENDMDL
MODEL 8
REMARK VINA RESULT:      -7.3      4.720      7.602
REMARK  Name = 
REMARK  9 active torsions:
REMARK  status: ('A' for Active; 'I' for Inactive)
REMARK    1  A    between atoms: C_1  and  C_2
REMARK    2  A    between atoms: C_2  and  C_3
REMARK    3  A    between atoms: C_2  and  C_21
REMARK    4  A    between atoms: C_3  and  C_4
REMARK    5  A    between atoms: C_7  and  C_8
REMARK    6  A    between atoms: C_8  and  O_10
REMARK    7  A    between atoms: O_10  and  C_11
REMARK    8  A    between atoms: C_14  and  C_15
REMARK    9  A    between atoms: C_21  and  O_23
REMARK                            x       y       z     vdW  Elec       q    Type
REMARK                         _______ _______ _______ _____ _____    ______ ____
ROOT
ATOM      1  C   UNL     1       6.997   4.910  18.005  0.00  0.00    +0.000 C 
ATOM      2  O   UNL     1       8.031   4.330  18.317  0.00  0.00    +0.000 OA
ENDROOT
BRANCH   1   6
ATOM      3  C   UNL     1       4.048   3.891  19.727  0.00  0.00    +0.000 A 
ATOM      4  C   UNL     1       3.742   5.232  19.666  0.00  0.00    +0.000 A 
ATOM      5  C   UNL     1       4.847   5.863  19.047  0.00  0.00    +0.000 A 
ATOM      6  C   UNL     1       5.754   4.866  18.737  0.00  0.00    +0.000 A 
ATOM      7  O   UNL     1       5.269   3.661  19.177  0.00  0.00    +0.000 OA
BRANCH   3   8
ATOM      8  C   UNL     1       3.332   2.704  20.263  0.00  0.00    +0.000 C 
BRANCH   8  10
ATOM      9  C   UNL     1       0.987   3.711  20.187  0.00  0.00    +0.000 C 
ATOM     10  C   UNL     1       1.908   2.594  19.700  0.00  0.00    +0.000 C 
BRANCH  10  11
ATOM     11  C   UNL     1       1.972   2.646  18.189  0.00  0.00    +0.000 C 
ATOM     12  O   UNL     1       2.663   1.915  17.497  0.00  0.00    +0.000 OA
BRANCH  11  13
ATOM     13  O   UNL     1       1.200   3.621  17.655  0.00  0.00    +0.000 OA
ATOM     14  H   UNL     1       0.249   3.539  17.857  0.00  0.00    +0.000 HD
ENDBRANCH  11  13
ENDBRANCH  10  11
ENDBRANCH   8  10
ENDBRANCH   3   8
ENDBRANCH   1   6
BRANCH   1  15
ATOM     15  O   UNL     1       6.869   5.779  16.928  0.00  0.00    +0.000 OA
BRANCH  15  16
ATOM     16  C   UNL     1       6.462   5.213  15.709  0.00  0.00    +0.000 A 
ATOM     17  C   UNL     1       7.409   5.171  14.688  0.00  0.00    +0.000 A 
ATOM     18  C   UNL     1       7.119   4.477  13.510  0.00  0.00    +0.000 A 
ATOM     19  C   UNL     1       5.890   3.817  13.368  0.00  0.00    +0.000 A 
ATOM     20  C   UNL     1       4.942   3.877  14.395  0.00  0.00    +0.000 A 
ATOM     21  C   UNL     1       5.232   4.566  15.572  0.00  0.00    +0.000 A 
BRANCH  19  22
ATOM     22  C   UNL     1       5.605   3.041  12.131  0.00  0.00    +0.000 C 
ATOM     23  N   UNL     1       4.524   3.197  11.433  0.00  0.00    +0.000 NA
ATOM     24  N   UNL     1       6.496   2.118  11.674  0.00  0.00    +0.000 N 
ATOM     25  H   UNL     1       3.888   3.868  11.870  0.00  0.00    +0.000 HD
ATOM     26  H   UNL     1       7.476   2.355  11.780  0.00  0.00    +0.000 HD
ATOM     27  H   UNL     1       6.264   1.838  10.725  0.00  0.00    +0.000 HD
ENDBRANCH  19  22
ENDBRANCH  15  16
ENDBRANCH   1  15
TORSDOF 8
ENDMDL
MODEL 9
REMARK VINA RESULT:      -7.2      4.142      7.277
REMARK  Name = 
REMARK  9 active torsions:
REMARK  status: ('A' for Active; 'I' for Inactive)
REMARK    1  A    between atoms: C_1  and  C_2
REMARK    2  A    between atoms: C_2  and  C_3
REMARK    3  A    between atoms: C_2  and  C_21
REMARK    4  A    between atoms: C_3  and  C_4
REMARK    5  A    between atoms: C_7  and  C_8
REMARK    6  A    between atoms: C_8  and  O_10
REMARK    7  A    between atoms: O_10  and  C_11
REMARK    8  A    between atoms: C_14  and  C_15
REMARK    9  A    between atoms: C_21  and  O_23
REMARK                            x       y       z     vdW  Elec       q    Type
REMARK                         _______ _______ _______ _____ _____    ______ ____
ROOT
ATOM      1  C   UNL     1       6.827   6.685  16.981  0.00  0.00    +0.000 C 
ATOM      2  O   UNL     1       6.800   7.902  16.836  0.00  0.00    +0.000 OA
ENDROOT
BRANCH   1   6
ATOM      3  C   UNL     1       4.150   5.351  18.918  0.00  0.00    +0.000 A 
ATOM      4  C   UNL     1       5.168   4.711  19.588  0.00  0.00    +0.000 A 
ATOM      5  C   UNL     1       6.366   5.066  18.925  0.00  0.00    +0.000 A 
ATOM      6  C   UNL     1       6.015   5.929  17.903  0.00  0.00    +0.000 A 
ATOM      7  O   UNL     1       4.653   6.082  17.888  0.00  0.00    +0.000 OA
BRANCH   3   8
ATOM      8  C   UNL     1       2.675   5.386  19.093  0.00  0.00    +0.000 C 
BRANCH   8  10
ATOM      9  C   UNL     1       0.890   4.107  20.396  0.00  0.00    +0.000 C 
ATOM     10  C   UNL     1       2.115   4.012  19.489  0.00  0.00    +0.000 C 
BRANCH  10  11
ATOM     11  C   UNL     1       1.729   3.259  18.234  0.00  0.00    +0.000 C 
ATOM     12  O   UNL     1       1.363   3.783  17.194  0.00  0.00    +0.000 OA
BRANCH  11  13
ATOM     13  O   UNL     1       1.792   1.915  18.378  0.00  0.00    +0.000 OA
ATOM     14  H   UNL     1       1.583   1.411  17.568  0.00  0.00    +0.000 HD
ENDBRANCH  11  13
ENDBRANCH  10  11
ENDBRANCH   8  10
ENDBRANCH   3   8
ENDBRANCH   1   6
BRANCH   1  15
ATOM     15  O   UNL     1       7.595   5.813  16.218  0.00  0.00    +0.000 OA
BRANCH  15  16
ATOM     16  C   UNL     1       6.941   5.164  15.158  0.00  0.00    +0.000 A 
ATOM     17  C   UNL     1       7.546   5.241  13.905  0.00  0.00    +0.000 A 
ATOM     18  C   UNL     1       7.033   4.484  12.847  0.00  0.00    +0.000 A 
ATOM     19  C   UNL     1       5.929   3.645  13.054  0.00  0.00    +0.000 A 
ATOM     20  C   UNL     1       5.323   3.586  14.313  0.00  0.00    +0.000 A 
ATOM     21  C   UNL     1       5.836   4.338  15.371  0.00  0.00    +0.000 A 
BRANCH  19  22
ATOM     22  C   UNL     1       5.416   2.807  11.937  0.00  0.00    +0.000 C 
ATOM     23  N   UNL     1       6.023   1.741  11.519  0.00  0.00    +0.000 NA
ATOM     24  N   UNL     1       4.257   3.135  11.303  0.00  0.00    +0.000 N 
ATOM     25  H   UNL     1       6.907   1.594  12.011  0.00  0.00    +0.000 HD
ATOM     26  H   UNL     1       3.521   3.515  11.889  0.00  0.00    +0.000 HD
ATOM     27  H   UNL     1       3.935   2.363  10.726  0.00  0.00    +0.000 HD
ENDBRANCH  19  22
ENDBRANCH  15  16
ENDBRANCH   1  15
TORSDOF 8
ENDMDL
