MODEL 1
REMARK VINA RESULT:      -8.0      0.000      0.000
REMARK  Name = 
REMARK  11 active torsions:
REMARK  status: ('A' for Active; 'I' for Inactive)
REMARK    1  A    between atoms: C_1  and  O_2
REMARK    2  A    between atoms: O_2  and  C_3
REMARK    3  A    between atoms: C_6  and  C_7
REMARK    4  A    between atoms: C_7  and  N_8
REMARK    5  A    between atoms: C_12  and  N_13
REMARK    6  A    between atoms: C_14  and  C_16
REMARK    7  A    between atoms: C_16  and  C_17
REMARK    8  A    between atoms: C_17  and  C_18
REMARK    9  A    between atoms: C_17  and  C_19
REMARK   10  A    between atoms: C_17  and  C_20
REMARK   11  A    between atoms: C_25  and  C_26
REMARK                            x       y       z     vdW  Elec       q    Type
REMARK                         _______ _______ _______ _____ _____    ______ ____
ROOT
ATOM      1  N   UNL     1      -0.902  11.490  21.100  0.00  0.00    +0.000 N 
ATOM      2  C   UNL     1       0.385  10.875  21.468  0.00  0.00    +0.000 C 
ATOM      3  C   UNL     1       0.961   9.971  20.378  0.00  0.00    +0.000 A 
ATOM      4  C   UNL     1       1.279   8.640  20.727  0.00  0.00    +0.000 A 
ATOM      5  C   UNL     1       1.739   7.716  19.783  0.00  0.00    +0.000 A 
ATOM      6  C   UNL     1       1.884   8.118  18.456  0.00  0.00    +0.000 A 
ATOM      7  C   UNL     1       1.638   9.440  18.098  0.00  0.00    +0.000 A 
ATOM      8  C   UNL     1       1.201  10.373  19.045  0.00  0.00    +0.000 A 
ATOM      9  O   UNL     1       1.028  11.620  18.492  0.00  0.00    +0.000 OA
ATOM     10  C   UNL     1       0.202  12.515  19.210  0.00  0.00    +0.000 C 
ATOM     11  C   UNL     1      -0.235  13.689  18.348  0.00  0.00    +0.000 C 
ATOM     12  C   UNL     1      -1.042  11.811  19.750  0.00  0.00    +0.000 C 
ATOM     13  O   UNL     1      -2.062  11.582  19.109  0.00  0.00    +0.000 OA
ENDROOT
BRANCH   5  14
ATOM     14  N   UNL     1       2.115   6.388  20.101  0.00  0.00    +0.000 N 
ATOM     15  C   UNL     1       3.177   5.680  19.581  0.00  0.00    +0.000 C 
ATOM     16  O   UNL     1       4.068   6.127  18.874  0.00  0.00    +0.000 OA
ATOM     17  H   UNL     1       1.548   5.927  20.803  0.00  0.00    +0.000 HD
BRANCH  15  18
ATOM     18  C   UNL     1       3.150   4.198  19.930  0.00  0.00    +0.000 C 
BRANCH  18  19
ATOM     19  C   UNL     1       2.164   3.366  19.070  0.00  0.00    +0.000 C 
ATOM     20  C   UNL     1       1.811   4.090  17.758  0.00  0.00    +0.000 C 
ATOM     21  C   UNL     1       2.844   2.029  18.712  0.00  0.00    +0.000 C 
ATOM     22  C   UNL     1       0.870   3.063  19.844  0.00  0.00    +0.000 C 
ENDBRANCH  18  19
ENDBRANCH  15  18
ENDBRANCH   5  14
BRANCH   1  23
ATOM     23  C   UNL     1      -1.364  12.607  21.918  0.00  0.00    +0.000 C 
BRANCH  23  27
ATOM     24  C   UNL     1      -5.359  12.686  23.525  0.00  0.00    +0.000 A 
ATOM     25  C   UNL     1      -4.270  12.357  24.330  0.00  0.00    +0.000 A 
ATOM     26  C   UNL     1      -2.986  12.303  23.791  0.00  0.00    +0.000 A 
ATOM     27  C   UNL     1      -2.773  12.549  22.426  0.00  0.00    +0.000 A 
ATOM     28  C   UNL     1      -3.865  12.898  21.627  0.00  0.00    +0.000 A 
ATOM     29  C   UNL     1      -5.153  12.956  22.171  0.00  0.00    +0.000 A 
BRANCH  24  31
ATOM     30  C   UNL     1      -7.718  12.799  23.347  0.00  0.00    +0.000 C 
ATOM     31  O   UNL     1      -6.564  12.701  24.170  0.00  0.00    +0.000 OA
ENDBRANCH  24  31
ENDBRANCH  23  27
ENDBRANCH   1  23
TORSDOF 6
ENDMDL
MODEL 2
REMARK VINA RESULT:      -7.9      3.728     10.769
REMARK  Name = 
REMARK  11 active torsions:
REMARK  status: ('A' for Active; 'I' for Inactive)
REMARK    1  A    between atoms: C_1  and  O_2
REMARK    2  A    between atoms: O_2  and  C_3
REMARK    3  A    between atoms: C_6  and  C_7
REMARK    4  A    between atoms: C_7  and  N_8
REMARK    5  A    between atoms: C_12  and  N_13
REMARK    6  A    between atoms: C_14  and  C_16
REMARK    7  A    between atoms: C_16  and  C_17
REMARK    8  A    between atoms: C_17  and  C_18
REMARK    9  A    between atoms: C_17  and  C_19
REMARK   10  A    between atoms: C_17  and  C_20
REMARK   11  A    between atoms: C_25  and  C_26
REMARK                            x       y       z     vdW  Elec       q    Type
REMARK                         _______ _______ _______ _____ _____    ______ ____
ROOT
ATOM      1  N   UNL     1       2.808   4.590  17.870  0.00  0.00    +0.000 N 
ATOM      2  C   UNL     1       3.446   5.887  18.149  0.00  0.00    +0.000 C 
ATOM      3  C   UNL     1       2.616   6.791  19.060  0.00  0.00    +0.000 A 
ATOM      4  C   UNL     1       2.307   8.089  18.595  0.00  0.00    +0.000 A 
ATOM      5  C   UNL     1       1.491   8.961  19.323  0.00  0.00    +0.000 A 
ATOM      6  C   UNL     1       0.961   8.537  20.540  0.00  0.00    +0.000 A 
ATOM      7  C   UNL     1       1.301   7.287  21.051  0.00  0.00    +0.000 A 
ATOM      8  C   UNL     1       2.136   6.422  20.337  0.00  0.00    +0.000 A 
ATOM      9  O   UNL     1       2.357   5.247  21.018  0.00  0.00    +0.000 OA
ATOM     10  C   UNL     1       2.807   4.152  20.247  0.00  0.00    +0.000 C 
ATOM     11  C   UNL     1       2.645   2.837  20.993  0.00  0.00    +0.000 C 
ATOM     12  C   UNL     1       2.056   4.060  18.919  0.00  0.00    +0.000 C 
ATOM     13  O   UNL     1       0.951   3.553  18.763  0.00  0.00    +0.000 OA
ENDROOT
BRANCH   5  14
ATOM     14  N   UNL     1       1.197  10.285  18.916  0.00  0.00    +0.000 N 
ATOM     15  C   UNL     1       0.085  11.028  19.250  0.00  0.00    +0.000 C 
ATOM     16  O   UNL     1      -0.761  10.730  20.080  0.00  0.00    +0.000 OA
ATOM     17  H   UNL     1       1.896  10.732  18.334  0.00  0.00    +0.000 HD
BRANCH  15  18
ATOM     18  C   UNL     1      -0.057  12.310  18.440  0.00  0.00    +0.000 C 
BRANCH  18  19
ATOM     19  C   UNL     1       0.783  13.495  18.984  0.00  0.00    +0.000 C 
ATOM     20  C   UNL     1       2.117  13.633  18.230  0.00  0.00    +0.000 C 
ATOM     21  C   UNL     1      -0.023  14.793  18.777  0.00  0.00    +0.000 C 
ATOM     22  C   UNL     1       1.066  13.332  20.487  0.00  0.00    +0.000 C 
ENDBRANCH  18  19
ENDBRANCH  15  18
ENDBRANCH   5  14
BRANCH   1  23
ATOM     23  C   UNL     1       3.647   3.545  17.294  0.00  0.00    +0.000 C 
BRANCH  23  27
ATOM     24  C   UNL     1       7.065   5.049  15.149  0.00  0.00    +0.000 A 
ATOM     25  C   UNL     1       5.888   4.719  14.479  0.00  0.00    +0.000 A 
ATOM     26  C   UNL     1       4.800   4.203  15.179  0.00  0.00    +0.000 A 
ATOM     27  C   UNL     1       4.881   3.979  16.563  0.00  0.00    +0.000 A 
ATOM     28  C   UNL     1       6.056   4.330  17.233  0.00  0.00    +0.000 A 
ATOM     29  C   UNL     1       7.146   4.852  16.528  0.00  0.00    +0.000 A 
BRANCH  24  31
ATOM     30  C   UNL     1       7.905   5.334  12.953  0.00  0.00    +0.000 C 
ATOM     31  O   UNL     1       8.059   5.542  14.351  0.00  0.00    +0.000 OA
ENDBRANCH  24  31
ENDBRANCH  23  27
ENDBRANCH   1  23
TORSDOF 6
ENDMDL
MODEL 3
REMARK VINA RESULT:      -7.8      3.185     10.691
REMARK  Name = 
REMARK  11 active torsions:
REMARK  status: ('A' for Active; 'I' for Inactive)
REMARK    1  A    between atoms: C_1  and  O_2
REMARK    2  A    between atoms: O_2  and  C_3
REMARK    3  A    between atoms: C_6  and  C_7
REMARK    4  A    between atoms: C_7  and  N_8
REMARK    5  A    between atoms: C_12  and  N_13
REMARK    6  A    between atoms: C_14  and  C_16
REMARK    7  A    between atoms: C_16  and  C_17
REMARK    8  A    between atoms: C_17  and  C_18
REMARK    9  A    between atoms: C_17  and  C_19
REMARK   10  A    between atoms: C_17  and  C_20
REMARK   11  A    between atoms: C_25  and  C_26
REMARK                            x       y       z     vdW  Elec       q    Type
REMARK                         _______ _______ _______ _____ _____    ______ ____
ROOT
ATOM      1  N   UNL     1       2.829   4.527  18.007  0.00  0.00    +0.000 N 
ATOM      2  C   UNL     1       3.455   5.814  18.353  0.00  0.00    +0.000 C 
ATOM      3  C   UNL     1       2.575   6.703  19.231  0.00  0.00    +0.000 A 
ATOM      4  C   UNL     1       2.302   8.013  18.777  0.00  0.00    +0.000 A 
ATOM      5  C   UNL     1       1.447   8.874  19.473  0.00  0.00    +0.000 A 
ATOM      6  C   UNL     1       0.841   8.427  20.646  0.00  0.00    +0.000 A 
ATOM      7  C   UNL     1       1.143   7.164  21.149  0.00  0.00    +0.000 A 
ATOM      8  C   UNL     1       2.017   6.309  20.468  0.00  0.00    +0.000 A 
ATOM      9  O   UNL     1       2.190   5.119  21.135  0.00  0.00    +0.000 OA
ATOM     10  C   UNL     1       2.681   4.038  20.370  0.00  0.00    +0.000 C 
ATOM     11  C   UNL     1       2.467   2.708  21.075  0.00  0.00    +0.000 C 
ATOM     12  C   UNL     1       2.012   3.980  18.996  0.00  0.00    +0.000 C 
ATOM     13  O   UNL     1       0.916   3.483  18.762  0.00  0.00    +0.000 OA
ENDROOT
BRANCH   5  14
ATOM     14  N   UNL     1       1.185  10.208  19.078  0.00  0.00    +0.000 N 
ATOM     15  C   UNL     1       1.180  11.326  19.885  0.00  0.00    +0.000 C 
ATOM     16  O   UNL     1       1.552  11.380  21.048  0.00  0.00    +0.000 OA
ATOM     17  H   UNL     1       1.005  10.348  18.091  0.00  0.00    +0.000 HD
BRANCH  15  18
ATOM     18  C   UNL     1       0.605  12.564  19.209  0.00  0.00    +0.000 C 
BRANCH  18  19
ATOM     19  C   UNL     1      -0.928  12.719  19.378  0.00  0.00    +0.000 C 
ATOM     20  C   UNL     1      -1.442  11.940  20.602  0.00  0.00    +0.000 C 
ATOM     21  C   UNL     1      -1.242  14.213  19.593  0.00  0.00    +0.000 C 
ATOM     22  C   UNL     1      -1.677  12.240  18.123  0.00  0.00    +0.000 C 
ENDBRANCH  18  19
ENDBRANCH  15  18
ENDBRANCH   5  14
BRANCH   1  23
ATOM     23  C   UNL     1       3.697   3.490  17.460  0.00  0.00    +0.000 C 
BRANCH  23  27
ATOM     24  C   UNL     1       7.045   5.034  15.234  0.00  0.00    +0.000 A 
ATOM     25  C   UNL     1       5.841   4.734  14.599  0.00  0.00    +0.000 A 
ATOM     26  C   UNL     1       4.775   4.204  15.325  0.00  0.00    +0.000 A 
ATOM     27  C   UNL     1       4.906   3.937  16.697  0.00  0.00    +0.000 A 
ATOM     28  C   UNL     1       6.109   4.259  17.332  0.00  0.00    +0.000 A 
ATOM     29  C   UNL     1       7.176   4.794  16.602  0.00  0.00    +0.000 A 
BRANCH  24  31
ATOM     30  C   UNL     1       7.857   5.289  13.024  0.00  0.00    +0.000 C 
ATOM     31  O   UNL     1       8.012   5.543  14.414  0.00  0.00    +0.000 OA
ENDBRANCH  24  31
ENDBRANCH  23  27
ENDBRANCH   1  23
TORSDOF 6
ENDMDL
MODEL 4
REMARK VINA RESULT:      -7.7      3.819     10.748
REMARK  Name = 
REMARK  11 active torsions:
REMARK  status: ('A' for Active; 'I' for Inactive)
REMARK    1  A    between atoms: C_1  and  O_2
REMARK    2  A    between atoms: O_2  and  C_3
REMARK    3  A    between atoms: C_6  and  C_7
REMARK    4  A    between atoms: C_7  and  N_8
REMARK    5  A    between atoms: C_12  and  N_13
REMARK    6  A    between atoms: C_14  and  C_16
REMARK    7  A    between atoms: C_16  and  C_17
REMARK    8  A    between atoms: C_17  and  C_18
REMARK    9  A    between atoms: C_17  and  C_19
REMARK   10  A    between atoms: C_17  and  C_20
REMARK   11  A    between atoms: C_25  and  C_26
REMARK                            x       y       z     vdW  Elec       q    Type
REMARK                         _______ _______ _______ _____ _____    ______ ____
ROOT
ATOM      1  N   UNL     1       2.941   4.790  18.183  0.00  0.00    +0.000 N 
ATOM      2  C   UNL     1       3.469   6.090  18.629  0.00  0.00    +0.000 C 
ATOM      3  C   UNL     1       2.477   6.894  19.469  0.00  0.00    +0.000 A 
ATOM      4  C   UNL     1       2.169   8.207  19.047  0.00  0.00    +0.000 A 
ATOM      5  C   UNL     1       1.218   8.992  19.706  0.00  0.00    +0.000 A 
ATOM      6  C   UNL     1       0.548   8.465  20.809  0.00  0.00    +0.000 A 
ATOM      7  C   UNL     1       0.878   7.198  21.283  0.00  0.00    +0.000 A 
ATOM      8  C   UNL     1       1.846   6.419  20.641  0.00  0.00    +0.000 A 
ATOM      9  O   UNL     1       2.031   5.210  21.272  0.00  0.00    +0.000 OA
ATOM     10  C   UNL     1       2.637   4.190  20.505  0.00  0.00    +0.000 C 
ATOM     11  C   UNL     1       2.441   2.821  21.138  0.00  0.00    +0.000 C 
ATOM     12  C   UNL     1       2.081   4.159  19.082  0.00  0.00    +0.000 C 
ATOM     13  O   UNL     1       1.034   3.618  18.741  0.00  0.00    +0.000 OA
ENDROOT
BRANCH   5  14
ATOM     14  N   UNL     1       0.917  10.328  19.345  0.00  0.00    +0.000 N 
ATOM     15  C   UNL     1       0.945  11.435  20.166  0.00  0.00    +0.000 C 
ATOM     16  O   UNL     1       1.385  11.480  21.305  0.00  0.00    +0.000 OA
ATOM     17  H   UNL     1       0.676  10.478  18.372  0.00  0.00    +0.000 HD
BRANCH  15  18
ATOM     18  C   UNL     1       0.316  12.674  19.541  0.00  0.00    +0.000 C 
BRANCH  18  19
ATOM     19  C   UNL     1       1.314  13.837  19.306  0.00  0.00    +0.000 C 
ATOM     20  C   UNL     1       2.020  14.245  20.612  0.00  0.00    +0.000 C 
ATOM     21  C   UNL     1       2.387  13.358  18.309  0.00  0.00    +0.000 C 
ATOM     22  C   UNL     1       0.606  15.064  18.709  0.00  0.00    +0.000 C 
ENDBRANCH  18  19
ENDBRANCH  15  18
ENDBRANCH   5  14
BRANCH   1  23
ATOM     23  C   UNL     1       3.903   3.822  17.666  0.00  0.00    +0.000 C 
BRANCH  23  27
ATOM     24  C   UNL     1       7.032   5.021  14.961  0.00  0.00    +0.000 A 
ATOM     25  C   UNL     1       7.297   4.810  16.313  0.00  0.00    +0.000 A 
ATOM     26  C   UNL     1       6.269   4.455  17.185  0.00  0.00    +0.000 A 
ATOM     27  C   UNL     1       4.950   4.331  16.723  0.00  0.00    +0.000 A 
ATOM     28  C   UNL     1       4.693   4.523  15.362  0.00  0.00    +0.000 A 
ATOM     29  C   UNL     1       5.727   4.877  14.488  0.00  0.00    +0.000 A 
BRANCH  24  31
ATOM     30  C   UNL     1       7.967   5.291  12.802  0.00  0.00    +0.000 C 
ATOM     31  O   UNL     1       8.121   5.369  14.213  0.00  0.00    +0.000 OA
ENDBRANCH  24  31
ENDBRANCH  23  27
ENDBRANCH   1  23
TORSDOF 6
ENDMDL
MODEL 5
REMARK VINA RESULT:      -7.7      2.880      5.905
REMARK  Name = 
REMARK  11 active torsions:
REMARK  status: ('A' for Active; 'I' for Inactive)
REMARK    1  A    between atoms: C_1  and  O_2
REMARK    2  A    between atoms: O_2  and  C_3
REMARK    3  A    between atoms: C_6  and  C_7
REMARK    4  A    between atoms: C_7  and  N_8
REMARK    5  A    between atoms: C_12  and  N_13
REMARK    6  A    between atoms: C_14  and  C_16
REMARK    7  A    between atoms: C_16  and  C_17
REMARK    8  A    between atoms: C_17  and  C_18
REMARK    9  A    between atoms: C_17  and  C_19
REMARK   10  A    between atoms: C_17  and  C_20
REMARK   11  A    between atoms: C_25  and  C_26
REMARK                            x       y       z     vdW  Elec       q    Type
REMARK                         _______ _______ _______ _____ _____    ______ ____
ROOT
ATOM      1  N   UNL     1       1.446  11.854  19.097  0.00  0.00    +0.000 N 
ATOM      2  C   UNL     1       1.070  10.619  18.388  0.00  0.00    +0.000 C 
ATOM      3  C   UNL     1       1.225   9.358  19.236  0.00  0.00    +0.000 A 
ATOM      4  C   UNL     1       2.022   8.312  18.722  0.00  0.00    +0.000 A 
ATOM      5  C   UNL     1       2.284   7.151  19.457  0.00  0.00    +0.000 A 
ATOM      6  C   UNL     1       1.749   7.023  20.737  0.00  0.00    +0.000 A 
ATOM      7  C   UNL     1       0.908   8.011  21.242  0.00  0.00    +0.000 A 
ATOM      8  C   UNL     1       0.624   9.162  20.501  0.00  0.00    +0.000 A 
ATOM      9  O   UNL     1      -0.232  10.004  21.171  0.00  0.00    +0.000 OA
ATOM     10  C   UNL     1      -0.252  11.350  20.741  0.00  0.00    +0.000 C 
ATOM     11  C   UNL     1      -0.910  12.258  21.769  0.00  0.00    +0.000 C 
ATOM     12  C   UNL     1       1.160  11.865  20.462  0.00  0.00    +0.000 C 
ATOM     13  O   UNL     1       1.944  12.280  21.309  0.00  0.00    +0.000 OA
ENDROOT
BRANCH   5  14
ATOM     14  N   UNL     1       3.037   6.060  18.959  0.00  0.00    +0.000 N 
ATOM     15  C   UNL     1       2.583   5.042  18.147  0.00  0.00    +0.000 C 
ATOM     16  O   UNL     1       1.496   4.989  17.591  0.00  0.00    +0.000 OA
ATOM     17  H   UNL     1       4.017   6.047  19.215  0.00  0.00    +0.000 HD
BRANCH  15  18
ATOM     18  C   UNL     1       3.569   3.889  18.008  0.00  0.00    +0.000 C 
BRANCH  18  19
ATOM     19  C   UNL     1       3.331   2.731  19.012  0.00  0.00    +0.000 C 
ATOM     20  C   UNL     1       1.914   2.788  19.611  0.00  0.00    +0.000 C 
ATOM     21  C   UNL     1       3.479   1.397  18.256  0.00  0.00    +0.000 C 
ATOM     22  C   UNL     1       4.362   2.763  20.152  0.00  0.00    +0.000 C 
ENDBRANCH  18  19
ENDBRANCH  15  18
ENDBRANCH   5  14
BRANCH   1  23
ATOM     23  C   UNL     1       1.030  13.118  18.500  0.00  0.00    +0.000 C 
BRANCH  23  27
ATOM     24  C   UNL     1       3.790  16.425  18.503  0.00  0.00    +0.000 A 
ATOM     25  C   UNL     1       4.230  15.126  18.252  0.00  0.00    +0.000 A 
ATOM     26  C   UNL     1       3.333  14.060  18.286  0.00  0.00    +0.000 A 
ATOM     27  C   UNL     1       1.981  14.272  18.601  0.00  0.00    +0.000 A 
ATOM     28  C   UNL     1       1.542  15.579  18.833  0.00  0.00    +0.000 A 
ATOM     29  C   UNL     1       2.444  16.648  18.794  0.00  0.00    +0.000 A 
BRANCH  24  31
ATOM     30  C   UNL     1       5.872  17.205  19.319  0.00  0.00    +0.000 C 
ATOM     31  O   UNL     1       4.766  17.380  18.445  0.00  0.00    +0.000 OA
ENDBRANCH  24  31
ENDBRANCH  23  27
ENDBRANCH   1  23
TORSDOF 6
ENDMDL
MODEL 6
REMARK VINA RESULT:      -7.7      2.799      3.949
REMARK  Name = 
REMARK  11 active torsions:
REMARK  status: ('A' for Active; 'I' for Inactive)
REMARK    1  A    between atoms: C_1  and  O_2
REMARK    2  A    between atoms: O_2  and  C_3
REMARK    3  A    between atoms: C_6  and  C_7
REMARK    4  A    between atoms: C_7  and  N_8
REMARK    5  A    between atoms: C_12  and  N_13
REMARK    6  A    between atoms: C_14  and  C_16
REMARK    7  A    between atoms: C_16  and  C_17
REMARK    8  A    between atoms: C_17  and  C_18
REMARK    9  A    between atoms: C_17  and  C_19
REMARK   10  A    between atoms: C_17  and  C_20
REMARK   11  A    between atoms: C_25  and  C_26
REMARK                            x       y       z     vdW  Elec       q    Type
REMARK                         _______ _______ _______ _____ _____    ______ ____
ROOT
ATOM      1  N   UNL     1       0.596  11.408  19.270  0.00  0.00    +0.000 N 
ATOM      2  C   UNL     1       0.335  10.216  18.446  0.00  0.00    +0.000 C 
ATOM      3  C   UNL     1       1.141   8.991  18.876  0.00  0.00    +0.000 A 
ATOM      4  C   UNL     1       1.939   8.352  17.900  0.00  0.00    +0.000 A 
ATOM      5  C   UNL     1       2.769   7.272  18.215  0.00  0.00    +0.000 A 
ATOM      6  C   UNL     1       2.817   6.812  19.530  0.00  0.00    +0.000 A 
ATOM      7  C   UNL     1       1.993   7.383  20.497  0.00  0.00    +0.000 A 
ATOM      8  C   UNL     1       1.144   8.448  20.181  0.00  0.00    +0.000 A 
ATOM      9  O   UNL     1       0.409   8.857  21.270  0.00  0.00    +0.000 OA
ATOM     10  C   UNL     1      -0.142  10.156  21.201  0.00  0.00    +0.000 C 
ATOM     11  C   UNL     1      -0.584  10.650  22.570  0.00  0.00    +0.000 C 
ATOM     12  C   UNL     1       0.857  11.154  20.616  0.00  0.00    +0.000 C 
ATOM     13  O   UNL     1       1.756  11.706  21.241  0.00  0.00    +0.000 OA
ENDROOT
BRANCH   5  14
ATOM     14  N   UNL     1       3.546   6.574  17.258  0.00  0.00    +0.000 N 
ATOM     15  C   UNL     1       4.885   6.757  16.985  0.00  0.00    +0.000 C 
ATOM     16  O   UNL     1       5.668   7.440  17.628  0.00  0.00    +0.000 OA
ATOM     17  H   UNL     1       3.061   5.852  16.738  0.00  0.00    +0.000 HD
BRANCH  15  18
ATOM     18  C   UNL     1       5.354   6.039  15.726  0.00  0.00    +0.000 C 
BRANCH  18  19
ATOM     19  C   UNL     1       5.826   4.582  15.970  0.00  0.00    +0.000 C 
ATOM     20  C   UNL     1       6.145   3.864  14.646  0.00  0.00    +0.000 C 
ATOM     21  C   UNL     1       7.115   4.627  16.814  0.00  0.00    +0.000 C 
ATOM     22  C   UNL     1       4.767   3.777  16.740  0.00  0.00    +0.000 C 
ENDBRANCH  18  19
ENDBRANCH  15  18
ENDBRANCH   5  14
BRANCH   1  23
ATOM     23  C   UNL     1      -0.347  12.516  19.156  0.00  0.00    +0.000 C 
BRANCH  23  27
ATOM     24  C   UNL     1      -4.552  11.808  18.555  0.00  0.00    +0.000 A 
ATOM     25  C   UNL     1      -4.082  12.348  19.750  0.00  0.00    +0.000 A 
ATOM     26  C   UNL     1      -2.715  12.542  19.946  0.00  0.00    +0.000 A 
ATOM     27  C   UNL     1      -1.792  12.171  18.956  0.00  0.00    +0.000 A 
ATOM     28  C   UNL     1      -2.271  11.649  17.751  0.00  0.00    +0.000 A 
ATOM     29  C   UNL     1      -3.643  11.459  17.556  0.00  0.00    +0.000 A 
BRANCH  24  31
ATOM     30  C   UNL     1      -6.683  12.722  19.040  0.00  0.00    +0.000 C 
ATOM     31  O   UNL     1      -5.910  11.665  18.488  0.00  0.00    +0.000 OA
ENDBRANCH  24  31
ENDBRANCH  23  27
ENDBRANCH   1  23
TORSDOF 6
ENDMDL
MODEL 7
REMARK VINA RESULT:      -7.6      3.137      6.167
REMARK  Name = 
REMARK  11 active torsions:
REMARK  status: ('A' for Active; 'I' for Inactive)
REMARK    1  A    between atoms: C_1  and  O_2
REMARK    2  A    between atoms: O_2  and  C_3
REMARK    3  A    between atoms: C_6  and  C_7
REMARK    4  A    between atoms: C_7  and  N_8
REMARK    5  A    between atoms: C_12  and  N_13
REMARK    6  A    between atoms: C_14  and  C_16
REMARK    7  A    between atoms: C_16  and  C_17
REMARK    8  A    between atoms: C_17  and  C_18
REMARK    9  A    between atoms: C_17  and  C_19
REMARK   10  A    between atoms: C_17  and  C_20
REMARK   11  A    between atoms: C_25  and  C_26
REMARK                            x       y       z     vdW  Elec       q    Type
REMARK                         _______ _______ _______ _____ _____    ______ ____
ROOT
ATOM      1  N   UNL     1       1.767  12.280  18.917  0.00  0.00    +0.000 N 
ATOM      2  C   UNL     1       1.413  10.966  18.355  0.00  0.00    +0.000 C 
ATOM      3  C   UNL     1       1.175   9.894  19.417  0.00  0.00    +0.000 A 
ATOM      4  C   UNL     1       1.923   8.699  19.325  0.00  0.00    +0.000 A 
ATOM      5  C   UNL     1       1.831   7.692  20.291  0.00  0.00    +0.000 A 
ATOM      6  C   UNL     1       0.980   7.872  21.380  0.00  0.00    +0.000 A 
ATOM      7  C   UNL     1       0.185   9.012  21.462  0.00  0.00    +0.000 A 
ATOM      8  C   UNL     1       0.257  10.010  20.485  0.00  0.00    +0.000 A 
ATOM      9  O   UNL     1      -0.615  11.043  20.744  0.00  0.00    +0.000 OA
ATOM     10  C   UNL     1      -0.341  12.270  20.100  0.00  0.00    +0.000 C 
ATOM     11  C   UNL     1      -1.102  13.421  20.740  0.00  0.00    +0.000 C 
ATOM     12  C   UNL     1       1.153  12.592  20.130  0.00  0.00    +0.000 C 
ATOM     13  O   UNL     1       1.751  13.098  21.073  0.00  0.00    +0.000 OA
ENDROOT
BRANCH   5  14
ATOM     14  N   UNL     1       2.526   6.460  20.210  0.00  0.00    +0.000 N 
ATOM     15  C   UNL     1       2.521   5.574  19.154  0.00  0.00    +0.000 C 
ATOM     16  O   UNL     1       2.043   5.770  18.047  0.00  0.00    +0.000 OA
ATOM     17  H   UNL     1       3.101   6.226  21.010  0.00  0.00    +0.000 HD
BRANCH  15  18
ATOM     18  C   UNL     1       3.154   4.228  19.486  0.00  0.00    +0.000 C 
BRANCH  18  19
ATOM     19  C   UNL     1       2.156   3.185  20.053  0.00  0.00    +0.000 C 
ATOM     20  C   UNL     1       2.037   1.960  19.129  0.00  0.00    +0.000 C 
ATOM     21  C   UNL     1       2.683   2.707  21.420  0.00  0.00    +0.000 C 
ATOM     22  C   UNL     1       0.763   3.803  20.257  0.00  0.00    +0.000 C 
ENDBRANCH  18  19
ENDBRANCH  15  18
ENDBRANCH   5  14
BRANCH   1  23
ATOM     23  C   UNL     1       1.692  13.430  18.022  0.00  0.00    +0.000 C 
BRANCH  23  27
ATOM     24  C   UNL     1       4.581  16.525  18.811  0.00  0.00    +0.000 A 
ATOM     25  C   UNL     1       3.214  16.798  18.839  0.00  0.00    +0.000 A 
ATOM     26  C   UNL     1       2.289  15.796  18.549  0.00  0.00    +0.000 A 
ATOM     27  C   UNL     1       2.719  14.507  18.198  0.00  0.00    +0.000 A 
ATOM     28  C   UNL     1       4.090  14.234  18.191  0.00  0.00    +0.000 A 
ATOM     29  C   UNL     1       5.016  15.240  18.486  0.00  0.00    +0.000 A 
BRANCH  24  31
ATOM     30  C   UNL     1       6.761  17.307  19.302  0.00  0.00    +0.000 C 
ATOM     31  O   UNL     1       5.383  17.591  19.108  0.00  0.00    +0.000 OA
ENDBRANCH  24  31
ENDBRANCH  23  27
ENDBRANCH   1  23
TORSDOF 6
ENDMDL
MODEL 8
REMARK VINA RESULT:      -7.6      2.968      5.926
REMARK  Name = 
REMARK  11 active torsions:
REMARK  status: ('A' for Active; 'I' for Inactive)
REMARK    1  A    between atoms: C_1  and  O_2
REMARK    2  A    between atoms: O_2  and  C_3
REMARK    3  A    between atoms: C_6  and  C_7
REMARK    4  A    between atoms: C_7  and  N_8
REMARK    5  A    between atoms: C_12  and  N_13
REMARK    6  A    between atoms: C_14  and  C_16
REMARK    7  A    between atoms: C_16  and  C_17
REMARK    8  A    between atoms: C_17  and  C_18
REMARK    9  A    between atoms: C_17  and  C_19
REMARK   10  A    between atoms: C_17  and  C_20
REMARK   11  A    between atoms: C_25  and  C_26
REMARK                            x       y       z     vdW  Elec       q    Type
REMARK                         _______ _______ _______ _____ _____    ______ ____
ROOT
ATOM      1  N   UNL     1       1.530  12.059  19.109  0.00  0.00    +0.000 N 
ATOM      2  C   UNL     1       1.213  10.813  18.390  0.00  0.00    +0.000 C 
ATOM      3  C   UNL     1       1.232   9.573  19.282  0.00  0.00    +0.000 A 
ATOM      4  C   UNL     1       2.060   8.496  18.895  0.00  0.00    +0.000 A 
ATOM      5  C   UNL     1       2.203   7.351  19.685  0.00  0.00    +0.000 A 
ATOM      6  C   UNL     1       1.512   7.269  20.893  0.00  0.00    +0.000 A 
ATOM      7  C   UNL     1       0.641   8.288  21.267  0.00  0.00    +0.000 A 
ATOM      8  C   UNL     1       0.478   9.425  20.468  0.00  0.00    +0.000 A 
ATOM      9  O   UNL     1      -0.433  10.303  21.008  0.00  0.00    +0.000 OA
ATOM     10  C   UNL     1      -0.367  11.637  20.546  0.00  0.00    +0.000 C 
ATOM     11  C   UNL     1      -1.123  12.586  21.462  0.00  0.00    +0.000 C 
ATOM     12  C   UNL     1       1.080  12.114  20.428  0.00  0.00    +0.000 C 
ATOM     13  O   UNL     1       1.765  12.535  21.354  0.00  0.00    +0.000 OA
ENDROOT
BRANCH   5  14
ATOM     14  N   UNL     1       2.983   6.230  19.310  0.00  0.00    +0.000 N 
ATOM     15  C   UNL     1       2.599   5.189  18.492  0.00  0.00    +0.000 C 
ATOM     16  O   UNL     1       1.577   5.131  17.826  0.00  0.00    +0.000 OA
ATOM     17  H   UNL     1       3.931   6.213  19.669  0.00  0.00    +0.000 HD
BRANCH  15  18
ATOM     18  C   UNL     1       3.573   4.017  18.500  0.00  0.00    +0.000 C 
BRANCH  18  19
ATOM     19  C   UNL     1       3.185   2.883  19.485  0.00  0.00    +0.000 C 
ATOM     20  C   UNL     1       2.342   3.419  20.656  0.00  0.00    +0.000 C 
ATOM     21  C   UNL     1       2.339   1.847  18.719  0.00  0.00    +0.000 C 
ATOM     22  C   UNL     1       4.433   2.179  20.040  0.00  0.00    +0.000 C 
ENDBRANCH  18  19
ENDBRANCH  15  18
ENDBRANCH   5  14
BRANCH   1  23
ATOM     23  C   UNL     1       1.221  13.315  18.435  0.00  0.00    +0.000 C 
BRANCH  23  27
ATOM     24  C   UNL     1       4.230  16.372  18.817  0.00  0.00    +0.000 A 
ATOM     25  C   UNL     1       2.911  16.615  19.195  0.00  0.00    +0.000 A 
ATOM     26  C   UNL     1       1.939  15.629  19.036  0.00  0.00    +0.000 A 
ATOM     27  C   UNL     1       2.266  14.388  18.467  0.00  0.00    +0.000 A 
ATOM     28  C   UNL     1       3.595  14.142  18.108  0.00  0.00    +0.000 A 
ATOM     29  C   UNL     1       4.569  15.133  18.273  0.00  0.00    +0.000 A 
BRANCH  24  31
ATOM     30  C   UNL     1       5.242  17.853  20.363  0.00  0.00    +0.000 C 
ATOM     31  O   UNL     1       5.085  17.419  19.019  0.00  0.00    +0.000 OA
ENDBRANCH  24  31
ENDBRANCH  23  27
ENDBRANCH   1  23
TORSDOF 6
ENDMDL
MODEL 9
REMARK VINA RESULT:      -7.6      0.664      1.111
REMARK  Name = 
REMARK  11 active torsions:
REMARK  status: ('A' for Active; 'I' for Inactive)
REMARK    1  A    between atoms: C_1  and  O_2
REMARK    2  A    between atoms: O_2  and  C_3
REMARK    3  A    between atoms: C_6  and  C_7
REMARK    4  A    between atoms: C_7  and  N_8
REMARK    5  A    between atoms: C_12  and  N_13
REMARK    6  A    between atoms: C_14  and  C_16
REMARK    7  A    between atoms: C_16  and  C_17
REMARK    8  A    between atoms: C_17  and  C_18
REMARK    9  A    between atoms: C_17  and  C_19
REMARK   10  A    between atoms: C_17  and  C_20
REMARK   11  A    between atoms: C_25  and  C_26
REMARK                            x       y       z     vdW  Elec       q    Type
REMARK                         _______ _______ _______ _____ _____    ______ ____
ROOT
ATOM      1  N   UNL     1      -0.947  11.492  21.137  0.00  0.00    +0.000 N 
ATOM      2  C   UNL     1       0.386  11.000  21.523  0.00  0.00    +0.000 C 
ATOM      3  C   UNL     1       0.990  10.024  20.515  0.00  0.00    +0.000 A 
ATOM      4  C   UNL     1       1.404   8.759  20.988  0.00  0.00    +0.000 A 
ATOM      5  C   UNL     1       1.898   7.772  20.130  0.00  0.00    +0.000 A 
ATOM      6  C   UNL     1       1.982   8.040  18.764  0.00  0.00    +0.000 A 
ATOM      7  C   UNL     1       1.641   9.300  18.280  0.00  0.00    +0.000 A 
ATOM      8  C   UNL     1       1.168  10.298  19.139  0.00  0.00    +0.000 A 
ATOM      9  O   UNL     1       0.900  11.467  18.467  0.00  0.00    +0.000 OA
ATOM     10  C   UNL     1       0.037  12.379  19.115  0.00  0.00    +0.000 C 
ATOM     11  C   UNL     1      -0.498  13.426  18.152  0.00  0.00    +0.000 C 
ATOM     12  C   UNL     1      -1.144  11.659  19.766  0.00  0.00    +0.000 C 
ATOM     13  O   UNL     1      -2.164  11.302  19.186  0.00  0.00    +0.000 OA
ENDROOT
BRANCH   5  14
ATOM     14  N   UNL     1       2.368   6.511  20.571  0.00  0.00    +0.000 N 
ATOM     15  C   UNL     1       2.802   5.467  19.783  0.00  0.00    +0.000 C 
ATOM     16  O   UNL     1       3.004   5.504  18.578  0.00  0.00    +0.000 OA
ATOM     17  H   UNL     1       2.405   6.382  21.575  0.00  0.00    +0.000 HD
BRANCH  15  18
ATOM     18  C   UNL     1       2.990   4.163  20.549  0.00  0.00    +0.000 C 
BRANCH  18  19
ATOM     19  C   UNL     1       1.822   3.157  20.375  0.00  0.00    +0.000 C 
ATOM     20  C   UNL     1       1.509   2.425  21.692  0.00  0.00    +0.000 C 
ATOM     21  C   UNL     1       0.566   3.944  19.952  0.00  0.00    +0.000 C 
ATOM     22  C   UNL     1       2.140   2.122  19.283  0.00  0.00    +0.000 C 
ENDBRANCH  18  19
ENDBRANCH  15  18
ENDBRANCH   5  14
BRANCH   1  23
ATOM     23  C   UNL     1      -1.460  12.657  21.849  0.00  0.00    +0.000 C 
BRANCH  23  27
ATOM     24  C   UNL     1      -5.428  12.672  23.523  0.00  0.00    +0.000 A 
ATOM     25  C   UNL     1      -4.321  12.356  24.309  0.00  0.00    +0.000 A 
ATOM     26  C   UNL     1      -3.046  12.322  23.748  0.00  0.00    +0.000 A 
ATOM     27  C   UNL     1      -2.859  12.578  22.381  0.00  0.00    +0.000 A 
ATOM     28  C   UNL     1      -3.970  12.914  21.602  0.00  0.00    +0.000 A 
ATOM     29  C   UNL     1      -5.249  12.951  22.168  0.00  0.00    +0.000 A 
BRANCH  24  31
ATOM     30  C   UNL     1      -7.781  12.431  23.401  0.00  0.00    +0.000 C 
ATOM     31  O   UNL     1      -6.622  12.667  24.189  0.00  0.00    +0.000 OA
ENDBRANCH  24  31
ENDBRANCH  23  27
ENDBRANCH   1  23
TORSDOF 6
ENDMDL
