MODEL 1
REMARK VINA RESULT:     -10.2      0.000      0.000
REMARK  Name = 
REMARK  6 active torsions:
REMARK  status: ('A' for Active; 'I' for Inactive)
REMARK    1  A    between atoms: C_4  and  C_5
REMARK    2  A    between atoms: C_9  and  C_10
REMARK    3  A    between atoms: N_12  and  C_13
REMARK    4  A    between atoms: C_17  and  C_18
REMARK    5  A    between atoms: N_20  and  C_21
REMARK    6  A    between atoms: C_25  and  C_26
REMARK                            x       y       z     vdW  Elec       q    Type
REMARK                         _______ _______ _______ _____ _____    ______ ____
ROOT
ATOM      1  C   UNL     1       1.883   5.132  20.598  0.00  0.00    +0.000 A 
ATOM      2  C   UNL     1       1.351   3.878  20.924  0.00  0.00    +0.000 A 
ATOM      3  C   UNL     1       1.907   2.701  20.416  0.00  0.00    +0.000 A 
ATOM      4  C   UNL     1       3.001   2.753  19.562  0.00  0.00    +0.000 A 
ATOM      5  C   UNL     1       3.527   3.993  19.191  0.00  0.00    +0.000 A 
ATOM      6  C   UNL     1       2.967   5.181  19.710  0.00  0.00    +0.000 A 
ENDROOT
BRANCH   1   9
ATOM      7  C   UNL     1       1.515   7.609  20.546  0.00  0.00    +0.000 C 
ATOM      8  O   UNL     1       2.040   7.811  19.453  0.00  0.00    +0.000 OA
ATOM      9  N   UNL     1       1.363   6.348  21.120  0.00  0.00    +0.000 N 
ATOM     10  H   UNL     1       0.757   6.267  21.925  0.00  0.00    +0.000 HD
BRANCH   7  19
ATOM     11  C   UNL     1      -1.624  11.251  17.990  0.00  0.00    +0.000 C 
ATOM     12  C   UNL     1      -1.120  11.035  19.213  0.00  0.00    +0.000 C 
ATOM     13  C   UNL     1      -1.402  11.981  20.295  0.00  0.00    +0.000 C 
ATOM     14  C   UNL     1      -0.907  11.782  21.538  0.00  0.00    +0.000 C 
ATOM     15  C   UNL     1      -1.169  12.727  22.669  0.00  0.00    +0.000 C 
ATOM     16  N   UNL     1      -0.111  10.644  21.791  0.00  0.00    +0.000 N 
ATOM     17  N   UNL     1       0.478  10.254  22.958  0.00  0.00    +0.000 NA
ATOM     18  C   UNL     1       1.124   9.125  22.652  0.00  0.00    +0.000 A 
ATOM     19  C   UNL     1       0.982   8.732  21.306  0.00  0.00    +0.000 A 
ATOM     20  C   UNL     1       0.179   9.726  20.780  0.00  0.00    +0.000 A 
ATOM     21  N   UNL     1      -0.326   9.945  19.533  0.00  0.00    +0.000 N 
ATOM     22  H   UNL     1      -0.119   9.288  18.780  0.00  0.00    +0.000 HD
ENDBRANCH   7  19
ENDBRANCH   1   9
BRANCH   5  23
ATOM     23  C   UNL     1       4.731   4.074  18.313  0.00  0.00    +0.000 C 
ATOM     24  O   UNL     1       5.827   3.886  18.829  0.00  0.00    +0.000 OA
ATOM     25  N   UNL     1       4.491   4.412  16.985  0.00  0.00    +0.000 N 
ATOM     26  H   UNL     1       3.571   4.767  16.758  0.00  0.00    +0.000 HD
BRANCH  25  27
ATOM     27  C   UNL     1       5.470   4.509  15.968  0.00  0.00    +0.000 A 
ATOM     28  C   UNL     1       6.675   5.192  16.139  0.00  0.00    +0.000 A 
ATOM     29  C   UNL     1       7.591   5.303  15.091  0.00  0.00    +0.000 A 
ATOM     30  C   UNL     1       7.307   4.736  13.852  0.00  0.00    +0.000 A 
ATOM     31  C   UNL     1       6.114   4.028  13.656  0.00  0.00    +0.000 A 
ATOM     32  C   UNL     1       5.212   3.896  14.733  0.00  0.00    +0.000 A 
BRANCH  31  33
ATOM     33  C   UNL     1       5.785   3.444  12.303  0.00  0.00    +0.000 C 
ATOM     34  F   UNL     1       6.549   3.945  11.291  0.00  0.00    +0.000 F 
ATOM     35  F   UNL     1       5.949   2.094  12.260  0.00  0.00    +0.000 F 
ATOM     36  F   UNL     1       4.492   3.675  11.939  0.00  0.00    +0.000 F 
ENDBRANCH  31  33
ENDBRANCH  25  27
ENDBRANCH   5  23
TORSDOF 5
ENDMDL
MODEL 2
REMARK VINA RESULT:      -9.7      1.003      1.249
REMARK  Name = 
REMARK  6 active torsions:
REMARK  status: ('A' for Active; 'I' for Inactive)
REMARK    1  A    between atoms: C_4  and  C_5
REMARK    2  A    between atoms: C_9  and  C_10
REMARK    3  A    between atoms: N_12  and  C_13
REMARK    4  A    between atoms: C_17  and  C_18
REMARK    5  A    between atoms: N_20  and  C_21
REMARK    6  A    between atoms: C_25  and  C_26
REMARK                            x       y       z     vdW  Elec       q    Type
REMARK                         _______ _______ _______ _____ _____    ______ ____
ROOT
ATOM      1  C   UNL     1       2.119   5.840  20.487  0.00  0.00    +0.000 A 
ATOM      2  C   UNL     1       2.184   4.552  21.032  0.00  0.00    +0.000 A 
ATOM      3  C   UNL     1       2.918   3.539  20.410  0.00  0.00    +0.000 A 
ATOM      4  C   UNL     1       3.594   3.789  19.223  0.00  0.00    +0.000 A 
ATOM      5  C   UNL     1       3.514   5.055  18.639  0.00  0.00    +0.000 A 
ATOM      6  C   UNL     1       2.777   6.080  19.272  0.00  0.00    +0.000 A 
ENDROOT
BRANCH   1   9
ATOM      7  C   UNL     1       1.301   8.204  20.618  0.00  0.00    +0.000 C 
ATOM      8  O   UNL     1       1.731   8.567  19.526  0.00  0.00    +0.000 OA
ATOM      9  N   UNL     1       1.408   6.904  21.108  0.00  0.00    +0.000 N 
ATOM     10  H   UNL     1       0.863   6.661  21.924  0.00  0.00    +0.000 HD
BRANCH   7  19
ATOM     11  C   UNL     1      -1.792  12.032  18.286  0.00  0.00    +0.000 C 
ATOM     12  C   UNL     1      -1.414  11.649  19.514  0.00  0.00    +0.000 C 
ATOM     13  C   UNL     1      -1.884  12.392  20.686  0.00  0.00    +0.000 C 
ATOM     14  C   UNL     1      -1.519  12.023  21.935  0.00  0.00    +0.000 C 
ATOM     15  C   UNL     1      -1.975  12.758  23.156  0.00  0.00    +0.000 C 
ATOM     16  N   UNL     1      -0.674  10.905  22.106  0.00  0.00    +0.000 N 
ATOM     17  N   UNL     1      -0.192  10.365  23.262  0.00  0.00    +0.000 NA
ATOM     18  C   UNL     1       0.566   9.338  22.868  0.00  0.00    +0.000 A 
ATOM     19  C   UNL     1       0.605   9.159  21.470  0.00  0.00    +0.000 A 
ATOM     20  C   UNL     1      -0.205  10.180  21.008  0.00  0.00    +0.000 A 
ATOM     21  N   UNL     1      -0.582  10.568  19.757  0.00  0.00    +0.000 N 
ATOM     22  H   UNL     1      -0.245  10.053  18.944  0.00  0.00    +0.000 HD
ENDBRANCH   7  19
ENDBRANCH   1   9
BRANCH   5  23
ATOM     23  C   UNL     1       4.269   5.363  17.389  0.00  0.00    +0.000 C 
ATOM     24  O   UNL     1       4.296   6.529  17.012  0.00  0.00    +0.000 OA
ATOM     25  N   UNL     1       4.832   4.272  16.735  0.00  0.00    +0.000 N 
ATOM     26  H   UNL     1       4.532   3.351  17.031  0.00  0.00    +0.000 HD
BRANCH  25  27
ATOM     27  C   UNL     1       5.620   4.328  15.562  0.00  0.00    +0.000 A 
ATOM     28  C   UNL     1       6.851   4.984  15.507  0.00  0.00    +0.000 A 
ATOM     29  C   UNL     1       7.572   5.055  14.314  0.00  0.00    +0.000 A 
ATOM     30  C   UNL     1       7.065   4.474  13.154  0.00  0.00    +0.000 A 
ATOM     31  C   UNL     1       5.842   3.792  13.184  0.00  0.00    +0.000 A 
ATOM     32  C   UNL     1       5.139   3.700  14.403  0.00  0.00    +0.000 A 
BRANCH  31  33
ATOM     33  C   UNL     1       5.270   3.194  11.922  0.00  0.00    +0.000 C 
ATOM     34  F   UNL     1       3.907   3.133  11.914  0.00  0.00    +0.000 F 
ATOM     35  F   UNL     1       5.617   3.892  10.806  0.00  0.00    +0.000 F 
ATOM     36  F   UNL     1       5.697   1.917  11.712  0.00  0.00    +0.000 F 
ENDBRANCH  31  33
ENDBRANCH  25  27
ENDBRANCH   5  23
TORSDOF 5
ENDMDL
MODEL 3
REMARK VINA RESULT:      -9.6      1.956      2.441
REMARK  Name = 
REMARK  6 active torsions:
REMARK  status: ('A' for Active; 'I' for Inactive)
REMARK    1  A    between atoms: C_4  and  C_5
REMARK    2  A    between atoms: C_9  and  C_10
REMARK    3  A    between atoms: N_12  and  C_13
REMARK    4  A    between atoms: C_17  and  C_18
REMARK    5  A    between atoms: N_20  and  C_21
REMARK    6  A    between atoms: C_25  and  C_26
REMARK                            x       y       z     vdW  Elec       q    Type
REMARK                         _______ _______ _______ _____ _____    ______ ____
ROOT
ATOM      1  C   UNL     1       2.943   6.701  19.124  0.00  0.00    +0.000 A 
ATOM      2  C   UNL     1       3.274   5.661  20.001  0.00  0.00    +0.000 A 
ATOM      3  C   UNL     1       4.188   4.669  19.637  0.00  0.00    +0.000 A 
ATOM      4  C   UNL     1       4.782   4.689  18.382  0.00  0.00    +0.000 A 
ATOM      5  C   UNL     1       4.440   5.694  17.474  0.00  0.00    +0.000 A 
ATOM      6  C   UNL     1       3.520   6.699  17.846  0.00  0.00    +0.000 A 
ENDROOT
BRANCH   1   9
ATOM      7  C   UNL     1       1.664   8.800  18.645  0.00  0.00    +0.000 C 
ATOM      8  O   UNL     1       1.993   8.905  17.465  0.00  0.00    +0.000 OA
ATOM      9  N   UNL     1       2.041   7.744  19.472  0.00  0.00    +0.000 N 
ATOM     10  H   UNL     1       1.570   7.650  20.361  0.00  0.00    +0.000 HD
BRANCH   7  19
ATOM     11  C   UNL     1      -2.807  10.362  15.956  0.00  0.00    +0.000 C 
ATOM     12  C   UNL     1      -2.169  10.642  17.101  0.00  0.00    +0.000 C 
ATOM     13  C   UNL     1      -2.707  11.661  18.006  0.00  0.00    +0.000 C 
ATOM     14  C   UNL     1      -2.081  11.957  19.168  0.00  0.00    +0.000 C 
ATOM     15  C   UNL     1      -2.598  12.994  20.116  0.00  0.00    +0.000 C 
ATOM     16  N   UNL     1      -0.896  11.272  19.510  0.00  0.00    +0.000 N 
ATOM     17  N   UNL     1      -0.117  11.411  20.621  0.00  0.00    +0.000 NA
ATOM     18  C   UNL     1       0.885  10.544  20.444  0.00  0.00    +0.000 A 
ATOM     19  C   UNL     1       0.802   9.811  19.243  0.00  0.00    +0.000 A 
ATOM     20  C   UNL     1      -0.355  10.299  18.666  0.00  0.00    +0.000 A 
ATOM     21  N   UNL     1      -0.998  10.015  17.498  0.00  0.00    +0.000 N 
ATOM     22  H   UNL     1      -0.614   9.311  16.867  0.00  0.00    +0.000 HD
ENDBRANCH   7  19
ENDBRANCH   1   9
BRANCH   5  23
ATOM     23  C   UNL     1       5.099   5.764  16.137  0.00  0.00    +0.000 C 
ATOM     24  O   UNL     1       5.175   6.862  15.596  0.00  0.00    +0.000 OA
ATOM     25  N   UNL     1       5.522   4.552  15.603  0.00  0.00    +0.000 N 
ATOM     26  H   UNL     1       5.184   3.708  16.050  0.00  0.00    +0.000 HD
BRANCH  25  27
ATOM     27  C   UNL     1       6.202   4.381  14.375  0.00  0.00    +0.000 A 
ATOM     28  C   UNL     1       7.242   5.216  13.964  0.00  0.00    +0.000 A 
ATOM     29  C   UNL     1       7.854   5.040  12.721  0.00  0.00    +0.000 A 
ATOM     30  C   UNL     1       7.425   4.027  11.868  0.00  0.00    +0.000 A 
ATOM     31  C   UNL     1       6.397   3.161  12.262  0.00  0.00    +0.000 A 
ATOM     32  C   UNL     1       5.809   3.330  13.533  0.00  0.00    +0.000 A 
BRANCH  31  33
ATOM     33  C   UNL     1       5.902   2.085  11.325  0.00  0.00    +0.000 C 
ATOM     34  F   UNL     1       6.765   1.808  10.306  0.00  0.00    +0.000 F 
ATOM     35  F   UNL     1       5.681   0.900  11.957  0.00  0.00    +0.000 F 
ATOM     36  F   UNL     1       4.722   2.417  10.730  0.00  0.00    +0.000 F 
ENDBRANCH  31  33
ENDBRANCH  25  27
ENDBRANCH   5  23
TORSDOF 5
ENDMDL
MODEL 4
REMARK VINA RESULT:      -9.5      0.961      1.184
REMARK  Name = 
REMARK  6 active torsions:
REMARK  status: ('A' for Active; 'I' for Inactive)
REMARK    1  A    between atoms: C_4  and  C_5
REMARK    2  A    between atoms: C_9  and  C_10
REMARK    3  A    between atoms: N_12  and  C_13
REMARK    4  A    between atoms: C_17  and  C_18
REMARK    5  A    between atoms: N_20  and  C_21
REMARK    6  A    between atoms: C_25  and  C_26
REMARK                            x       y       z     vdW  Elec       q    Type
REMARK                         _______ _______ _______ _____ _____    ______ ____
ROOT
ATOM      1  C   UNL     1       1.885   5.393  20.653  0.00  0.00    +0.000 A 
ATOM      2  C   UNL     1       1.371   4.146  21.027  0.00  0.00    +0.000 A 
ATOM      3  C   UNL     1       1.944   2.958  20.566  0.00  0.00    +0.000 A 
ATOM      4  C   UNL     1       3.038   2.992  19.712  0.00  0.00    +0.000 A 
ATOM      5  C   UNL     1       3.547   4.224  19.293  0.00  0.00    +0.000 A 
ATOM      6  C   UNL     1       2.970   5.423  19.764  0.00  0.00    +0.000 A 
ENDROOT
BRANCH   1   9
ATOM      7  C   UNL     1       1.510   7.866  20.522  0.00  0.00    +0.000 C 
ATOM      8  O   UNL     1       2.063   8.040  19.438  0.00  0.00    +0.000 OA
ATOM      9  N   UNL     1       1.347   6.622  21.127  0.00  0.00    +0.000 N 
ATOM     10  H   UNL     1       0.720   6.560  21.917  0.00  0.00    +0.000 HD
BRANCH   7  19
ATOM     11  C   UNL     1       1.438  12.721  18.056  0.00  0.00    +0.000 C 
ATOM     12  C   UNL     1       1.085  12.180  19.230  0.00  0.00    +0.000 C 
ATOM     13  C   UNL     1       0.496  13.024  20.274  0.00  0.00    +0.000 C 
ATOM     14  C   UNL     1       0.129  12.500  21.465  0.00  0.00    +0.000 C 
ATOM     15  C   UNL     1      -0.471  13.329  22.557  0.00  0.00    +0.000 C 
ATOM     16  N   UNL     1       0.316  11.120  21.701  0.00  0.00    +0.000 N 
ATOM     17  N   UNL     1       0.017  10.394  22.817  0.00  0.00    +0.000 NA
ATOM     18  C   UNL     1       0.405   9.149  22.526  0.00  0.00    +0.000 A 
ATOM     19  C   UNL     1       0.953   9.008  21.235  0.00  0.00    +0.000 A 
ATOM     20  C   UNL     1       0.879  10.291  20.729  0.00  0.00    +0.000 A 
ATOM     21  N   UNL     1       1.245  10.838  19.535  0.00  0.00    +0.000 N 
ATOM     22  H   UNL     1       1.662  10.248  18.814  0.00  0.00    +0.000 HD
ENDBRANCH   7  19
ENDBRANCH   1   9
BRANCH   5  23
ATOM     23  C   UNL     1       4.750   4.288  18.412  0.00  0.00    +0.000 C 
ATOM     24  O   UNL     1       5.848   4.134  18.936  0.00  0.00    +0.000 OA
ATOM     25  N   UNL     1       4.508   4.573  17.073  0.00  0.00    +0.000 N 
ATOM     26  H   UNL     1       3.583   4.907  16.832  0.00  0.00    +0.000 HD
BRANCH  25  27
ATOM     27  C   UNL     1       5.485   4.645  16.053  0.00  0.00    +0.000 A 
ATOM     28  C   UNL     1       6.693   5.325  16.210  0.00  0.00    +0.000 A 
ATOM     29  C   UNL     1       7.609   5.410  15.159  0.00  0.00    +0.000 A 
ATOM     30  C   UNL     1       7.322   4.819  13.931  0.00  0.00    +0.000 A 
ATOM     31  C   UNL     1       6.126   4.112  13.751  0.00  0.00    +0.000 A 
ATOM     32  C   UNL     1       5.224   4.007  14.831  0.00  0.00    +0.000 A 
BRANCH  31  33
ATOM     33  C   UNL     1       5.793   3.502  12.411  0.00  0.00    +0.000 C 
ATOM     34  F   UNL     1       4.472   3.592  12.083  0.00  0.00    +0.000 F 
ATOM     35  F   UNL     1       6.471   4.087  11.386  0.00  0.00    +0.000 F 
ATOM     36  F   UNL     1       6.098   2.176  12.354  0.00  0.00    +0.000 F 
ENDBRANCH  31  33
ENDBRANCH  25  27
ENDBRANCH   5  23
TORSDOF 5
ENDMDL
MODEL 5
REMARK VINA RESULT:      -9.4      1.069      1.247
REMARK  Name = 
REMARK  6 active torsions:
REMARK  status: ('A' for Active; 'I' for Inactive)
REMARK    1  A    between atoms: C_4  and  C_5
REMARK    2  A    between atoms: C_9  and  C_10
REMARK    3  A    between atoms: N_12  and  C_13
REMARK    4  A    between atoms: C_17  and  C_18
REMARK    5  A    between atoms: N_20  and  C_21
REMARK    6  A    between atoms: C_25  and  C_26
REMARK                            x       y       z     vdW  Elec       q    Type
REMARK                         _______ _______ _______ _____ _____    ______ ____
ROOT
ATOM      1  C   UNL     1       2.619   5.615  19.992  0.00  0.00    +0.000 A 
ATOM      2  C   UNL     1       2.647   4.303  20.482  0.00  0.00    +0.000 A 
ATOM      3  C   UNL     1       3.330   3.291  19.802  0.00  0.00    +0.000 A 
ATOM      4  C   UNL     1       3.991   3.567  18.612  0.00  0.00    +0.000 A 
ATOM      5  C   UNL     1       3.946   4.858  18.083  0.00  0.00    +0.000 A 
ATOM      6  C   UNL     1       3.260   5.881  18.774  0.00  0.00    +0.000 A 
ENDROOT
BRANCH   1   9
ATOM      7  C   UNL     1       1.688   7.935  20.141  0.00  0.00    +0.000 C 
ATOM      8  O   UNL     1       1.898   8.251  18.972  0.00  0.00    +0.000 OA
ATOM      9  N   UNL     1       1.960   6.677  20.672  0.00  0.00    +0.000 N 
ATOM     10  H   UNL     1       1.582   6.457  21.583  0.00  0.00    +0.000 HD
BRANCH   7  19
ATOM     11  C   UNL     1      -1.826  11.588  18.149  0.00  0.00    +0.000 C 
ATOM     12  C   UNL     1      -1.265  11.263  19.322  0.00  0.00    +0.000 C 
ATOM     13  C   UNL     1      -1.586  12.038  20.523  0.00  0.00    +0.000 C 
ATOM     14  C   UNL     1      -1.033  11.726  21.718  0.00  0.00    +0.000 C 
ATOM     15  C   UNL     1      -1.333  12.496  22.966  0.00  0.00    +0.000 C 
ATOM     16  N   UNL     1      -0.138  10.638  21.804  0.00  0.00    +0.000 N 
ATOM     17  N   UNL     1       0.521  10.156  22.897  0.00  0.00    +0.000 NA
ATOM     18  C   UNL     1       1.247   9.135  22.432  0.00  0.00    +0.000 A 
ATOM     19  C   UNL     1       1.091   8.904  21.051  0.00  0.00    +0.000 A 
ATOM     20  C   UNL     1       0.191   9.884  20.676  0.00  0.00    +0.000 A 
ATOM     21  N   UNL     1      -0.373  10.214  19.480  0.00  0.00    +0.000 N 
ATOM     22  H   UNL     1      -0.139   9.677  18.644  0.00  0.00    +0.000 HD
ENDBRANCH   7  19
ENDBRANCH   1   9
BRANCH   5  23
ATOM     23  C   UNL     1       4.686   5.191  16.830  0.00  0.00    +0.000 C 
ATOM     24  O   UNL     1       4.802   6.375  16.535  0.00  0.00    +0.000 OA
ATOM     25  N   UNL     1       5.132   4.107  16.082  0.00  0.00    +0.000 N 
ATOM     26  H   UNL     1       4.762   3.196  16.323  0.00  0.00    +0.000 HD
BRANCH  25  27
ATOM     27  C   UNL     1       5.885   4.181  14.887  0.00  0.00    +0.000 A 
ATOM     28  C   UNL     1       6.893   5.125  14.685  0.00  0.00    +0.000 A 
ATOM     29  C   UNL     1       7.578   5.193  13.471  0.00  0.00    +0.000 A 
ATOM     30  C   UNL     1       7.257   4.318  12.437  0.00  0.00    +0.000 A 
ATOM     31  C   UNL     1       6.264   3.346  12.618  0.00  0.00    +0.000 A 
ATOM     32  C   UNL     1       5.601   3.268  13.861  0.00  0.00    +0.000 A 
BRANCH  31  33
ATOM     33  C   UNL     1       5.886   2.420  11.487  0.00  0.00    +0.000 C 
ATOM     34  F   UNL     1       6.873   2.258  10.559  0.00  0.00    +0.000 F 
ATOM     35  F   UNL     1       5.572   1.168  11.918  0.00  0.00    +0.000 F 
ATOM     36  F   UNL     1       4.798   2.861  10.797  0.00  0.00    +0.000 F 
ENDBRANCH  31  33
ENDBRANCH  25  27
ENDBRANCH   5  23
TORSDOF 5
ENDMDL
MODEL 6
REMARK VINA RESULT:      -9.2      6.531     12.083
REMARK  Name = 
REMARK  6 active torsions:
REMARK  status: ('A' for Active; 'I' for Inactive)
REMARK    1  A    between atoms: C_4  and  C_5
REMARK    2  A    between atoms: C_9  and  C_10
REMARK    3  A    between atoms: N_12  and  C_13
REMARK    4  A    between atoms: C_17  and  C_18
REMARK    5  A    between atoms: N_20  and  C_21
REMARK    6  A    between atoms: C_25  and  C_26
REMARK                            x       y       z     vdW  Elec       q    Type
REMARK                         _______ _______ _______ _____ _____    ______ ____
ROOT
ATOM      1  C   UNL     1       0.580  10.699  19.188  0.00  0.00    +0.000 A 
ATOM      2  C   UNL     1       1.297  11.830  18.778  0.00  0.00    +0.000 A 
ATOM      3  C   UNL     1       0.657  13.051  18.554  0.00  0.00    +0.000 A 
ATOM      4  C   UNL     1      -0.717  13.166  18.724  0.00  0.00    +0.000 A 
ATOM      5  C   UNL     1      -1.461  12.044  19.095  0.00  0.00    +0.000 A 
ATOM      6  C   UNL     1      -0.811  10.811  19.327  0.00  0.00    +0.000 A 
ENDROOT
BRANCH   1   9
ATOM      7  C   UNL     1       1.874   8.660  18.523  0.00  0.00    +0.000 C 
ATOM      8  O   UNL     1       2.100   9.003  17.365  0.00  0.00    +0.000 OA
ATOM      9  N   UNL     1       1.201   9.448  19.455  0.00  0.00    +0.000 N 
ATOM     10  H   UNL     1       1.231   9.161  20.424  0.00  0.00    +0.000 HD
BRANCH   7  19
ATOM     11  C   UNL     1       5.488   5.928  15.501  0.00  0.00    +0.000 C 
ATOM     12  C   UNL     1       4.815   5.778  16.650  0.00  0.00    +0.000 C 
ATOM     13  C   UNL     1       4.990   4.559  17.444  0.00  0.00    +0.000 C 
ATOM     14  C   UNL     1       4.324   4.387  18.608  0.00  0.00    +0.000 C 
ATOM     15  C   UNL     1       4.473   3.155  19.445  0.00  0.00    +0.000 C 
ATOM     16  N   UNL     1       3.451   5.400  19.062  0.00  0.00    +0.000 N 
ATOM     17  N   UNL     1       2.693   5.432  20.196  0.00  0.00    +0.000 NA
ATOM     18  C   UNL     1       2.045   6.599  20.138  0.00  0.00    +0.000 A 
ATOM     19  C   UNL     1       2.350   7.367  18.996  0.00  0.00    +0.000 A 
ATOM     20  C   UNL     1       3.259   6.571  18.326  0.00  0.00    +0.000 A 
ATOM     21  N   UNL     1       3.937   6.726  17.153  0.00  0.00    +0.000 N 
ATOM     22  H   UNL     1       3.804   7.572  16.599  0.00  0.00    +0.000 HD
ENDBRANCH   7  19
ENDBRANCH   1   9
BRANCH   5  23
ATOM     23  C   UNL     1      -2.931  12.151  19.330  0.00  0.00    +0.000 C 
ATOM     24  O   UNL     1      -3.669  11.447  18.651  0.00  0.00    +0.000 OA
ATOM     25  N   UNL     1      -3.327  13.093  20.273  0.00  0.00    +0.000 N 
ATOM     26  H   UNL     1      -2.631  13.762  20.579  0.00  0.00    +0.000 HD
BRANCH  25  27
ATOM     27  C   UNL     1      -4.658  13.341  20.685  0.00  0.00    +0.000 A 
ATOM     28  C   UNL     1      -5.566  14.068  19.915  0.00  0.00    +0.000 A 
ATOM     29  C   UNL     1      -6.855  14.329  20.383  0.00  0.00    +0.000 A 
ATOM     30  C   UNL     1      -7.250  13.870  21.636  0.00  0.00    +0.000 A 
ATOM     31  C   UNL     1      -6.367  13.119  22.423  0.00  0.00    +0.000 A 
ATOM     32  C   UNL     1      -5.078  12.836  21.925  0.00  0.00    +0.000 A 
BRANCH  31  33
ATOM     33  C   UNL     1      -6.777  12.652  23.799  0.00  0.00    +0.000 C 
ATOM     34  F   UNL     1      -7.592  11.558  23.784  0.00  0.00    +0.000 F 
ATOM     35  F   UNL     1      -5.713  12.312  24.576  0.00  0.00    +0.000 F 
ATOM     36  F   UNL     1      -7.456  13.608  24.491  0.00  0.00    +0.000 F 
ENDBRANCH  31  33
ENDBRANCH  25  27
ENDBRANCH   5  23
TORSDOF 5
ENDMDL
MODEL 7
REMARK VINA RESULT:      -9.2      5.135     10.016
REMARK  Name = 
REMARK  6 active torsions:
REMARK  status: ('A' for Active; 'I' for Inactive)
REMARK    1  A    between atoms: C_4  and  C_5
REMARK    2  A    between atoms: C_9  and  C_10
REMARK    3  A    between atoms: N_12  and  C_13
REMARK    4  A    between atoms: C_17  and  C_18
REMARK    5  A    between atoms: N_20  and  C_21
REMARK    6  A    between atoms: C_25  and  C_26
REMARK                            x       y       z     vdW  Elec       q    Type
REMARK                         _______ _______ _______ _____ _____    ______ ____
ROOT
ATOM      1  C   UNL     1       0.416   8.974  21.633  0.00  0.00    +0.000 A 
ATOM      2  C   UNL     1      -0.216   9.231  22.856  0.00  0.00    +0.000 A 
ATOM      3  C   UNL     1      -0.736  10.494  23.152  0.00  0.00    +0.000 A 
ATOM      4  C   UNL     1      -0.624  11.531  22.235  0.00  0.00    +0.000 A 
ATOM      5  C   UNL     1       0.035  11.312  21.024  0.00  0.00    +0.000 A 
ATOM      6  C   UNL     1       0.555  10.033  20.724  0.00  0.00    +0.000 A 
ENDROOT
BRANCH   1   9
ATOM      7  C   UNL     1       1.732   7.414  20.181  0.00  0.00    +0.000 C 
ATOM      8  O   UNL     1       2.181   8.269  19.420  0.00  0.00    +0.000 OA
ATOM      9  N   UNL     1       0.929   7.694  21.284  0.00  0.00    +0.000 N 
ATOM     10  H   UNL     1       0.768   6.952  21.951  0.00  0.00    +0.000 HD
BRANCH   7  19
ATOM     11  C   UNL     1       5.091   6.114  16.096  0.00  0.00    +0.000 C 
ATOM     12  C   UNL     1       4.387   5.501  17.058  0.00  0.00    +0.000 C 
ATOM     13  C   UNL     1       4.421   4.040  17.168  0.00  0.00    +0.000 C 
ATOM     14  C   UNL     1       3.721   3.400  18.132  0.00  0.00    +0.000 C 
ATOM     15  C   UNL     1       3.726   1.910  18.274  0.00  0.00    +0.000 C 
ATOM     16  N   UNL     1       2.950   4.154  19.044  0.00  0.00    +0.000 N 
ATOM     17  N   UNL     1       2.181   3.716  20.082  0.00  0.00    +0.000 NA
ATOM     18  C   UNL     1       1.659   4.827  20.610  0.00  0.00    +0.000 A 
ATOM     19  C   UNL     1       2.062   6.013  19.962  0.00  0.00    +0.000 A 
ATOM     20  C   UNL     1       2.894   5.547  18.962  0.00  0.00    +0.000 A 
ATOM     21  N   UNL     1       3.604   6.175  17.983  0.00  0.00    +0.000 N 
ATOM     22  H   UNL     1       3.570   7.192  17.905  0.00  0.00    +0.000 HD
ENDBRANCH   7  19
ENDBRANCH   1   9
BRANCH   5  23
ATOM     23  C   UNL     1       0.127  12.396  20.003  0.00  0.00    +0.000 C 
ATOM     24  O   UNL     1       0.048  12.076  18.822  0.00  0.00    +0.000 OA
ATOM     25  N   UNL     1       0.350  13.677  20.496  0.00  0.00    +0.000 N 
ATOM     26  H   UNL     1       0.628  13.757  21.467  0.00  0.00    +0.000 HD
BRANCH  25  27
ATOM     27  C   UNL     1       0.433  14.859  19.722  0.00  0.00    +0.000 A 
ATOM     28  C   UNL     1      -0.645  15.728  19.552  0.00  0.00    +0.000 A 
ATOM     29  C   UNL     1      -0.532  16.858  18.739  0.00  0.00    +0.000 A 
ATOM     30  C   UNL     1       0.663  17.128  18.079  0.00  0.00    +0.000 A 
ATOM     31  C   UNL     1       1.768  16.284  18.247  0.00  0.00    +0.000 A 
ATOM     32  C   UNL     1       1.651  15.163  19.096  0.00  0.00    +0.000 A 
BRANCH  31  33
ATOM     33  C   UNL     1       3.055  16.551  17.504  0.00  0.00    +0.000 C 
ATOM     34  F   UNL     1       2.928  17.471  16.504  0.00  0.00    +0.000 F 
ATOM     35  F   UNL     1       4.042  17.019  18.316  0.00  0.00    +0.000 F 
ATOM     36  F   UNL     1       3.556  15.431  16.914  0.00  0.00    +0.000 F 
ENDBRANCH  31  33
ENDBRANCH  25  27
ENDBRANCH   5  23
TORSDOF 5
ENDMDL
MODEL 8
REMARK VINA RESULT:      -9.2      4.390      6.321
REMARK  Name = 
REMARK  6 active torsions:
REMARK  status: ('A' for Active; 'I' for Inactive)
REMARK    1  A    between atoms: C_4  and  C_5
REMARK    2  A    between atoms: C_9  and  C_10
REMARK    3  A    between atoms: N_12  and  C_13
REMARK    4  A    between atoms: C_17  and  C_18
REMARK    5  A    between atoms: N_20  and  C_21
REMARK    6  A    between atoms: C_25  and  C_26
REMARK                            x       y       z     vdW  Elec       q    Type
REMARK                         _______ _______ _______ _____ _____    ______ ____
ROOT
ATOM      1  C   UNL     1       0.367  10.926  20.393  0.00  0.00    +0.000 A 
ATOM      2  C   UNL     1      -0.263  10.537  21.582  0.00  0.00    +0.000 A 
ATOM      3  C   UNL     1      -0.135   9.238  22.079  0.00  0.00    +0.000 A 
ATOM      4  C   UNL     1       0.618   8.295  21.392  0.00  0.00    +0.000 A 
ATOM      5  C   UNL     1       1.226   8.646  20.185  0.00  0.00    +0.000 A 
ATOM      6  C   UNL     1       1.100   9.961  19.687  0.00  0.00    +0.000 A 
ENDROOT
BRANCH   1   9
ATOM      7  C   UNL     1       0.601  13.413  20.567  0.00  0.00    +0.000 C 
ATOM      8  O   UNL     1       1.091  13.435  21.694  0.00  0.00    +0.000 OA
ATOM      9  N   UNL     1       0.285  12.247  19.874  0.00  0.00    +0.000 N 
ATOM     10  H   UNL     1       0.066  12.328  18.890  0.00  0.00    +0.000 HD
BRANCH   7  19
ATOM     11  C   UNL     1       4.566  15.568  17.518  0.00  0.00    +0.000 C 
ATOM     12  C   UNL     1       3.308  15.850  17.884  0.00  0.00    +0.000 C 
ATOM     13  C   UNL     1       2.669  17.080  17.408  0.00  0.00    +0.000 C 
ATOM     14  C   UNL     1       1.398  17.383  17.761  0.00  0.00    +0.000 C 
ATOM     15  C   UNL     1       0.712  18.631  17.300  0.00  0.00    +0.000 C 
ATOM     16  N   UNL     1       0.683  16.499  18.597  0.00  0.00    +0.000 N 
ATOM     17  N   UNL     1      -0.594  16.608  19.066  0.00  0.00    +0.000 NA
ATOM     18  C   UNL     1      -0.773  15.520  19.820  0.00  0.00    +0.000 A 
ATOM     19  C   UNL     1       0.348  14.667  19.869  0.00  0.00    +0.000 A 
ATOM     20  C   UNL     1       1.266  15.322  19.070  0.00  0.00    +0.000 A 
ATOM     21  N   UNL     1       2.548  15.033  18.706  0.00  0.00    +0.000 N 
ATOM     22  H   UNL     1       2.991  14.180  19.047  0.00  0.00    +0.000 HD
ENDBRANCH   7  19
ENDBRANCH   1   9
BRANCH   5  23
ATOM     23  C   UNL     1       2.079   7.665  19.451  0.00  0.00    +0.000 C 
ATOM     24  O   UNL     1       2.347   7.907  18.280  0.00  0.00    +0.000 OA
ATOM     25  N   UNL     1       2.448   6.529  20.164  0.00  0.00    +0.000 N 
ATOM     26  H   UNL     1       1.962   6.352  21.035  0.00  0.00    +0.000 HD
BRANCH  25  27
ATOM     27  C   UNL     1       3.280   5.489  19.688  0.00  0.00    +0.000 A 
ATOM     28  C   UNL     1       4.651   5.651  19.483  0.00  0.00    +0.000 A 
ATOM     29  C   UNL     1       5.427   4.611  18.967  0.00  0.00    +0.000 A 
ATOM     30  C   UNL     1       4.835   3.393  18.641  0.00  0.00    +0.000 A 
ATOM     31  C   UNL     1       3.465   3.195  18.855  0.00  0.00    +0.000 A 
ATOM     32  C   UNL     1       2.700   4.243  19.407  0.00  0.00    +0.000 A 
BRANCH  31  33
ATOM     33  C   UNL     1       2.813   1.890  18.468  0.00  0.00    +0.000 C 
ATOM     34  F   UNL     1       1.853   1.477  19.346  0.00  0.00    +0.000 F 
ATOM     35  F   UNL     1       2.203   1.948  17.253  0.00  0.00    +0.000 F 
ATOM     36  F   UNL     1       3.706   0.865  18.389  0.00  0.00    +0.000 F 
ENDBRANCH  31  33
ENDBRANCH  25  27
ENDBRANCH   5  23
TORSDOF 5
ENDMDL
MODEL 9
REMARK VINA RESULT:      -9.1      5.858     10.081
REMARK  Name = 
REMARK  6 active torsions:
REMARK  status: ('A' for Active; 'I' for Inactive)
REMARK    1  A    between atoms: C_4  and  C_5
REMARK    2  A    between atoms: C_9  and  C_10
REMARK    3  A    between atoms: N_12  and  C_13
REMARK    4  A    between atoms: C_17  and  C_18
REMARK    5  A    between atoms: N_20  and  C_21
REMARK    6  A    between atoms: C_25  and  C_26
REMARK                            x       y       z     vdW  Elec       q    Type
REMARK                         _______ _______ _______ _____ _____    ______ ____
ROOT
ATOM      1  C   UNL     1       0.780   8.946  21.371  0.00  0.00    +0.000 A 
ATOM      2  C   UNL     1       0.047   9.291  22.513  0.00  0.00    +0.000 A 
ATOM      3  C   UNL     1      -0.416  10.594  22.710  0.00  0.00    +0.000 A 
ATOM      4  C   UNL     1      -0.147  11.584  21.773  0.00  0.00    +0.000 A 
ATOM      5  C   UNL     1       0.615  11.274  20.644  0.00  0.00    +0.000 A 
ATOM      6  C   UNL     1       1.078   9.955  20.444  0.00  0.00    +0.000 A 
ENDROOT
BRANCH   1   9
ATOM      7  C   UNL     1       1.948   7.208  19.996  0.00  0.00    +0.000 C 
ATOM      8  O   UNL     1       2.351   7.966  19.116  0.00  0.00    +0.000 OA
ATOM      9  N   UNL     1       1.241   7.623  21.122  0.00  0.00    +0.000 N 
ATOM     10  H   UNL     1       1.120   6.959  21.875  0.00  0.00    +0.000 HD
BRANCH   7  19
ATOM     11  C   UNL     1       5.113   5.426  15.938  0.00  0.00    +0.000 C 
ATOM     12  C   UNL     1       4.432   4.929  16.980  0.00  0.00    +0.000 C 
ATOM     13  C   UNL     1       4.434   3.485  17.230  0.00  0.00    +0.000 C 
ATOM     14  C   UNL     1       3.757   2.961  18.277  0.00  0.00    +0.000 C 
ATOM     15  C   UNL     1       3.732   1.492  18.563  0.00  0.00    +0.000 C 
ATOM     16  N   UNL     1       3.042   3.821  19.139  0.00  0.00    +0.000 N 
ATOM     17  N   UNL     1       2.303   3.507  20.242  0.00  0.00    +0.000 NA
ATOM     18  C   UNL     1       1.829   4.677  20.678  0.00  0.00    +0.000 A 
ATOM     19  C   UNL     1       2.235   5.783  19.903  0.00  0.00    +0.000 A 
ATOM     20  C   UNL     1       3.016   5.200  18.924  0.00  0.00    +0.000 A 
ATOM     21  N   UNL     1       3.703   5.710  17.862  0.00  0.00    +0.000 N 
ATOM     22  H   UNL     1       3.691   6.716  17.687  0.00  0.00    +0.000 HD
ENDBRANCH   7  19
ENDBRANCH   1   9
BRANCH   5  23
ATOM     23  C   UNL     1       0.879  12.308  19.600  0.00  0.00    +0.000 C 
ATOM     24  O   UNL     1       0.192  12.280  18.585  0.00  0.00    +0.000 OA
ATOM     25  N   UNL     1       1.929  13.181  19.862  0.00  0.00    +0.000 N 
ATOM     26  H   UNL     1       2.553  12.938  20.623  0.00  0.00    +0.000 HD
BRANCH  25  27
ATOM     27  C   UNL     1       2.333  14.258  19.039  0.00  0.00    +0.000 A 
ATOM     28  C   UNL     1       3.532  14.257  18.326  0.00  0.00    +0.000 A 
ATOM     29  C   UNL     1       3.914  15.362  17.563  0.00  0.00    +0.000 A 
ATOM     30  C   UNL     1       3.100  16.491  17.512  0.00  0.00    +0.000 A 
ATOM     31  C   UNL     1       1.881  16.513  18.202  0.00  0.00    +0.000 A 
ATOM     32  C   UNL     1       1.493  15.377  18.943  0.00  0.00    +0.000 A 
BRANCH  31  33
ATOM     33  C   UNL     1       1.013  17.748  18.181  0.00  0.00    +0.000 C 
ATOM     34  F   UNL     1       1.212  18.537  17.086  0.00  0.00    +0.000 F 
ATOM     35  F   UNL     1      -0.316  17.456  18.191  0.00  0.00    +0.000 F 
ATOM     36  F   UNL     1       1.228  18.552  19.259  0.00  0.00    +0.000 F 
ENDBRANCH  31  33
ENDBRANCH  25  27
ENDBRANCH   5  23
TORSDOF 5
ENDMDL
