MODEL 1
REMARK VINA RESULT:      -7.1      0.000      0.000
REMARK  Name = 
REMARK  13 active torsions:
REMARK  status: ('A' for Active; 'I' for Inactive)
REMARK    1  A    between atoms: C_1  and  C_2
REMARK    2  A    between atoms: C_2  and  C_3
REMARK    3  A    between atoms: C_3  and  N_4
REMARK    4  A    between atoms: N_7  and  C_8
REMARK    5  A    between atoms: C_12  and  S_13
REMARK    6  A    between atoms: S_13  and  C_14
REMARK    7  A    between atoms: C_14  and  C_15
REMARK    8  A    between atoms: C_17  and  C_18
REMARK    9  A    between atoms: C_18  and  C_19
REMARK   10  A    between atoms: C_23  and  O_24
REMARK   11  A    between atoms: O_24  and  C_25
REMARK   12  A    between atoms: C_25  and  C_26
REMARK   13  A    between atoms: C_28  and  C_29
REMARK                            x       y       z     vdW  Elec       q    Type
REMARK                         _______ _______ _______ _____ _____    ______ ____
ROOT
ATOM      1  N   UNL     1       2.545   6.013  19.929  0.00  0.00    +0.000 N 
ATOM      2  C   UNL     1       3.409   5.643  18.916  0.00  0.00    +0.000 A 
ATOM      3  O   UNL     1       3.941   4.530  18.889  0.00  0.00    +0.000 OA
ATOM      4  N   UNL     1       3.627   6.585  17.924  0.00  0.00    +0.000 N 
ATOM      5  C   UNL     1       4.512   6.229  16.823  0.00  0.00    +0.000 C 
ATOM      6  C   UNL     1       2.936   7.793  17.818  0.00  0.00    +0.000 A 
ATOM      7  O   UNL     1       2.927   8.452  16.783  0.00  0.00    +0.000 OA
ATOM      8  C   UNL     1       2.140   8.212  18.976  0.00  0.00    +0.000 A 
ATOM      9  C   UNL     1       1.538   9.455  19.167  0.00  0.00    +0.000 A 
ATOM     10  N   UNL     1       0.700   9.691  20.205  0.00  0.00    +0.000 NA
ATOM     11  C   UNL     1       0.534   8.730  21.125  0.00  0.00    +0.000 A 
ATOM     12  N   UNL     1       1.177   7.561  21.059  0.00  0.00    +0.000 NA
ATOM     13  C   UNL     1       1.948   7.297  19.985  0.00  0.00    +0.000 A 
ENDROOT
BRANCH  11  14
ATOM     14  C   UNL     1      -0.454   8.941  22.240  0.00  0.00    +0.000 C 
ATOM     15  C   UNL     1      -0.023   9.486  23.584  0.00  0.00    +0.000 C 
ATOM     16  C   UNL     1      -0.849  10.335  22.662  0.00  0.00    +0.000 C 
ENDBRANCH  11  14
BRANCH   1  17
ATOM     17  C   UNL     1       2.282   5.076  21.030  0.00  0.00    +0.000 C 
BRANCH  17  19
ATOM     18  C   UNL     1       1.433   2.733  21.431  0.00  0.00    +0.000 C 
ATOM     19  C   UNL     1       1.204   4.039  20.691  0.00  0.00    +0.000 C 
ENDBRANCH  17  19
ENDBRANCH   1  17
BRANCH   9  20
ATOM     20  S   UNL     1       1.941  10.943  18.222  0.00  0.00    +0.000 S 
BRANCH  20  21
ATOM     21  C   UNL     1       1.976  12.297  19.502  0.00  0.00    +0.000 C 
BRANCH  21  22
ATOM     22  C   UNL     1       1.161  13.562  19.240  0.00  0.00    +0.000 A 
ATOM     23  C   UNL     1       1.788  14.716  18.735  0.00  0.00    +0.000 A 
ATOM     24  C   UNL     1       1.179  15.971  18.698  0.00  0.00    +0.000 A 
ATOM     25  C   UNL     1      -0.132  16.098  19.120  0.00  0.00    +0.000 A 
ATOM     26  C   UNL     1      -0.812  14.962  19.570  0.00  0.00    +0.000 A 
ATOM     27  C   UNL     1      -0.198  13.689  19.608  0.00  0.00    +0.000 A 
BRANCH  24  28
ATOM     28  C   UNL     1       2.027  17.103  18.233  0.00  0.00    +0.000 C 
ATOM     29  C   UNL     1       1.766  17.714  16.884  0.00  0.00    +0.000 C 
ATOM     30  O   UNL     1       2.891  17.567  18.972  0.00  0.00    +0.000 OA
ENDBRANCH  24  28
BRANCH  27  31
ATOM     31  O   UNL     1      -0.892  12.557  19.988  0.00  0.00    +0.000 OA
BRANCH  31  32
ATOM     32  C   UNL     1      -2.105  12.311  19.250  0.00  0.00    +0.000 C 
ATOM     33  C   UNL     1      -1.816  11.688  17.897  0.00  0.00    +0.000 C 
ENDBRANCH  31  32
ENDBRANCH  27  31
ENDBRANCH  21  22
ENDBRANCH  20  21
ENDBRANCH   9  20
TORSDOF 9
ENDMDL
MODEL 2
REMARK VINA RESULT:      -6.9      1.652      3.473
REMARK  Name = 
REMARK  13 active torsions:
REMARK  status: ('A' for Active; 'I' for Inactive)
REMARK    1  A    between atoms: C_1  and  C_2
REMARK    2  A    between atoms: C_2  and  C_3
REMARK    3  A    between atoms: C_3  and  N_4
REMARK    4  A    between atoms: N_7  and  C_8
REMARK    5  A    between atoms: C_12  and  S_13
REMARK    6  A    between atoms: S_13  and  C_14
REMARK    7  A    between atoms: C_14  and  C_15
REMARK    8  A    between atoms: C_17  and  C_18
REMARK    9  A    between atoms: C_18  and  C_19
REMARK   10  A    between atoms: C_23  and  O_24
REMARK   11  A    between atoms: O_24  and  C_25
REMARK   12  A    between atoms: C_25  and  C_26
REMARK   13  A    between atoms: C_28  and  C_29
REMARK                            x       y       z     vdW  Elec       q    Type
REMARK                         _______ _______ _______ _____ _____    ______ ____
ROOT
ATOM      1  N   UNL     1       2.639   5.791  19.983  0.00  0.00    +0.000 N 
ATOM      2  C   UNL     1       3.495   5.392  18.973  0.00  0.00    +0.000 A 
ATOM      3  O   UNL     1       4.017   4.274  18.969  0.00  0.00    +0.000 OA
ATOM      4  N   UNL     1       3.715   6.310  17.961  0.00  0.00    +0.000 N 
ATOM      5  C   UNL     1       4.591   5.923  16.863  0.00  0.00    +0.000 C 
ATOM      6  C   UNL     1       3.033   7.521  17.831  0.00  0.00    +0.000 A 
ATOM      7  O   UNL     1       3.023   8.157  16.782  0.00  0.00    +0.000 OA
ATOM      8  C   UNL     1       2.246   7.972  18.984  0.00  0.00    +0.000 A 
ATOM      9  C   UNL     1       1.655   9.223  19.150  0.00  0.00    +0.000 A 
ATOM     10  N   UNL     1       0.824   9.488  20.187  0.00  0.00    +0.000 NA
ATOM     11  C   UNL     1       0.655   8.550  21.129  0.00  0.00    +0.000 A 
ATOM     12  N   UNL     1       1.288   7.373  21.086  0.00  0.00    +0.000 NA
ATOM     13  C   UNL     1       2.052   7.080  20.013  0.00  0.00    +0.000 A 
ENDROOT
BRANCH  11  14
ATOM     14  C   UNL     1      -0.325   8.792  22.244  0.00  0.00    +0.000 C 
ATOM     15  C   UNL     1       0.098   9.453  23.537  0.00  0.00    +0.000 C 
ATOM     16  C   UNL     1      -0.782  10.193  22.573  0.00  0.00    +0.000 C 
ENDBRANCH  11  14
BRANCH   1  17
ATOM     17  C   UNL     1       2.374   4.880  21.105  0.00  0.00    +0.000 C 
BRANCH  17  19
ATOM     18  C   UNL     1       1.522   2.548  21.563  0.00  0.00    +0.000 C 
ATOM     19  C   UNL     1       1.296   3.835  20.789  0.00  0.00    +0.000 C 
ENDBRANCH  17  19
ENDBRANCH   1  17
BRANCH   9  20
ATOM     20  S   UNL     1       2.065  10.687  18.171  0.00  0.00    +0.000 S 
BRANCH  20  21
ATOM     21  C   UNL     1       1.185  12.078  19.046  0.00  0.00    +0.000 C 
BRANCH  21  22
ATOM     22  C   UNL     1      -0.333  11.995  19.192  0.00  0.00    +0.000 A 
ATOM     23  C   UNL     1      -1.087  11.200  18.309  0.00  0.00    +0.000 A 
ATOM     24  C   UNL     1      -2.478  11.259  18.217  0.00  0.00    +0.000 A 
ATOM     25  C   UNL     1      -3.178  12.093  19.069  0.00  0.00    +0.000 A 
ATOM     26  C   UNL     1      -2.470  12.853  20.005  0.00  0.00    +0.000 A 
ATOM     27  C   UNL     1      -1.060  12.796  20.103  0.00  0.00    +0.000 A 
BRANCH  24  28
ATOM     28  C   UNL     1      -3.104  10.427  17.152  0.00  0.00    +0.000 C 
ATOM     29  C   UNL     1      -3.090  10.914  15.730  0.00  0.00    +0.000 C 
ATOM     30  O   UNL     1      -3.575   9.327  17.431  0.00  0.00    +0.000 OA
ENDBRANCH  24  28
BRANCH  27  31
ATOM     31  O   UNL     1      -0.369  13.496  21.072  0.00  0.00    +0.000 OA
BRANCH  31  32
ATOM     32  C   UNL     1      -0.695  14.897  21.159  0.00  0.00    +0.000 C 
ATOM     33  C   UNL     1       0.478  15.768  20.749  0.00  0.00    +0.000 C 
ENDBRANCH  31  32
ENDBRANCH  27  31
ENDBRANCH  21  22
ENDBRANCH  20  21
ENDBRANCH   9  20
TORSDOF 9
ENDMDL
MODEL 3
REMARK VINA RESULT:      -6.8      1.219      1.681
REMARK  Name = 
REMARK  13 active torsions:
REMARK  status: ('A' for Active; 'I' for Inactive)
REMARK    1  A    between atoms: C_1  and  C_2
REMARK    2  A    between atoms: C_2  and  C_3
REMARK    3  A    between atoms: C_3  and  N_4
REMARK    4  A    between atoms: N_7  and  C_8
REMARK    5  A    between atoms: C_12  and  S_13
REMARK    6  A    between atoms: S_13  and  C_14
REMARK    7  A    between atoms: C_14  and  C_15
REMARK    8  A    between atoms: C_17  and  C_18
REMARK    9  A    between atoms: C_18  and  C_19
REMARK   10  A    between atoms: C_23  and  O_24
REMARK   11  A    between atoms: O_24  and  C_25
REMARK   12  A    between atoms: C_25  and  C_26
REMARK   13  A    between atoms: C_28  and  C_29
REMARK                            x       y       z     vdW  Elec       q    Type
REMARK                         _______ _______ _______ _____ _____    ______ ____
ROOT
ATOM      1  N   UNL     1       2.526   6.005  19.951  0.00  0.00    +0.000 N 
ATOM      2  C   UNL     1       3.387   5.633  18.936  0.00  0.00    +0.000 A 
ATOM      3  O   UNL     1       3.913   4.517  18.907  0.00  0.00    +0.000 OA
ATOM      4  N   UNL     1       3.611   6.577  17.948  0.00  0.00    +0.000 N 
ATOM      5  C   UNL     1       4.493   6.219  16.845  0.00  0.00    +0.000 C 
ATOM      6  C   UNL     1       2.927   7.789  17.845  0.00  0.00    +0.000 A 
ATOM      7  O   UNL     1       2.921   8.451  16.813  0.00  0.00    +0.000 OA
ATOM      8  C   UNL     1       2.133   8.210  19.005  0.00  0.00    +0.000 A 
ATOM      9  C   UNL     1       1.538   9.455  19.200  0.00  0.00    +0.000 A 
ATOM     10  N   UNL     1       0.701   9.692  20.238  0.00  0.00    +0.000 NA
ATOM     11  C   UNL     1       0.530   8.730  21.155  0.00  0.00    +0.000 A 
ATOM     12  N   UNL     1       1.166   7.557  21.086  0.00  0.00    +0.000 NA
ATOM     13  C   UNL     1       1.935   7.292  20.011  0.00  0.00    +0.000 A 
ENDROOT
BRANCH  11  14
ATOM     14  C   UNL     1      -0.456   8.943  22.271  0.00  0.00    +0.000 C 
ATOM     15  C   UNL     1      -0.021   9.470  23.620  0.00  0.00    +0.000 C 
ATOM     16  C   UNL     1      -0.834  10.338  22.706  0.00  0.00    +0.000 C 
ENDBRANCH  11  14
BRANCH   1  17
ATOM     17  C   UNL     1       2.257   5.066  21.049  0.00  0.00    +0.000 C 
BRANCH  17  19
ATOM     18  C   UNL     1       1.550   2.647  21.191  0.00  0.00    +0.000 C 
ATOM     19  C   UNL     1       1.173   4.036  20.707  0.00  0.00    +0.000 C 
ENDBRANCH  17  19
ENDBRANCH   1  17
BRANCH   9  20
ATOM     20  S   UNL     1       1.949  10.944  18.259  0.00  0.00    +0.000 S 
BRANCH  20  21
ATOM     21  C   UNL     1       1.790  12.323  19.502  0.00  0.00    +0.000 C 
BRANCH  21  22
ATOM     22  C   UNL     1       1.946  13.761  19.011  0.00  0.00    +0.000 A 
ATOM     23  C   UNL     1       3.227  14.294  18.775  0.00  0.00    +0.000 A 
ATOM     24  C   UNL     1       3.470  15.652  18.565  0.00  0.00    +0.000 A 
ATOM     25  C   UNL     1       2.403  16.531  18.525  0.00  0.00    +0.000 A 
ATOM     26  C   UNL     1       1.108  16.032  18.692  0.00  0.00    +0.000 A 
ATOM     27  C   UNL     1       0.857  14.657  18.904  0.00  0.00    +0.000 A 
BRANCH  24  28
ATOM     28  C   UNL     1       4.898  16.055  18.439  0.00  0.00    +0.000 C 
ATOM     29  C   UNL     1       5.916  15.037  18.008  0.00  0.00    +0.000 C 
ATOM     30  O   UNL     1       5.225  17.223  18.630  0.00  0.00    +0.000 OA
ENDBRANCH  24  28
BRANCH  27  31
ATOM     31  O   UNL     1      -0.427  14.157  19.002  0.00  0.00    +0.000 OA
BRANCH  31  32
ATOM     32  C   UNL     1      -1.207  14.695  20.087  0.00  0.00    +0.000 C 
ATOM     33  C   UNL     1      -0.952  13.947  21.381  0.00  0.00    +0.000 C 
ENDBRANCH  31  32
ENDBRANCH  27  31
ENDBRANCH  21  22
ENDBRANCH  20  21
ENDBRANCH   9  20
TORSDOF 9
ENDMDL
MODEL 4
REMARK VINA RESULT:      -6.8      3.206      8.320
REMARK  Name = 
REMARK  13 active torsions:
REMARK  status: ('A' for Active; 'I' for Inactive)
REMARK    1  A    between atoms: C_1  and  C_2
REMARK    2  A    between atoms: C_2  and  C_3
REMARK    3  A    between atoms: C_3  and  N_4
REMARK    4  A    between atoms: N_7  and  C_8
REMARK    5  A    between atoms: C_12  and  S_13
REMARK    6  A    between atoms: S_13  and  C_14
REMARK    7  A    between atoms: C_14  and  C_15
REMARK    8  A    between atoms: C_17  and  C_18
REMARK    9  A    between atoms: C_18  and  C_19
REMARK   10  A    between atoms: C_23  and  O_24
REMARK   11  A    between atoms: O_24  and  C_25
REMARK   12  A    between atoms: C_25  and  C_26
REMARK   13  A    between atoms: C_28  and  C_29
REMARK                            x       y       z     vdW  Elec       q    Type
REMARK                         _______ _______ _______ _____ _____    ______ ____
ROOT
ATOM      1  N   UNL     1      -1.089  11.020  21.315  0.00  0.00    +0.000 N 
ATOM      2  C   UNL     1      -0.356  10.635  22.422  0.00  0.00    +0.000 A 
ATOM      3  O   UNL     1      -0.648  11.017  23.559  0.00  0.00    +0.000 OA
ATOM      4  N   UNL     1       0.709   9.784  22.184  0.00  0.00    +0.000 N 
ATOM      5  C   UNL     1       1.495   9.333  23.325  0.00  0.00    +0.000 C 
ATOM      6  C   UNL     1       0.990   9.197  20.949  0.00  0.00    +0.000 A 
ATOM      7  O   UNL     1       1.734   8.228  20.840  0.00  0.00    +0.000 OA
ATOM      8  C   UNL     1       0.287   9.733  19.779  0.00  0.00    +0.000 A 
ATOM      9  C   UNL     1       0.553   9.441  18.442  0.00  0.00    +0.000 A 
ATOM     10  N   UNL     1      -0.252   9.876  17.443  0.00  0.00    +0.000 NA
ATOM     11  C   UNL     1      -1.268  10.694  17.748  0.00  0.00    +0.000 A 
ATOM     12  N   UNL     1      -1.502  11.105  18.998  0.00  0.00    +0.000 NA
ATOM     13  C   UNL     1      -0.750  10.609  20.002  0.00  0.00    +0.000 A 
ENDROOT
BRANCH  11  14
ATOM     14  C   UNL     1      -2.221  11.123  16.666  0.00  0.00    +0.000 C 
ATOM     15  C   UNL     1      -2.906  10.113  15.772  0.00  0.00    +0.000 C 
ATOM     16  C   UNL     1      -3.702  10.861  16.801  0.00  0.00    +0.000 C 
ENDBRANCH  11  14
BRANCH   1  17
ATOM     17  C   UNL     1      -2.221  11.941  21.484  0.00  0.00    +0.000 C 
BRANCH  17  19
ATOM     18  C   UNL     1      -1.400  14.165  20.619  0.00  0.00    +0.000 C 
ATOM     19  C   UNL     1      -1.787  13.366  21.851  0.00  0.00    +0.000 C 
ENDBRANCH  17  19
ENDBRANCH   1  17
BRANCH   9  20
ATOM     20  S   UNL     1       2.070   8.656  17.848  0.00  0.00    +0.000 S 
BRANCH  20  21
ATOM     21  C   UNL     1       1.697   6.831  17.933  0.00  0.00    +0.000 C 
BRANCH  21  22
ATOM     22  C   UNL     1       2.864   5.850  17.834  0.00  0.00    +0.000 A 
ATOM     23  C   UNL     1       4.189   6.320  17.864  0.00  0.00    +0.000 A 
ATOM     24  C   UNL     1       5.294   5.532  17.538  0.00  0.00    +0.000 A 
ATOM     25  C   UNL     1       5.104   4.199  17.224  0.00  0.00    +0.000 A 
ATOM     26  C   UNL     1       3.807   3.677  17.245  0.00  0.00    +0.000 A 
ATOM     27  C   UNL     1       2.685   4.471  17.575  0.00  0.00    +0.000 A 
BRANCH  24  28
ATOM     28  C   UNL     1       6.614   6.222  17.517  0.00  0.00    +0.000 C 
ATOM     29  C   UNL     1       7.555   6.049  18.676  0.00  0.00    +0.000 C 
ATOM     30  O   UNL     1       6.948   6.878  16.534  0.00  0.00    +0.000 OA
ENDBRANCH  24  28
BRANCH  27  31
ATOM     31  O   UNL     1       1.415   3.937  17.662  0.00  0.00    +0.000 OA
BRANCH  31  32
ATOM     32  C   UNL     1       1.251   2.919  18.668  0.00  0.00    +0.000 C 
ATOM     33  C   UNL     1       0.930   3.521  20.023  0.00  0.00    +0.000 C 
ENDBRANCH  31  32
ENDBRANCH  27  31
ENDBRANCH  21  22
ENDBRANCH  20  21
ENDBRANCH   9  20
TORSDOF 9
ENDMDL
MODEL 5
REMARK VINA RESULT:      -6.6      1.793      3.176
REMARK  Name = 
REMARK  13 active torsions:
REMARK  status: ('A' for Active; 'I' for Inactive)
REMARK    1  A    between atoms: C_1  and  C_2
REMARK    2  A    between atoms: C_2  and  C_3
REMARK    3  A    between atoms: C_3  and  N_4
REMARK    4  A    between atoms: N_7  and  C_8
REMARK    5  A    between atoms: C_12  and  S_13
REMARK    6  A    between atoms: S_13  and  C_14
REMARK    7  A    between atoms: C_14  and  C_15
REMARK    8  A    between atoms: C_17  and  C_18
REMARK    9  A    between atoms: C_18  and  C_19
REMARK   10  A    between atoms: C_23  and  O_24
REMARK   11  A    between atoms: O_24  and  C_25
REMARK   12  A    between atoms: C_25  and  C_26
REMARK   13  A    between atoms: C_28  and  C_29
REMARK                            x       y       z     vdW  Elec       q    Type
REMARK                         _______ _______ _______ _____ _____    ______ ____
ROOT
ATOM      1  N   UNL     1       2.515   6.061  19.913  0.00  0.00    +0.000 N 
ATOM      2  C   UNL     1       3.372   5.708  18.888  0.00  0.00    +0.000 A 
ATOM      3  O   UNL     1       3.895   4.592  18.835  0.00  0.00    +0.000 OA
ATOM      4  N   UNL     1       3.593   6.670  17.917  0.00  0.00    +0.000 N 
ATOM      5  C   UNL     1       4.470   6.332  16.804  0.00  0.00    +0.000 C 
ATOM      6  C   UNL     1       2.910   7.885  17.840  0.00  0.00    +0.000 A 
ATOM      7  O   UNL     1       2.901   8.566  16.820  0.00  0.00    +0.000 OA
ATOM      8  C   UNL     1       2.121   8.284  19.011  0.00  0.00    +0.000 A 
ATOM      9  C   UNL     1       1.529   9.527  19.231  0.00  0.00    +0.000 A 
ATOM     10  N   UNL     1       0.696   9.745  20.278  0.00  0.00    +0.000 NA
ATOM     11  C   UNL     1       0.527   8.765  21.177  0.00  0.00    +0.000 A 
ATOM     12  N   UNL     1       1.161   7.593  21.083  0.00  0.00    +0.000 NA
ATOM     13  C   UNL     1       1.926   7.348  20.000  0.00  0.00    +0.000 A 
ENDROOT
BRANCH  11  14
ATOM     14  C   UNL     1      -0.454   8.958  22.301  0.00  0.00    +0.000 C 
ATOM     15  C   UNL     1      -0.019   9.492  23.647  0.00  0.00    +0.000 C 
ATOM     16  C   UNL     1      -0.856  10.345  22.740  0.00  0.00    +0.000 C 
ENDBRANCH  11  14
BRANCH   1  17
ATOM     17  C   UNL     1       2.249   5.102  20.994  0.00  0.00    +0.000 C 
BRANCH  17  19
ATOM     18  C   UNL     1       1.425   2.741  21.339  0.00  0.00    +0.000 C 
ATOM     19  C   UNL     1       1.186   4.059  20.624  0.00  0.00    +0.000 C 
ENDBRANCH  17  19
ENDBRANCH   1  17
BRANCH   9  20
ATOM     20  S   UNL     1       1.939  11.032  18.318  0.00  0.00    +0.000 S 
BRANCH  20  21
ATOM     21  C   UNL     1       0.631  12.251  18.846  0.00  0.00    +0.000 C 
BRANCH  21  22
ATOM     22  C   UNL     1       0.908  13.125  20.068  0.00  0.00    +0.000 A 
ATOM     23  C   UNL     1      -0.036  13.205  21.109  0.00  0.00    +0.000 A 
ATOM     24  C   UNL     1       0.023  14.153  22.131  0.00  0.00    +0.000 A 
ATOM     25  C   UNL     1       1.089  15.032  22.176  0.00  0.00    +0.000 A 
ATOM     26  C   UNL     1       2.082  14.944  21.195  0.00  0.00    +0.000 A 
ATOM     27  C   UNL     1       2.027  13.984  20.159  0.00  0.00    +0.000 A 
BRANCH  24  28
ATOM     28  C   UNL     1      -1.118  14.164  23.088  0.00  0.00    +0.000 C 
ATOM     29  C   UNL     1      -2.469  13.690  22.630  0.00  0.00    +0.000 C 
ATOM     30  O   UNL     1      -0.937  14.502  24.255  0.00  0.00    +0.000 OA
ENDBRANCH  24  28
BRANCH  27  31
ATOM     31  O   UNL     1       3.042  13.855  19.232  0.00  0.00    +0.000 OA
BRANCH  31  32
ATOM     32  C   UNL     1       3.844  15.036  19.040  0.00  0.00    +0.000 C 
ATOM     33  C   UNL     1       4.551  15.017  17.697  0.00  0.00    +0.000 C 
ENDBRANCH  31  32
ENDBRANCH  27  31
ENDBRANCH  21  22
ENDBRANCH  20  21
ENDBRANCH   9  20
TORSDOF 9
ENDMDL
MODEL 6
REMARK VINA RESULT:      -6.6      3.714      8.563
REMARK  Name = 
REMARK  13 active torsions:
REMARK  status: ('A' for Active; 'I' for Inactive)
REMARK    1  A    between atoms: C_1  and  C_2
REMARK    2  A    between atoms: C_2  and  C_3
REMARK    3  A    between atoms: C_3  and  N_4
REMARK    4  A    between atoms: N_7  and  C_8
REMARK    5  A    between atoms: C_12  and  S_13
REMARK    6  A    between atoms: S_13  and  C_14
REMARK    7  A    between atoms: C_14  and  C_15
REMARK    8  A    between atoms: C_17  and  C_18
REMARK    9  A    between atoms: C_18  and  C_19
REMARK   10  A    between atoms: C_23  and  O_24
REMARK   11  A    between atoms: O_24  and  C_25
REMARK   12  A    between atoms: C_25  and  C_26
REMARK   13  A    between atoms: C_28  and  C_29
REMARK                            x       y       z     vdW  Elec       q    Type
REMARK                         _______ _______ _______ _____ _____    ______ ____
ROOT
ATOM      1  N   UNL     1      -2.974  12.239  19.859  0.00  0.00    +0.000 N 
ATOM      2  C   UNL     1      -2.607  12.686  21.115  0.00  0.00    +0.000 A 
ATOM      3  O   UNL     1      -3.329  13.440  21.773  0.00  0.00    +0.000 OA
ATOM      4  N   UNL     1      -1.395  12.223  21.598  0.00  0.00    +0.000 N 
ATOM      5  C   UNL     1      -0.979  12.648  22.928  0.00  0.00    +0.000 C 
ATOM      6  C   UNL     1      -0.615  11.250  20.970  0.00  0.00    +0.000 A 
ATOM      7  O   UNL     1       0.277  10.648  21.558  0.00  0.00    +0.000 OA
ATOM      8  C   UNL     1      -0.959  10.908  19.585  0.00  0.00    +0.000 A 
ATOM      9  C   UNL     1      -0.208  10.124  18.711  0.00  0.00    +0.000 A 
ATOM     10  N   UNL     1      -0.688   9.746  17.501  0.00  0.00    +0.000 NA
ATOM     11  C   UNL     1      -1.871  10.230  17.101  0.00  0.00    +0.000 A 
ATOM     12  N   UNL     1      -2.583  11.081  17.846  0.00  0.00    +0.000 NA
ATOM     13  C   UNL     1      -2.144  11.393  19.083  0.00  0.00    +0.000 A 
ENDROOT
BRANCH  11  14
ATOM     14  C   UNL     1      -2.458   9.759  15.798  0.00  0.00    +0.000 C 
ATOM     15  C   UNL     1      -3.954   9.668  15.593  0.00  0.00    +0.000 C 
ATOM     16  C   UNL     1      -3.166  10.728  14.882  0.00  0.00    +0.000 C 
ENDBRANCH  11  14
BRANCH   1  17
ATOM     17  C   UNL     1      -4.237  12.705  19.269  0.00  0.00    +0.000 C 
BRANCH  17  19
ATOM     18  C   UNL     1      -6.459  12.427  20.434  0.00  0.00    +0.000 C 
ATOM     19  C   UNL     1      -5.415  11.764  19.552  0.00  0.00    +0.000 C 
ENDBRANCH  17  19
ENDBRANCH   1  17
BRANCH   9  20
ATOM     20  S   UNL     1       1.531   9.694  18.957  0.00  0.00    +0.000 S 
BRANCH  20  21
ATOM     21  C   UNL     1       1.777   8.181  17.898  0.00  0.00    +0.000 C 
BRANCH  21  22
ATOM     22  C   UNL     1       2.956   7.262  18.212  0.00  0.00    +0.000 A 
ATOM     23  C   UNL     1       4.060   7.203  17.340  0.00  0.00    +0.000 A 
ATOM     24  C   UNL     1       5.053   6.226  17.420  0.00  0.00    +0.000 A 
ATOM     25  C   UNL     1       5.002   5.292  18.437  0.00  0.00    +0.000 A 
ATOM     26  C   UNL     1       3.955   5.354  19.362  0.00  0.00    +0.000 A 
ATOM     27  C   UNL     1       2.947   6.343  19.287  0.00  0.00    +0.000 A 
BRANCH  24  28
ATOM     28  C   UNL     1       6.089   6.250  16.350  0.00  0.00    +0.000 C 
ATOM     29  C   UNL     1       5.781   5.638  15.012  0.00  0.00    +0.000 C 
ATOM     30  O   UNL     1       7.161   6.816  16.546  0.00  0.00    +0.000 OA
ENDBRANCH  24  28
BRANCH  27  31
ATOM     31  O   UNL     1       1.953   6.444  20.240  0.00  0.00    +0.000 OA
BRANCH  31  32
ATOM     32  C   UNL     1       1.759   5.263  21.042  0.00  0.00    +0.000 C 
ATOM     33  C   UNL     1       0.859   4.259  20.348  0.00  0.00    +0.000 C 
ENDBRANCH  31  32
ENDBRANCH  27  31
ENDBRANCH  21  22
ENDBRANCH  20  21
ENDBRANCH   9  20
TORSDOF 9
ENDMDL
MODEL 7
REMARK VINA RESULT:      -6.5      3.220      8.235
REMARK  Name = 
REMARK  13 active torsions:
REMARK  status: ('A' for Active; 'I' for Inactive)
REMARK    1  A    between atoms: C_1  and  C_2
REMARK    2  A    between atoms: C_2  and  C_3
REMARK    3  A    between atoms: C_3  and  N_4
REMARK    4  A    between atoms: N_7  and  C_8
REMARK    5  A    between atoms: C_12  and  S_13
REMARK    6  A    between atoms: S_13  and  C_14
REMARK    7  A    between atoms: C_14  and  C_15
REMARK    8  A    between atoms: C_17  and  C_18
REMARK    9  A    between atoms: C_18  and  C_19
REMARK   10  A    between atoms: C_23  and  O_24
REMARK   11  A    between atoms: O_24  and  C_25
REMARK   12  A    between atoms: C_25  and  C_26
REMARK   13  A    between atoms: C_28  and  C_29
REMARK                            x       y       z     vdW  Elec       q    Type
REMARK                         _______ _______ _______ _____ _____    ______ ____
ROOT
ATOM      1  N   UNL     1      -2.250  12.263  19.711  0.00  0.00    +0.000 N 
ATOM      2  C   UNL     1      -3.291  11.621  19.067  0.00  0.00    +0.000 A 
ATOM      3  O   UNL     1      -4.468  11.941  19.257  0.00  0.00    +0.000 OA
ATOM      4  N   UNL     1      -2.936  10.616  18.183  0.00  0.00    +0.000 N 
ATOM      5  C   UNL     1      -4.001   9.930  17.463  0.00  0.00    +0.000 C 
ATOM      6  C   UNL     1      -1.625  10.320  17.810  0.00  0.00    +0.000 A 
ATOM      7  O   UNL     1      -1.363   9.651  16.816  0.00  0.00    +0.000 OA
ATOM      8  C   UNL     1      -0.550  10.916  18.612  0.00  0.00    +0.000 A 
ATOM      9  C   UNL     1       0.807  10.605  18.548  0.00  0.00    +0.000 A 
ATOM     10  N   UNL     1       1.736  11.321  19.228  0.00  0.00    +0.000 NA
ATOM     11  C   UNL     1       1.319  12.282  20.062  0.00  0.00    +0.000 A 
ATOM     12  N   UNL     1       0.023  12.547  20.256  0.00  0.00    +0.000 NA
ATOM     13  C   UNL     1      -0.896  11.890  19.520  0.00  0.00    +0.000 A 
ENDROOT
BRANCH  11  14
ATOM     14  C   UNL     1       2.335  13.141  20.765  0.00  0.00    +0.000 C 
ATOM     15  C   UNL     1       2.891  14.392  20.122  0.00  0.00    +0.000 C 
ATOM     16  C   UNL     1       1.956  14.504  21.290  0.00  0.00    +0.000 C 
ENDBRANCH  11  14
BRANCH   1  17
ATOM     17  C   UNL     1      -2.548  13.325  20.681  0.00  0.00    +0.000 C 
BRANCH  17  19
ATOM     18  C   UNL     1      -4.064  13.469  22.695  0.00  0.00    +0.000 C 
ATOM     19  C   UNL     1      -2.850  12.788  22.086  0.00  0.00    +0.000 C 
ENDBRANCH  17  19
ENDBRANCH   1  17
BRANCH   9  20
ATOM     20  S   UNL     1       1.482   9.128  17.754  0.00  0.00    +0.000 S 
BRANCH  20  21
ATOM     21  C   UNL     1       1.875   7.990  19.177  0.00  0.00    +0.000 C 
BRANCH  21  22
ATOM     22  C   UNL     1       2.921   6.897  18.963  0.00  0.00    +0.000 A 
ATOM     23  C   UNL     1       3.896   7.038  17.958  0.00  0.00    +0.000 A 
ATOM     24  C   UNL     1       4.724   5.997  17.537  0.00  0.00    +0.000 A 
ATOM     25  C   UNL     1       4.640   4.770  18.167  0.00  0.00    +0.000 A 
ATOM     26  C   UNL     1       3.728   4.607  19.214  0.00  0.00    +0.000 A 
ATOM     27  C   UNL     1       2.887   5.659  19.645  0.00  0.00    +0.000 A 
BRANCH  24  28
ATOM     28  C   UNL     1       5.623   6.293  16.387  0.00  0.00    +0.000 C 
ATOM     29  C   UNL     1       5.470   5.514  15.111  0.00  0.00    +0.000 C 
ATOM     30  O   UNL     1       6.442   7.205  16.467  0.00  0.00    +0.000 OA
ENDBRANCH  24  28
BRANCH  27  31
ATOM     31  O   UNL     1       2.036   5.516  20.723  0.00  0.00    +0.000 OA
BRANCH  31  32
ATOM     32  C   UNL     1       1.838   4.160  21.166  0.00  0.00    +0.000 C 
ATOM     33  C   UNL     1       0.796   3.445  20.326  0.00  0.00    +0.000 C 
ENDBRANCH  31  32
ENDBRANCH  27  31
ENDBRANCH  21  22
ENDBRANCH  20  21
ENDBRANCH   9  20
TORSDOF 9
ENDMDL
MODEL 8
REMARK VINA RESULT:      -6.4      2.978      8.351
REMARK  Name = 
REMARK  13 active torsions:
REMARK  status: ('A' for Active; 'I' for Inactive)
REMARK    1  A    between atoms: C_1  and  C_2
REMARK    2  A    between atoms: C_2  and  C_3
REMARK    3  A    between atoms: C_3  and  N_4
REMARK    4  A    between atoms: N_7  and  C_8
REMARK    5  A    between atoms: C_12  and  S_13
REMARK    6  A    between atoms: S_13  and  C_14
REMARK    7  A    between atoms: C_14  and  C_15
REMARK    8  A    between atoms: C_17  and  C_18
REMARK    9  A    between atoms: C_18  and  C_19
REMARK   10  A    between atoms: C_23  and  O_24
REMARK   11  A    between atoms: O_24  and  C_25
REMARK   12  A    between atoms: C_25  and  C_26
REMARK   13  A    between atoms: C_28  and  C_29
REMARK                            x       y       z     vdW  Elec       q    Type
REMARK                         _______ _______ _______ _____ _____    ______ ____
ROOT
ATOM      1  N   UNL     1      -1.888  13.939  20.693  0.00  0.00    +0.000 N 
ATOM      2  C   UNL     1      -0.987  14.691  21.425  0.00  0.00    +0.000 A 
ATOM      3  O   UNL     1      -1.347  15.661  22.098  0.00  0.00    +0.000 OA
ATOM      4  N   UNL     1       0.334  14.282  21.373  0.00  0.00    +0.000 N 
ATOM      5  C   UNL     1       1.314  15.031  22.149  0.00  0.00    +0.000 C 
ATOM      6  C   UNL     1       0.773  13.107  20.761  0.00  0.00    +0.000 A 
ATOM      7  O   UNL     1       1.876  12.622  20.992  0.00  0.00    +0.000 OA
ATOM      8  C   UNL     1      -0.176  12.416  19.882  0.00  0.00    +0.000 A 
ATOM      9  C   UNL     1       0.105  11.353  19.024  0.00  0.00    +0.000 A 
ATOM     10  N   UNL     1      -0.876  10.690  18.365  0.00  0.00    +0.000 NA
ATOM     11  C   UNL     1      -2.134  11.140  18.465  0.00  0.00    +0.000 A 
ATOM     12  N   UNL     1      -2.448  12.227  19.177  0.00  0.00    +0.000 NA
ATOM     13  C   UNL     1      -1.485  12.839  19.897  0.00  0.00    +0.000 A 
ENDROOT
BRANCH  11  14
ATOM     14  C   UNL     1      -3.247  10.371  17.808  0.00  0.00    +0.000 C 
ATOM     15  C   UNL     1      -4.460  11.071  17.237  0.00  0.00    +0.000 C 
ATOM     16  C   UNL     1      -3.454  10.447  16.315  0.00  0.00    +0.000 C 
ENDBRANCH  11  14
BRANCH   1  17
ATOM     17  C   UNL     1      -3.305  14.325  20.680  0.00  0.00    +0.000 C 
BRANCH  17  19
ATOM     18  C   UNL     1      -5.013  12.657  21.499  0.00  0.00    +0.000 C 
ATOM     19  C   UNL     1      -4.085  13.794  21.889  0.00  0.00    +0.000 C 
ENDBRANCH  17  19
ENDBRANCH   1  17
BRANCH   9  20
ATOM     20  S   UNL     1       1.768  10.863  18.514  0.00  0.00    +0.000 S 
BRANCH  20  21
ATOM     21  C   UNL     1       1.540   9.149  17.816  0.00  0.00    +0.000 C 
BRANCH  21  22
ATOM     22  C   UNL     1       2.297   7.995  18.471  0.00  0.00    +0.000 A 
ATOM     23  C   UNL     1       3.340   7.351  17.780  0.00  0.00    +0.000 A 
ATOM     24  C   UNL     1       3.913   6.148  18.197  0.00  0.00    +0.000 A 
ATOM     25  C   UNL     1       3.488   5.572  19.379  0.00  0.00    +0.000 A 
ATOM     26  C   UNL     1       2.497   6.214  20.128  0.00  0.00    +0.000 A 
ATOM     27  C   UNL     1       1.915   7.433  19.711  0.00  0.00    +0.000 A 
BRANCH  24  28
ATOM     28  C   UNL     1       4.930   5.552  17.288  0.00  0.00    +0.000 C 
ATOM     29  C   UNL     1       5.259   6.243  15.994  0.00  0.00    +0.000 C 
ATOM     30  O   UNL     1       5.533   4.536  17.624  0.00  0.00    +0.000 OA
ENDBRANCH  24  28
BRANCH  27  31
ATOM     31  O   UNL     1       0.986   8.099  20.485  0.00  0.00    +0.000 OA
BRANCH  31  32
ATOM     32  C   UNL     1       1.518   8.725  21.669  0.00  0.00    +0.000 C 
ATOM     33  C   UNL     1       0.451   9.502  22.416  0.00  0.00    +0.000 C 
ENDBRANCH  31  32
ENDBRANCH  27  31
ENDBRANCH  21  22
ENDBRANCH  20  21
ENDBRANCH   9  20
TORSDOF 9
ENDMDL
MODEL 9
REMARK VINA RESULT:      -6.4      3.161      8.367
REMARK  Name = 
REMARK  13 active torsions:
REMARK  status: ('A' for Active; 'I' for Inactive)
REMARK    1  A    between atoms: C_1  and  C_2
REMARK    2  A    between atoms: C_2  and  C_3
REMARK    3  A    between atoms: C_3  and  N_4
REMARK    4  A    between atoms: N_7  and  C_8
REMARK    5  A    between atoms: C_12  and  S_13
REMARK    6  A    between atoms: S_13  and  C_14
REMARK    7  A    between atoms: C_14  and  C_15
REMARK    8  A    between atoms: C_17  and  C_18
REMARK    9  A    between atoms: C_18  and  C_19
REMARK   10  A    between atoms: C_23  and  O_24
REMARK   11  A    between atoms: O_24  and  C_25
REMARK   12  A    between atoms: C_25  and  C_26
REMARK   13  A    between atoms: C_28  and  C_29
REMARK                            x       y       z     vdW  Elec       q    Type
REMARK                         _______ _______ _______ _____ _____    ______ ____
ROOT
ATOM      1  N   UNL     1      -3.648  13.327  20.626  0.00  0.00    +0.000 N 
ATOM      2  C   UNL     1      -4.821  12.858  20.065  0.00  0.00    +0.000 A 
ATOM      3  O   UNL     1      -5.927  13.254  20.446  0.00  0.00    +0.000 OA
ATOM      4  N   UNL     1      -4.684  11.938  19.040  0.00  0.00    +0.000 N 
ATOM      5  C   UNL     1      -5.893  11.435  18.402  0.00  0.00    +0.000 C 
ATOM      6  C   UNL     1      -3.465  11.575  18.463  0.00  0.00    +0.000 A 
ATOM      7  O   UNL     1      -3.399  11.008  17.378  0.00  0.00    +0.000 OA
ATOM      8  C   UNL     1      -2.244  11.977  19.171  0.00  0.00    +0.000 A 
ATOM      9  C   UNL     1      -0.944  11.560  18.890  0.00  0.00    +0.000 A 
ATOM     10  N   UNL     1       0.130  12.106  19.510  0.00  0.00    +0.000 NA
ATOM     11  C   UNL     1      -0.080  12.995  20.490  0.00  0.00    +0.000 A 
ATOM     12  N   UNL     1      -1.307  13.346  20.885  0.00  0.00    +0.000 NA
ATOM     13  C   UNL     1      -2.373  12.863  20.215  0.00  0.00    +0.000 A 
ENDROOT
BRANCH  11  14
ATOM     14  C   UNL     1       1.098  13.674  21.135  0.00  0.00    +0.000 C 
ATOM     15  C   UNL     1       1.711  14.923  20.543  0.00  0.00    +0.000 C 
ATOM     16  C   UNL     1       0.933  15.007  21.823  0.00  0.00    +0.000 C 
ENDBRANCH  11  14
BRANCH   1  17
ATOM     17  C   UNL     1      -3.713  14.289  21.734  0.00  0.00    +0.000 C 
BRANCH  17  19
ATOM     18  C   UNL     1      -4.602  13.002  23.716  0.00  0.00    +0.000 C 
ATOM     19  C   UNL     1      -3.383  13.661  23.095  0.00  0.00    +0.000 C 
ENDBRANCH  17  19
ENDBRANCH   1  17
BRANCH   9  20
ATOM     20  S   UNL     1      -0.527  10.133  17.861  0.00  0.00    +0.000 S 
BRANCH  20  21
ATOM     21  C   UNL     1       1.303   9.900  18.132  0.00  0.00    +0.000 C 
BRANCH  21  22
ATOM     22  C   UNL     1       1.772   8.638  18.856  0.00  0.00    +0.000 A 
ATOM     23  C   UNL     1       2.380   7.594  18.136  0.00  0.00    +0.000 A 
ATOM     24  C   UNL     1       2.612   6.325  18.667  0.00  0.00    +0.000 A 
ATOM     25  C   UNL     1       2.289   6.076  19.987  0.00  0.00    +0.000 A 
ATOM     26  C   UNL     1       1.740   7.107  20.756  0.00  0.00    +0.000 A 
ATOM     27  C   UNL     1       1.504   8.395  20.223  0.00  0.00    +0.000 A 
BRANCH  24  28
ATOM     28  C   UNL     1       3.166   5.309  17.730  0.00  0.00    +0.000 C 
ATOM     29  C   UNL     1       4.463   5.586  17.022  0.00  0.00    +0.000 C 
ATOM     30  O   UNL     1       2.594   4.232  17.584  0.00  0.00    +0.000 OA
ENDBRANCH  24  28
BRANCH  27  31
ATOM     31  O   UNL     1       1.026   9.429  21.002  0.00  0.00    +0.000 OA
BRANCH  31  32
ATOM     32  C   UNL     1       0.623   9.052  22.333  0.00  0.00    +0.000 C 
ATOM     33  C   UNL     1      -0.460   9.969  22.869  0.00  0.00    +0.000 C 
ENDBRANCH  31  32
ENDBRANCH  27  31
ENDBRANCH  21  22
ENDBRANCH  20  21
ENDBRANCH   9  20
TORSDOF 9
ENDMDL
