MODEL 1
REMARK VINA RESULT:      -8.2      0.000      0.000
REMARK  Name = 
REMARK  12 active torsions:
REMARK  status: ('A' for Active; 'I' for Inactive)
REMARK    1  A    between atoms: C_1  and  O_2
REMARK    2  A    between atoms: O_2  and  C_3
REMARK    3  A    between atoms: C_5  and  N_6
REMARK    4  A    between atoms: N_6  and  C_7
REMARK    5  A    between atoms: C_7  and  C_8
REMARK    6  A    between atoms: C_7  and  C_9
REMARK    7  A    between atoms: C_9  and  C_10
REMARK    8  A    between atoms: C_10  and  C_11
REMARK    9  A    between atoms: C_11  and  N_12
REMARK   10  A    between atoms: C_19  and  O_20
REMARK   11  A    between atoms: O_20  and  C_21
REMARK   12  A    between atoms: C_26  and  C_27
REMARK                            x       y       z     vdW  Elec       q    Type
REMARK                         _______ _______ _______ _____ _____    ______ ____
ROOT
ATOM      1  C   UNL     1       3.215   4.176  17.521  0.00  0.00    +0.000 A 
ATOM      2  C   UNL     1       3.939   3.638  16.457  0.00  0.00    +0.000 A 
ATOM      3  C   UNL     1       5.316   3.865  16.317  0.00  0.00    +0.000 A 
ATOM      4  C   UNL     1       6.021   4.547  17.338  0.00  0.00    +0.000 A 
ATOM      5  N   UNL     1       7.352   4.760  17.195  0.00  0.00    +0.000 NA
ATOM      6  C   UNL     1       8.028   5.357  18.195  0.00  0.00    +0.000 A 
ATOM      7  C   UNL     1       7.462   5.706  19.398  0.00  0.00    +0.000 A 
ATOM      8  C   UNL     1       6.110   5.465  19.554  0.00  0.00    +0.000 A 
ATOM      9  C   UNL     1       5.314   4.965  18.493  0.00  0.00    +0.000 A 
ATOM     10  C   UNL     1       3.890   4.882  18.524  0.00  0.00    +0.000 A 
ENDROOT
BRANCH   1  12
ATOM     11  C   UNL     1       1.396   2.875  18.326  0.00  0.00    +0.000 C 
ATOM     12  O   UNL     1       1.873   3.900  17.464  0.00  0.00    +0.000 OA
ENDBRANCH   1  12
BRANCH   3  13
ATOM     13  N   UNL     1       5.997   3.495  15.132  0.00  0.00    +0.000 N 
ATOM     14  H   UNL     1       5.828   2.500  14.954  0.00  0.00    +0.000 HD
BRANCH  13  15
ATOM     15  C   UNL     1       5.949   4.361  13.951  0.00  0.00    +0.000 C 
ATOM     16  C   UNL     1       7.379   4.745  13.561  0.00  0.00    +0.000 C 
BRANCH  15  17
ATOM     17  C   UNL     1       5.293   3.618  12.768  0.00  0.00    +0.000 C 
BRANCH  17  18
ATOM     18  C   UNL     1       6.256   2.791  11.904  0.00  0.00    +0.000 C 
BRANCH  18  19
ATOM     19  C   UNL     1       5.649   1.555  11.235  0.00  0.00    +0.000 C 
BRANCH  19  20
ATOM     20  N   UNL     1       6.520   0.393  11.332  0.00  0.00    +0.000 NA
ATOM     21  H   UNL     1       5.969  -0.451  11.495  0.00  0.00    +0.000 HD
ATOM     22  H   UNL     1       7.121   0.492  12.151  0.00  0.00    +0.000 HD
ENDBRANCH  19  20
ENDBRANCH  18  19
ENDBRANCH  17  18
ENDBRANCH  15  17
ENDBRANCH  13  15
ENDBRANCH   3  13
BRANCH  10  23
ATOM     23  O   UNL     1       3.125   5.441  19.536  0.00  0.00    +0.000 OA
BRANCH  23  24
ATOM     24  C   UNL     1       2.459   6.634  19.320  0.00  0.00    +0.000 A 
ATOM     25  C   UNL     1       2.568   7.407  18.160  0.00  0.00    +0.000 A 
ATOM     26  C   UNL     1       2.111   8.724  18.169  0.00  0.00    +0.000 A 
ATOM     27  C   UNL     1       1.457   9.226  19.291  0.00  0.00    +0.000 A 
ATOM     28  F   UNL     1       1.094  10.516  19.289  0.00  0.00    +0.000 F 
ATOM     29  C   UNL     1       1.201   8.420  20.395  0.00  0.00    +0.000 A 
ATOM     30  C   UNL     1       1.719   7.113  20.405  0.00  0.00    +0.000 A 
BRANCH  29  31
ATOM     31  C   UNL     1       0.410   8.929  21.563  0.00  0.00    +0.000 C 
ATOM     32  F   UNL     1      -0.105  10.177  21.413  0.00  0.00    +0.000 F 
ATOM     33  F   UNL     1      -0.653   8.122  21.844  0.00  0.00    +0.000 F 
ATOM     34  F   UNL     1       1.150   8.969  22.707  0.00  0.00    +0.000 F 
ENDBRANCH  29  31
ENDBRANCH  23  24
ENDBRANCH  10  23
TORSDOF 10
ENDMDL
MODEL 2
REMARK VINA RESULT:      -7.9      1.031      1.230
REMARK  Name = 
REMARK  12 active torsions:
REMARK  status: ('A' for Active; 'I' for Inactive)
REMARK    1  A    between atoms: C_1  and  O_2
REMARK    2  A    between atoms: O_2  and  C_3
REMARK    3  A    between atoms: C_5  and  N_6
REMARK    4  A    between atoms: N_6  and  C_7
REMARK    5  A    between atoms: C_7  and  C_8
REMARK    6  A    between atoms: C_7  and  C_9
REMARK    7  A    between atoms: C_9  and  C_10
REMARK    8  A    between atoms: C_10  and  C_11
REMARK    9  A    between atoms: C_11  and  N_12
REMARK   10  A    between atoms: C_19  and  O_20
REMARK   11  A    between atoms: O_20  and  C_21
REMARK   12  A    between atoms: C_26  and  C_27
REMARK                            x       y       z     vdW  Elec       q    Type
REMARK                         _______ _______ _______ _____ _____    ______ ____
ROOT
ATOM      1  C   UNL     1       3.273   4.232  17.517  0.00  0.00    +0.000 A 
ATOM      2  C   UNL     1       3.981   3.643  16.472  0.00  0.00    +0.000 A 
ATOM      3  C   UNL     1       5.364   3.826  16.326  0.00  0.00    +0.000 A 
ATOM      4  C   UNL     1       6.089   4.517  17.327  0.00  0.00    +0.000 A 
ATOM      5  N   UNL     1       7.425   4.688  17.180  0.00  0.00    +0.000 NA
ATOM      6  C   UNL     1       8.118   5.295  18.162  0.00  0.00    +0.000 A 
ATOM      7  C   UNL     1       7.561   5.697  19.353  0.00  0.00    +0.000 A 
ATOM      8  C   UNL     1       6.202   5.499  19.515  0.00  0.00    +0.000 A 
ATOM      9  C   UNL     1       5.393   4.991  18.468  0.00  0.00    +0.000 A 
ATOM     10  C   UNL     1       3.967   4.949  18.500  0.00  0.00    +0.000 A 
ENDROOT
BRANCH   1  12
ATOM     11  C   UNL     1       1.442   2.895  18.232  0.00  0.00    +0.000 C 
ATOM     12  O   UNL     1       1.924   3.993  17.467  0.00  0.00    +0.000 OA
ENDBRANCH   1  12
BRANCH   3  13
ATOM     13  N   UNL     1       6.036   3.401  15.154  0.00  0.00    +0.000 N 
ATOM     14  H   UNL     1       5.853   2.401  15.017  0.00  0.00    +0.000 HD
BRANCH  13  15
ATOM     15  C   UNL     1       5.991   4.220  13.940  0.00  0.00    +0.000 C 
ATOM     16  C   UNL     1       7.375   4.836  13.709  0.00  0.00    +0.000 C 
BRANCH  15  17
ATOM     17  C   UNL     1       5.624   3.350  12.720  0.00  0.00    +0.000 C 
BRANCH  17  18
ATOM     18  C   UNL     1       4.526   3.928  11.814  0.00  0.00    +0.000 C 
BRANCH  18  19
ATOM     19  C   UNL     1       3.826   2.921  10.897  0.00  0.00    +0.000 C 
BRANCH  19  20
ATOM     20  N   UNL     1       3.036   3.574   9.864  0.00  0.00    +0.000 NA
ATOM     21  H   UNL     1       3.612   3.759   9.041  0.00  0.00    +0.000 HD
ATOM     22  H   UNL     1       2.735   4.489  10.201  0.00  0.00    +0.000 HD
ENDBRANCH  19  20
ENDBRANCH  18  19
ENDBRANCH  17  18
ENDBRANCH  15  17
ENDBRANCH  13  15
ENDBRANCH   3  13
BRANCH  10  23
ATOM     23  O   UNL     1       3.219   5.560  19.494  0.00  0.00    +0.000 OA
BRANCH  23  24
ATOM     24  C   UNL     1       2.548   6.740  19.226  0.00  0.00    +0.000 A 
ATOM     25  C   UNL     1       2.743   7.524  18.085  0.00  0.00    +0.000 A 
ATOM     26  C   UNL     1       2.257   8.831  18.062  0.00  0.00    +0.000 A 
ATOM     27  C   UNL     1       1.493   9.309  19.124  0.00  0.00    +0.000 A 
ATOM     28  F   UNL     1       1.103  10.591  19.098  0.00  0.00    +0.000 F 
ATOM     29  C   UNL     1       1.159   8.489  20.196  0.00  0.00    +0.000 A 
ATOM     30  C   UNL     1       1.703   7.193  20.244  0.00  0.00    +0.000 A 
BRANCH  29  31
ATOM     31  C   UNL     1       0.255   8.971  21.292  0.00  0.00    +0.000 C 
ATOM     32  F   UNL     1       0.887   9.405  22.414  0.00  0.00    +0.000 F 
ATOM     33  F   UNL     1      -0.526  10.012  20.882  0.00  0.00    +0.000 F 
ATOM     34  F   UNL     1      -0.612   8.004  21.705  0.00  0.00    +0.000 F 
ENDBRANCH  29  31
ENDBRANCH  23  24
ENDBRANCH  10  23
TORSDOF 10
ENDMDL
MODEL 3
REMARK VINA RESULT:      -7.7      4.976      8.743
REMARK  Name = 
REMARK  12 active torsions:
REMARK  status: ('A' for Active; 'I' for Inactive)
REMARK    1  A    between atoms: C_1  and  O_2
REMARK    2  A    between atoms: O_2  and  C_3
REMARK    3  A    between atoms: C_5  and  N_6
REMARK    4  A    between atoms: N_6  and  C_7
REMARK    5  A    between atoms: C_7  and  C_8
REMARK    6  A    between atoms: C_7  and  C_9
REMARK    7  A    between atoms: C_9  and  C_10
REMARK    8  A    between atoms: C_10  and  C_11
REMARK    9  A    between atoms: C_11  and  N_12
REMARK   10  A    between atoms: C_19  and  O_20
REMARK   11  A    between atoms: O_20  and  C_21
REMARK   12  A    between atoms: C_26  and  C_27
REMARK                            x       y       z     vdW  Elec       q    Type
REMARK                         _______ _______ _______ _____ _____    ______ ____
ROOT
ATOM      1  C   UNL     1       5.493   6.283  16.937  0.00  0.00    +0.000 A 
ATOM      2  C   UNL     1       4.412   7.045  17.375  0.00  0.00    +0.000 A 
ATOM      3  C   UNL     1       3.176   6.458  17.685  0.00  0.00    +0.000 A 
ATOM      4  C   UNL     1       3.050   5.048  17.679  0.00  0.00    +0.000 A 
ATOM      5  N   UNL     1       1.853   4.489  17.982  0.00  0.00    +0.000 NA
ATOM      6  C   UNL     1       1.754   3.146  18.032  0.00  0.00    +0.000 A 
ATOM      7  C   UNL     1       2.820   2.295  17.861  0.00  0.00    +0.000 A 
ATOM      8  C   UNL     1       4.046   2.866  17.578  0.00  0.00    +0.000 A 
ATOM      9  C   UNL     1       4.190   4.262  17.378  0.00  0.00    +0.000 A 
ATOM     10  C   UNL     1       5.377   4.888  16.892  0.00  0.00    +0.000 A 
ENDROOT
BRANCH   1  12
ATOM     11  C   UNL     1       7.521   7.277  17.679  0.00  0.00    +0.000 C 
ATOM     12  O   UNL     1       6.599   7.030  16.625  0.00  0.00    +0.000 OA
ENDBRANCH   1  12
BRANCH   3  13
ATOM     13  N   UNL     1       2.031   7.256  17.924  0.00  0.00    +0.000 N 
ATOM     14  H   UNL     1       1.262   6.644  18.217  0.00  0.00    +0.000 HD
BRANCH  13  15
ATOM     15  C   UNL     1       2.150   8.513  18.666  0.00  0.00    +0.000 C 
ATOM     16  C   UNL     1       1.412   9.613  17.896  0.00  0.00    +0.000 C 
BRANCH  15  17
ATOM     17  C   UNL     1       1.513   8.373  20.065  0.00  0.00    +0.000 C 
BRANCH  17  18
ATOM     18  C   UNL     1       0.728   9.602  20.549  0.00  0.00    +0.000 C 
BRANCH  18  19
ATOM     19  C   UNL     1       0.421   9.641  22.049  0.00  0.00    +0.000 C 
BRANCH  19  20
ATOM     20  N   UNL     1       1.616   9.461  22.860  0.00  0.00    +0.000 NA
ATOM     21  H   UNL     1       1.460   8.740  23.566  0.00  0.00    +0.000 HD
ATOM     22  H   UNL     1       1.801  10.320  23.379  0.00  0.00    +0.000 HD
ENDBRANCH  19  20
ENDBRANCH  18  19
ENDBRANCH  17  18
ENDBRANCH  15  17
ENDBRANCH  13  15
ENDBRANCH   3  13
BRANCH  10  23
ATOM     23  O   UNL     1       6.460   4.172  16.405  0.00  0.00    +0.000 OA
BRANCH  23  24
ATOM     24  C   UNL     1       6.788   4.246  15.063  0.00  0.00    +0.000 A 
ATOM     25  C   UNL     1       7.877   4.956  14.548  0.00  0.00    +0.000 A 
ATOM     26  C   UNL     1       7.936   5.222  13.181  0.00  0.00    +0.000 A 
ATOM     27  C   UNL     1       6.973   4.692  12.326  0.00  0.00    +0.000 A 
ATOM     28  F   UNL     1       7.023   5.027  11.029  0.00  0.00    +0.000 F 
ATOM     29  C   UNL     1       5.970   3.855  12.802  0.00  0.00    +0.000 A 
ATOM     30  C   UNL     1       5.879   3.640  14.189  0.00  0.00    +0.000 A 
BRANCH  29  31
ATOM     31  C   UNL     1       4.992   3.205  11.870  0.00  0.00    +0.000 C 
ATOM     32  F   UNL     1       4.692   3.920  10.755  0.00  0.00    +0.000 F 
ATOM     33  F   UNL     1       5.443   1.997  11.424  0.00  0.00    +0.000 F 
ATOM     34  F   UNL     1       3.798   2.947  12.477  0.00  0.00    +0.000 F 
ENDBRANCH  29  31
ENDBRANCH  23  24
ENDBRANCH  10  23
TORSDOF 10
ENDMDL
MODEL 4
REMARK VINA RESULT:      -7.5      5.776      8.397
REMARK  Name = 
REMARK  12 active torsions:
REMARK  status: ('A' for Active; 'I' for Inactive)
REMARK    1  A    between atoms: C_1  and  O_2
REMARK    2  A    between atoms: O_2  and  C_3
REMARK    3  A    between atoms: C_5  and  N_6
REMARK    4  A    between atoms: N_6  and  C_7
REMARK    5  A    between atoms: C_7  and  C_8
REMARK    6  A    between atoms: C_7  and  C_9
REMARK    7  A    between atoms: C_9  and  C_10
REMARK    8  A    between atoms: C_10  and  C_11
REMARK    9  A    between atoms: C_11  and  N_12
REMARK   10  A    between atoms: C_19  and  O_20
REMARK   11  A    between atoms: O_20  and  C_21
REMARK   12  A    between atoms: C_26  and  C_27
REMARK                            x       y       z     vdW  Elec       q    Type
REMARK                         _______ _______ _______ _____ _____    ______ ____
ROOT
ATOM      1  C   UNL     1       1.800   8.090  18.657  0.00  0.00    +0.000 A 
ATOM      2  C   UNL     1       1.099   9.097  17.994  0.00  0.00    +0.000 A 
ATOM      3  C   UNL     1       0.214   9.945  18.675  0.00  0.00    +0.000 A 
ATOM      4  C   UNL     1       0.118   9.871  20.086  0.00  0.00    +0.000 A 
ATOM      5  N   UNL     1      -0.738  10.696  20.736  0.00  0.00    +0.000 NA
ATOM      6  C   UNL     1      -0.784  10.662  22.081  0.00  0.00    +0.000 A 
ATOM      7  C   UNL     1       0.044   9.881  22.853  0.00  0.00    +0.000 A 
ATOM      8  C   UNL     1       0.936   9.058  22.191  0.00  0.00    +0.000 A 
ATOM      9  C   UNL     1       0.940   8.947  20.778  0.00  0.00    +0.000 A 
ATOM     10  C   UNL     1       1.691   7.978  20.048  0.00  0.00    +0.000 A 
ENDROOT
BRANCH   1  12
ATOM     11  C   UNL     1       3.811   7.881  17.406  0.00  0.00    +0.000 C 
ATOM     12  O   UNL     1       2.572   7.322  17.824  0.00  0.00    +0.000 OA
ENDBRANCH   1  12
BRANCH   3  13
ATOM     13  N   UNL     1      -0.644  10.821  17.967  0.00  0.00    +0.000 N 
ATOM     14  H   UNL     1      -0.080  11.570  17.554  0.00  0.00    +0.000 HD
BRANCH  13  15
ATOM     15  C   UNL     1      -1.700  10.282  17.105  0.00  0.00    +0.000 C 
ATOM     16  C   UNL     1      -2.758   9.608  17.984  0.00  0.00    +0.000 C 
BRANCH  15  17
ATOM     17  C   UNL     1      -2.369  11.418  16.304  0.00  0.00    +0.000 C 
BRANCH  17  18
ATOM     18  C   UNL     1      -3.492  10.971  15.354  0.00  0.00    +0.000 C 
BRANCH  18  19
ATOM     19  C   UNL     1      -3.095   9.932  14.303  0.00  0.00    +0.000 C 
BRANCH  19  20
ATOM     20  N   UNL     1      -3.760  10.157  13.028  0.00  0.00    +0.000 NA
ATOM     21  H   UNL     1      -4.680  10.575  13.177  0.00  0.00    +0.000 HD
ATOM     22  H   UNL     1      -3.936   9.258  12.579  0.00  0.00    +0.000 HD
ENDBRANCH  19  20
ENDBRANCH  18  19
ENDBRANCH  17  18
ENDBRANCH  15  17
ENDBRANCH  13  15
ENDBRANCH   3  13
BRANCH  10  23
ATOM     23  O   UNL     1       2.366   6.933  20.659  0.00  0.00    +0.000 OA
BRANCH  23  24
ATOM     24  C   UNL     1       2.081   5.627  20.305  0.00  0.00    +0.000 A 
ATOM     25  C   UNL     1       0.823   5.027  20.420  0.00  0.00    +0.000 A 
ATOM     26  C   UNL     1       0.714   3.640  20.335  0.00  0.00    +0.000 A 
ATOM     27  C   UNL     1       1.835   2.872  20.030  0.00  0.00    +0.000 A 
ATOM     28  F   UNL     1       1.707   1.538  20.025  0.00  0.00    +0.000 F 
ATOM     29  C   UNL     1       3.063   3.466  19.758  0.00  0.00    +0.000 A 
ATOM     30  C   UNL     1       3.180   4.859  19.907  0.00  0.00    +0.000 A 
BRANCH  29  31
ATOM     31  C   UNL     1       4.246   2.648  19.334  0.00  0.00    +0.000 C 
ATOM     32  F   UNL     1       4.695   1.758  20.257  0.00  0.00    +0.000 F 
ATOM     33  F   UNL     1       3.979   1.916  18.214  0.00  0.00    +0.000 F 
ATOM     34  F   UNL     1       5.320   3.425  19.015  0.00  0.00    +0.000 F 
ENDBRANCH  29  31
ENDBRANCH  23  24
ENDBRANCH  10  23
TORSDOF 10
ENDMDL
MODEL 5
REMARK VINA RESULT:      -7.3      4.976      8.330
REMARK  Name = 
REMARK  12 active torsions:
REMARK  status: ('A' for Active; 'I' for Inactive)
REMARK    1  A    between atoms: C_1  and  O_2
REMARK    2  A    between atoms: O_2  and  C_3
REMARK    3  A    between atoms: C_5  and  N_6
REMARK    4  A    between atoms: N_6  and  C_7
REMARK    5  A    between atoms: C_7  and  C_8
REMARK    6  A    between atoms: C_7  and  C_9
REMARK    7  A    between atoms: C_9  and  C_10
REMARK    8  A    between atoms: C_10  and  C_11
REMARK    9  A    between atoms: C_11  and  N_12
REMARK   10  A    between atoms: C_19  and  O_20
REMARK   11  A    between atoms: O_20  and  C_21
REMARK   12  A    between atoms: C_26  and  C_27
REMARK                            x       y       z     vdW  Elec       q    Type
REMARK                         _______ _______ _______ _____ _____    ______ ____
ROOT
ATOM      1  C   UNL     1       5.630   6.335  16.917  0.00  0.00    +0.000 A 
ATOM      2  C   UNL     1       4.516   7.032  17.380  0.00  0.00    +0.000 A 
ATOM      3  C   UNL     1       3.305   6.381  17.658  0.00  0.00    +0.000 A 
ATOM      4  C   UNL     1       3.239   4.967  17.594  0.00  0.00    +0.000 A 
ATOM      5  N   UNL     1       2.066   4.346  17.867  0.00  0.00    +0.000 NA
ATOM      6  C   UNL     1       2.024   3.000  17.861  0.00  0.00    +0.000 A 
ATOM      7  C   UNL     1       3.126   2.202  17.661  0.00  0.00    +0.000 A 
ATOM      8  C   UNL     1       4.328   2.836  17.409  0.00  0.00    +0.000 A 
ATOM      9  C   UNL     1       4.413   4.244  17.267  0.00  0.00    +0.000 A 
ATOM     10  C   UNL     1       5.574   4.939  16.814  0.00  0.00    +0.000 A 
ENDROOT
BRANCH   1  12
ATOM     11  C   UNL     1       7.602   7.395  17.715  0.00  0.00    +0.000 C 
ATOM     12  O   UNL     1       6.704   7.141  16.642  0.00  0.00    +0.000 OA
ENDBRANCH   1  12
BRANCH   3  13
ATOM     13  N   UNL     1       2.126   7.118  17.924  0.00  0.00    +0.000 N 
ATOM     14  H   UNL     1       1.371   6.460  18.145  0.00  0.00    +0.000 HD
BRANCH  13  15
ATOM     15  C   UNL     1       2.179   8.317  18.765  0.00  0.00    +0.000 C 
ATOM     16  C   UNL     1       1.178   9.343  18.225  0.00  0.00    +0.000 C 
BRANCH  15  17
ATOM     17  C   UNL     1       1.799   7.969  20.220  0.00  0.00    +0.000 C 
BRANCH  17  18
ATOM     18  C   UNL     1       1.279   6.538  20.433  0.00  0.00    +0.000 C 
BRANCH  18  19
ATOM     19  C   UNL     1       2.269   5.565  21.078  0.00  0.00    +0.000 C 
BRANCH  19  20
ATOM     20  N   UNL     1       1.761   4.202  21.107  0.00  0.00    +0.000 NA
ATOM     21  H   UNL     1       0.941   4.141  21.713  0.00  0.00    +0.000 HD
ATOM     22  H   UNL     1       2.461   3.592  21.531  0.00  0.00    +0.000 HD
ENDBRANCH  19  20
ENDBRANCH  18  19
ENDBRANCH  17  18
ENDBRANCH  15  17
ENDBRANCH  13  15
ENDBRANCH   3  13
BRANCH  10  23
ATOM     23  O   UNL     1       6.688   4.291  16.304  0.00  0.00    +0.000 OA
BRANCH  23  24
ATOM     24  C   UNL     1       6.952   4.338  14.946  0.00  0.00    +0.000 A 
ATOM     25  C   UNL     1       8.011   5.043  14.366  0.00  0.00    +0.000 A 
ATOM     26  C   UNL     1       8.004   5.280  12.992  0.00  0.00    +0.000 A 
ATOM     27  C   UNL     1       7.005   4.727  12.195  0.00  0.00    +0.000 A 
ATOM     28  F   UNL     1       6.992   5.035  10.891  0.00  0.00    +0.000 F 
ATOM     29  C   UNL     1       6.032   3.894  12.736  0.00  0.00    +0.000 A 
ATOM     30  C   UNL     1       6.007   3.709  14.130  0.00  0.00    +0.000 A 
BRANCH  29  31
ATOM     31  C   UNL     1       5.014   3.219  11.865  0.00  0.00    +0.000 C 
ATOM     32  F   UNL     1       3.832   2.934  12.471  0.00  0.00    +0.000 F 
ATOM     33  F   UNL     1       4.697   3.977  10.776  0.00  0.00    +0.000 F 
ATOM     34  F   UNL     1       5.470   2.035  11.365  0.00  0.00    +0.000 F 
ENDBRANCH  29  31
ENDBRANCH  23  24
ENDBRANCH  10  23
TORSDOF 10
ENDMDL
MODEL 6
REMARK VINA RESULT:      -7.3      5.615      8.871
REMARK  Name = 
REMARK  12 active torsions:
REMARK  status: ('A' for Active; 'I' for Inactive)
REMARK    1  A    between atoms: C_1  and  O_2
REMARK    2  A    between atoms: O_2  and  C_3
REMARK    3  A    between atoms: C_5  and  N_6
REMARK    4  A    between atoms: N_6  and  C_7
REMARK    5  A    between atoms: C_7  and  C_8
REMARK    6  A    between atoms: C_7  and  C_9
REMARK    7  A    between atoms: C_9  and  C_10
REMARK    8  A    between atoms: C_10  and  C_11
REMARK    9  A    between atoms: C_11  and  N_12
REMARK   10  A    between atoms: C_19  and  O_20
REMARK   11  A    between atoms: O_20  and  C_21
REMARK   12  A    between atoms: C_26  and  C_27
REMARK                            x       y       z     vdW  Elec       q    Type
REMARK                         _______ _______ _______ _____ _____    ______ ____
ROOT
ATOM      1  C   UNL     1       2.017   8.286  18.216  0.00  0.00    +0.000 A 
ATOM      2  C   UNL     1       1.253   9.355  17.752  0.00  0.00    +0.000 A 
ATOM      3  C   UNL     1       0.384  10.059  18.598  0.00  0.00    +0.000 A 
ATOM      4  C   UNL     1       0.369   9.769  19.985  0.00  0.00    +0.000 A 
ATOM      5  N   UNL     1      -0.472  10.456  20.796  0.00  0.00    +0.000 NA
ATOM      6  C   UNL     1      -0.440  10.217  22.121  0.00  0.00    +0.000 A 
ATOM      7  C   UNL     1       0.451   9.359  22.721  0.00  0.00    +0.000 A 
ATOM      8  C   UNL     1       1.326   8.678  21.896  0.00  0.00    +0.000 A 
ATOM      9  C   UNL     1       1.254   8.782  20.484  0.00  0.00    +0.000 A 
ATOM     10  C   UNL     1       1.990   7.962  19.578  0.00  0.00    +0.000 A 
ENDROOT
BRANCH   1  12
ATOM     11  C   UNL     1       4.173   7.838  17.320  0.00  0.00    +0.000 C 
ATOM     12  O   UNL     1       2.762   7.681  17.237  0.00  0.00    +0.000 OA
ENDBRANCH   1  12
BRANCH   3  13
ATOM     13  N   UNL     1      -0.537  11.000  18.077  0.00  0.00    +0.000 N 
ATOM     14  H   UNL     1      -0.013  11.775  17.659  0.00  0.00    +0.000 HD
BRANCH  13  15
ATOM     15  C   UNL     1      -1.702  10.546  17.313  0.00  0.00    +0.000 C 
ATOM     16  C   UNL     1      -2.336   9.355  18.039  0.00  0.00    +0.000 C 
BRANCH  15  17
ATOM     17  C   UNL     1      -2.747  11.677  17.206  0.00  0.00    +0.000 C 
BRANCH  17  18
ATOM     18  C   UNL     1      -3.884  11.613  18.237  0.00  0.00    +0.000 C 
BRANCH  18  19
ATOM     19  C   UNL     1      -3.620  12.338  19.559  0.00  0.00    +0.000 C 
BRANCH  19  20
ATOM     20  N   UNL     1      -2.321  12.993  19.577  0.00  0.00    +0.000 NA
ATOM     21  H   UNL     1      -2.434  14.008  19.540  0.00  0.00    +0.000 HD
ATOM     22  H   UNL     1      -1.808  12.743  18.731  0.00  0.00    +0.000 HD
ENDBRANCH  19  20
ENDBRANCH  18  19
ENDBRANCH  17  18
ENDBRANCH  15  17
ENDBRANCH  13  15
ENDBRANCH   3  13
BRANCH  10  23
ATOM     23  O   UNL     1       2.727   6.862  19.987  0.00  0.00    +0.000 OA
BRANCH  23  24
ATOM     24  C   UNL     1       2.208   5.588  19.835  0.00  0.00    +0.000 A 
ATOM     25  C   UNL     1       1.177   5.051  20.612  0.00  0.00    +0.000 A 
ATOM     26  C   UNL     1       0.946   3.676  20.589  0.00  0.00    +0.000 A 
ATOM     27  C   UNL     1       1.668   2.864  19.717  0.00  0.00    +0.000 A 
ATOM     28  F   UNL     1       1.468   1.541  19.773  0.00  0.00    +0.000 F 
ATOM     29  C   UNL     1       2.588   3.405  18.825  0.00  0.00    +0.000 A 
ATOM     30  C   UNL     1       2.861   4.782  18.897  0.00  0.00    +0.000 A 
BRANCH  29  31
ATOM     31  C   UNL     1       3.293   2.545  17.819  0.00  0.00    +0.000 C 
ATOM     32  F   UNL     1       3.855   1.413  18.318  0.00  0.00    +0.000 F 
ATOM     33  F   UNL     1       2.452   2.133  16.827  0.00  0.00    +0.000 F 
ATOM     34  F   UNL     1       4.301   3.213  17.189  0.00  0.00    +0.000 F 
ENDBRANCH  29  31
ENDBRANCH  23  24
ENDBRANCH  10  23
TORSDOF 10
ENDMDL
MODEL 7
REMARK VINA RESULT:      -7.2      6.289     11.084
REMARK  Name = 
REMARK  12 active torsions:
REMARK  status: ('A' for Active; 'I' for Inactive)
REMARK    1  A    between atoms: C_1  and  O_2
REMARK    2  A    between atoms: O_2  and  C_3
REMARK    3  A    between atoms: C_5  and  N_6
REMARK    4  A    between atoms: N_6  and  C_7
REMARK    5  A    between atoms: C_7  and  C_8
REMARK    6  A    between atoms: C_7  and  C_9
REMARK    7  A    between atoms: C_9  and  C_10
REMARK    8  A    between atoms: C_10  and  C_11
REMARK    9  A    between atoms: C_11  and  N_12
REMARK   10  A    between atoms: C_19  and  O_20
REMARK   11  A    between atoms: O_20  and  C_21
REMARK   12  A    between atoms: C_26  and  C_27
REMARK                            x       y       z     vdW  Elec       q    Type
REMARK                         _______ _______ _______ _____ _____    ______ ____
ROOT
ATOM      1  C   UNL     1       0.313  11.883  20.115  0.00  0.00    +0.000 A 
ATOM      2  C   UNL     1      -0.788  12.564  20.631  0.00  0.00    +0.000 A 
ATOM      3  C   UNL     1      -2.037  12.533  19.993  0.00  0.00    +0.000 A 
ATOM      4  C   UNL     1      -2.229  11.692  18.870  0.00  0.00    +0.000 A 
ATOM      5  N   UNL     1      -3.440  11.666  18.261  0.00  0.00    +0.000 NA
ATOM      6  C   UNL     1      -3.634  10.822  17.231  0.00  0.00    +0.000 A 
ATOM      7  C   UNL     1      -2.692   9.921  16.794  0.00  0.00    +0.000 A 
ATOM      8  C   UNL     1      -1.466   9.929  17.432  0.00  0.00    +0.000 A 
ATOM      9  C   UNL     1      -1.151  10.883  18.432  0.00  0.00    +0.000 A 
ATOM     10  C   UNL     1       0.151  11.072  18.984  0.00  0.00    +0.000 A 
ENDROOT
BRANCH   1  12
ATOM     11  C   UNL     1       2.110  13.331  20.681  0.00  0.00    +0.000 C 
ATOM     12  O   UNL     1       1.463  12.074  20.836  0.00  0.00    +0.000 OA
ENDBRANCH   1  12
BRANCH   3  13
ATOM     13  N   UNL     1      -3.086  13.391  20.404  0.00  0.00    +0.000 N 
ATOM     14  H   UNL     1      -3.851  12.818  20.775  0.00  0.00    +0.000 HD
BRANCH  13  15
ATOM     15  C   UNL     1      -2.789  14.609  21.163  0.00  0.00    +0.000 C 
ATOM     16  C   UNL     1      -3.868  15.653  20.862  0.00  0.00    +0.000 C 
BRANCH  15  17
ATOM     17  C   UNL     1      -2.793  14.311  22.677  0.00  0.00    +0.000 C 
BRANCH  17  18
ATOM     18  C   UNL     1      -4.021  13.540  23.186  0.00  0.00    +0.000 C 
BRANCH  18  19
ATOM     19  C   UNL     1      -3.721  12.354  24.107  0.00  0.00    +0.000 C 
BRANCH  19  20
ATOM     20  N   UNL     1      -4.822  12.072  25.016  0.00  0.00    +0.000 NA
ATOM     21  H   UNL     1      -4.530  11.401  25.729  0.00  0.00    +0.000 HD
ATOM     22  H   UNL     1      -5.574  11.615  24.500  0.00  0.00    +0.000 HD
ENDBRANCH  19  20
ENDBRANCH  18  19
ENDBRANCH  17  18
ENDBRANCH  15  17
ENDBRANCH  13  15
ENDBRANCH   3  13
BRANCH  10  23
ATOM     23  O   UNL     1       1.281  10.451  18.476  0.00  0.00    +0.000 OA
BRANCH  23  24
ATOM     24  C   UNL     1       1.578   9.151  18.845  0.00  0.00    +0.000 A 
ATOM     25  C   UNL     1       1.148   8.541  20.027  0.00  0.00    +0.000 A 
ATOM     26  C   UNL     1       1.752   7.356  20.445  0.00  0.00    +0.000 A 
ATOM     27  C   UNL     1       2.700   6.734  19.635  0.00  0.00    +0.000 A 
ATOM     28  F   UNL     1       3.309   5.635  20.101  0.00  0.00    +0.000 F 
ATOM     29  C   UNL     1       3.025   7.246  18.384  0.00  0.00    +0.000 A 
ATOM     30  C   UNL     1       2.459   8.474  17.995  0.00  0.00    +0.000 A 
BRANCH  29  31
ATOM     31  C   UNL     1       3.970   6.526  17.470  0.00  0.00    +0.000 C 
ATOM     32  F   UNL     1       5.212   6.308  17.976  0.00  0.00    +0.000 F 
ATOM     33  F   UNL     1       3.494   5.296  17.117  0.00  0.00    +0.000 F 
ATOM     34  F   UNL     1       4.160   7.194  16.297  0.00  0.00    +0.000 F 
ENDBRANCH  29  31
ENDBRANCH  23  24
ENDBRANCH  10  23
TORSDOF 10
ENDMDL
MODEL 8
REMARK VINA RESULT:      -7.2      6.380     10.883
REMARK  Name = 
REMARK  12 active torsions:
REMARK  status: ('A' for Active; 'I' for Inactive)
REMARK    1  A    between atoms: C_1  and  O_2
REMARK    2  A    between atoms: O_2  and  C_3
REMARK    3  A    between atoms: C_5  and  N_6
REMARK    4  A    between atoms: N_6  and  C_7
REMARK    5  A    between atoms: C_7  and  C_8
REMARK    6  A    between atoms: C_7  and  C_9
REMARK    7  A    between atoms: C_9  and  C_10
REMARK    8  A    between atoms: C_10  and  C_11
REMARK    9  A    between atoms: C_11  and  N_12
REMARK   10  A    between atoms: C_19  and  O_20
REMARK   11  A    between atoms: O_20  and  C_21
REMARK   12  A    between atoms: C_26  and  C_27
REMARK                            x       y       z     vdW  Elec       q    Type
REMARK                         _______ _______ _______ _____ _____    ______ ____
ROOT
ATOM      1  C   UNL     1       0.272  11.854  20.052  0.00  0.00    +0.000 A 
ATOM      2  C   UNL     1      -0.855  12.526  20.524  0.00  0.00    +0.000 A 
ATOM      3  C   UNL     1      -2.075  12.489  19.833  0.00  0.00    +0.000 A 
ATOM      4  C   UNL     1      -2.213  11.652  18.699  0.00  0.00    +0.000 A 
ATOM      5  N   UNL     1      -3.396  11.620  18.039  0.00  0.00    +0.000 NA
ATOM      6  C   UNL     1      -3.540  10.779  16.997  0.00  0.00    +0.000 A 
ATOM      7  C   UNL     1      -2.573   9.887  16.597  0.00  0.00    +0.000 A 
ATOM      8  C   UNL     1      -1.376   9.901  17.287  0.00  0.00    +0.000 A 
ATOM      9  C   UNL     1      -1.112  10.852  18.304  0.00  0.00    +0.000 A 
ATOM     10  C   UNL     1       0.164  11.048  18.912  0.00  0.00    +0.000 A 
ENDROOT
BRANCH   1  12
ATOM     11  C   UNL     1       1.935  13.363  20.831  0.00  0.00    +0.000 C 
ATOM     12  O   UNL     1       1.388  12.050  20.823  0.00  0.00    +0.000 OA
ENDBRANCH   1  12
BRANCH   3  13
ATOM     13  N   UNL     1      -3.147  13.337  20.202  0.00  0.00    +0.000 N 
ATOM     14  H   UNL     1      -3.703  13.545  19.367  0.00  0.00    +0.000 HD
BRANCH  13  15
ATOM     15  C   UNL     1      -3.919  13.064  21.417  0.00  0.00    +0.000 C 
ATOM     16  C   UNL     1      -3.531  14.087  22.490  0.00  0.00    +0.000 C 
BRANCH  15  17
ATOM     17  C   UNL     1      -5.430  13.191  21.133  0.00  0.00    +0.000 C 
BRANCH  17  18
ATOM     18  C   UNL     1      -5.985  12.194  20.104  0.00  0.00    +0.000 C 
BRANCH  18  19
ATOM     19  C   UNL     1      -7.400  11.677  20.380  0.00  0.00    +0.000 C 
BRANCH  19  20
ATOM     20  N   UNL     1      -7.425  10.684  21.443  0.00  0.00    +0.000 NA
ATOM     21  H   UNL     1      -8.372  10.581  21.811  0.00  0.00    +0.000 HD
ATOM     22  H   UNL     1      -6.861  11.016  22.226  0.00  0.00    +0.000 HD
ENDBRANCH  19  20
ENDBRANCH  18  19
ENDBRANCH  17  18
ENDBRANCH  15  17
ENDBRANCH  13  15
ENDBRANCH   3  13
BRANCH  10  23
ATOM     23  O   UNL     1       1.320  10.437  18.451  0.00  0.00    +0.000 OA
BRANCH  23  24
ATOM     24  C   UNL     1       1.609   9.136  18.823  0.00  0.00    +0.000 A 
ATOM     25  C   UNL     1       1.183   8.535  20.011  0.00  0.00    +0.000 A 
ATOM     26  C   UNL     1       1.780   7.347  20.430  0.00  0.00    +0.000 A 
ATOM     27  C   UNL     1       2.715   6.713  19.615  0.00  0.00    +0.000 A 
ATOM     28  F   UNL     1       3.318   5.611  20.082  0.00  0.00    +0.000 F 
ATOM     29  C   UNL     1       3.034   7.217  18.359  0.00  0.00    +0.000 A 
ATOM     30  C   UNL     1       2.476   8.447  17.969  0.00  0.00    +0.000 A 
BRANCH  29  31
ATOM     31  C   UNL     1       3.966   6.483  17.441  0.00  0.00    +0.000 C 
ATOM     32  F   UNL     1       3.554   5.243  17.068  0.00  0.00    +0.000 F 
ATOM     33  F   UNL     1       4.173   7.168  16.279  0.00  0.00    +0.000 F 
ATOM     34  F   UNL     1       5.201   6.314  17.990  0.00  0.00    +0.000 F 
ENDBRANCH  29  31
ENDBRANCH  23  24
ENDBRANCH  10  23
TORSDOF 10
ENDMDL
MODEL 9
REMARK VINA RESULT:      -7.2      5.545      8.418
REMARK  Name = 
REMARK  12 active torsions:
REMARK  status: ('A' for Active; 'I' for Inactive)
REMARK    1  A    between atoms: C_1  and  O_2
REMARK    2  A    between atoms: O_2  and  C_3
REMARK    3  A    between atoms: C_5  and  N_6
REMARK    4  A    between atoms: N_6  and  C_7
REMARK    5  A    between atoms: C_7  and  C_8
REMARK    6  A    between atoms: C_7  and  C_9
REMARK    7  A    between atoms: C_9  and  C_10
REMARK    8  A    between atoms: C_10  and  C_11
REMARK    9  A    between atoms: C_11  and  N_12
REMARK   10  A    between atoms: C_19  and  O_20
REMARK   11  A    between atoms: O_20  and  C_21
REMARK   12  A    between atoms: C_26  and  C_27
REMARK                            x       y       z     vdW  Elec       q    Type
REMARK                         _______ _______ _______ _____ _____    ______ ____
ROOT
ATOM      1  C   UNL     1       2.010   8.292  18.168  0.00  0.00    +0.000 A 
ATOM      2  C   UNL     1       1.238   9.368  17.733  0.00  0.00    +0.000 A 
ATOM      3  C   UNL     1       0.387  10.062  18.606  0.00  0.00    +0.000 A 
ATOM      4  C   UNL     1       0.400   9.755  19.988  0.00  0.00    +0.000 A 
ATOM      5  N   UNL     1      -0.423  10.432  20.825  0.00  0.00    +0.000 NA
ATOM      6  C   UNL     1      -0.365  10.177  22.146  0.00  0.00    +0.000 A 
ATOM      7  C   UNL     1       0.538   9.311  22.717  0.00  0.00    +0.000 A 
ATOM      8  C   UNL     1       1.395   8.639  21.866  0.00  0.00    +0.000 A 
ATOM      9  C   UNL     1       1.295   8.761  20.457  0.00  0.00    +0.000 A 
ATOM     10  C   UNL     1       2.010   7.951  19.526  0.00  0.00    +0.000 A 
ENDROOT
BRANCH   1  12
ATOM     11  C   UNL     1       4.148   7.703  17.313  0.00  0.00    +0.000 C 
ATOM     12  O   UNL     1       2.734   7.699  17.166  0.00  0.00    +0.000 OA
ENDBRANCH   1  12
BRANCH   3  13
ATOM     13  N   UNL     1      -0.544  11.010  18.115  0.00  0.00    +0.000 N 
ATOM     14  H   UNL     1      -0.479  11.034  17.092  0.00  0.00    +0.000 HD
BRANCH  13  15
ATOM     15  C   UNL     1      -1.903  11.059  18.659  0.00  0.00    +0.000 C 
ATOM     16  C   UNL     1      -2.126  12.428  19.308  0.00  0.00    +0.000 C 
BRANCH  15  17
ATOM     17  C   UNL     1      -2.939  10.868  17.531  0.00  0.00    +0.000 C 
BRANCH  17  18
ATOM     18  C   UNL     1      -2.487   9.956  16.379  0.00  0.00    +0.000 C 
BRANCH  18  19
ATOM     19  C   UNL     1      -3.387   9.962  15.141  0.00  0.00    +0.000 C 
BRANCH  19  20
ATOM     20  N   UNL     1      -2.621   9.975  13.904  0.00  0.00    +0.000 NA
ATOM     21  H   UNL     1      -1.709   9.537  14.046  0.00  0.00    +0.000 HD
ATOM     22  H   UNL     1      -2.423  10.942  13.643  0.00  0.00    +0.000 HD
ENDBRANCH  19  20
ENDBRANCH  18  19
ENDBRANCH  17  18
ENDBRANCH  15  17
ENDBRANCH  13  15
ENDBRANCH   3  13
BRANCH  10  23
ATOM     23  O   UNL     1       2.754   6.845  19.906  0.00  0.00    +0.000 OA
BRANCH  23  24
ATOM     24  C   UNL     1       2.217   5.577  19.783  0.00  0.00    +0.000 A 
ATOM     25  C   UNL     1       1.193   5.065  20.587  0.00  0.00    +0.000 A 
ATOM     26  C   UNL     1       0.945   3.693  20.589  0.00  0.00    +0.000 A 
ATOM     27  C   UNL     1       1.640   2.859  19.717  0.00  0.00    +0.000 A 
ATOM     28  F   UNL     1       1.425   1.538  19.797  0.00  0.00    +0.000 F 
ATOM     29  C   UNL     1       2.550   3.373  18.801  0.00  0.00    +0.000 A 
ATOM     30  C   UNL     1       2.842   4.748  18.846  0.00  0.00    +0.000 A 
BRANCH  29  31
ATOM     31  C   UNL     1       3.226   2.489  17.795  0.00  0.00    +0.000 C 
ATOM     32  F   UNL     1       4.085   3.122  16.954  0.00  0.00    +0.000 F 
ATOM     33  F   UNL     1       3.955   1.505  18.395  0.00  0.00    +0.000 F 
ATOM     34  F   UNL     1       2.331   1.844  16.994  0.00  0.00    +0.000 F 
ENDBRANCH  29  31
ENDBRANCH  23  24
ENDBRANCH  10  23
TORSDOF 10
ENDMDL
