MODEL 1
REMARK VINA RESULT:      -7.4      0.000      0.000
REMARK  Name = 
REMARK  4 active torsions:
REMARK  status: ('A' for Active; 'I' for Inactive)
REMARK    1  A    between atoms: C_2  and  C_4
REMARK    2  A    between atoms: C_10  and  C_11
REMARK    3  A    between atoms: C_14  and  C_15
REMARK    4  A    between atoms: C_15  and  O_16
REMARK                            x       y       z     vdW  Elec       q    Type
REMARK                         _______ _______ _______ _____ _____    ______ ____
ROOT
ATOM      1  C   UNL     1       4.330   4.014  17.371  0.00  0.00    +0.000 A 
ATOM      2  C   UNL     1       5.231   3.874  16.299  0.00  0.00    +0.000 A 
ATOM      3  C   UNL     1       5.663   4.985  15.569  0.00  0.00    +0.000 A 
ATOM      4  C   UNL     1       5.215   6.273  15.880  0.00  0.00    +0.000 A 
ATOM      5  C   UNL     1       4.323   6.387  16.950  0.00  0.00    +0.000 A 
ATOM      6  N   UNL     1       3.696   7.470  17.508  0.00  0.00    +0.000 N 
ATOM      7  C   UNL     1       2.891   7.045  18.541  0.00  0.00    +0.000 A 
ATOM      8  N   UNL     1       2.999   5.734  18.678  0.00  0.00    +0.000 NA
ATOM      9  C   UNL     1       3.874   5.305  17.696  0.00  0.00    +0.000 A 
ATOM     10  H   UNL     1       3.806   8.424  17.204  0.00  0.00    +0.000 HD
ENDROOT
BRANCH   7  11
ATOM     11  C   UNL     1       2.048   7.929  19.354  0.00  0.00    +0.000 A 
ATOM     12  C   UNL     1       1.516   9.124  18.850  0.00  0.00    +0.000 A 
ATOM     13  C   UNL     1       0.719   9.948  19.651  0.00  0.00    +0.000 A 
ATOM     14  C   UNL     1       0.423   9.595  20.973  0.00  0.00    +0.000 A 
ATOM     15  C   UNL     1       0.959   8.407  21.484  0.00  0.00    +0.000 A 
ATOM     16  C   UNL     1       1.754   7.582  20.680  0.00  0.00    +0.000 A 
BRANCH  14  17
ATOM     17  C   UNL     1      -0.386  10.533  21.832  0.00  0.00    +0.000 C 
BRANCH  17  18
ATOM     18  O   UNL     1      -0.093  10.378  23.213  0.00  0.00    +0.000 OA
ATOM     19  H   UNL     1      -0.523   9.555  23.502  0.00  0.00    +0.000 HD
ENDBRANCH  17  18
ENDBRANCH  14  17
ENDBRANCH   7  11
BRANCH   1  21
ATOM     20  N   UNL     1       4.415   2.587  19.338  0.00  0.00    +0.000 N 
ATOM     21  C   UNL     1       3.872   2.812  18.105  0.00  0.00    +0.000 C 
ATOM     22  O   UNL     1       3.031   2.055  17.636  0.00  0.00    +0.000 OA
ATOM     23  H   UNL     1       4.110   1.788  19.873  0.00  0.00    +0.000 HD
ATOM     24  H   UNL     1       5.112   3.219  19.725  0.00  0.00    +0.000 HD
ENDBRANCH   1  21
TORSDOF 4
ENDMDL
MODEL 2
REMARK VINA RESULT:      -7.3      0.168      1.088
REMARK  Name = 
REMARK  4 active torsions:
REMARK  status: ('A' for Active; 'I' for Inactive)
REMARK    1  A    between atoms: C_2  and  C_4
REMARK    2  A    between atoms: C_10  and  C_11
REMARK    3  A    between atoms: C_14  and  C_15
REMARK    4  A    between atoms: C_15  and  O_16
REMARK                            x       y       z     vdW  Elec       q    Type
REMARK                         _______ _______ _______ _____ _____    ______ ____
ROOT
ATOM      1  C   UNL     1       4.367   4.000  17.451  0.00  0.00    +0.000 A 
ATOM      2  C   UNL     1       5.258   3.839  16.373  0.00  0.00    +0.000 A 
ATOM      3  C   UNL     1       5.669   4.934  15.608  0.00  0.00    +0.000 A 
ATOM      4  C   UNL     1       5.210   6.226  15.888  0.00  0.00    +0.000 A 
ATOM      5  C   UNL     1       4.329   6.360  16.964  0.00  0.00    +0.000 A 
ATOM      6  N   UNL     1       3.695   7.451  17.498  0.00  0.00    +0.000 N 
ATOM      7  C   UNL     1       2.906   7.047  18.551  0.00  0.00    +0.000 A 
ATOM      8  N   UNL     1       3.031   5.741  18.724  0.00  0.00    +0.000 NA
ATOM      9  C   UNL     1       3.900   5.295  17.745  0.00  0.00    +0.000 A 
ATOM     10  H   UNL     1       3.792   8.397  17.166  0.00  0.00    +0.000 HD
ENDROOT
BRANCH   7  11
ATOM     11  C   UNL     1       2.062   7.944  19.348  0.00  0.00    +0.000 A 
ATOM     12  C   UNL     1       1.749   7.679  20.688  0.00  0.00    +0.000 A 
ATOM     13  C   UNL     1       0.938   8.552  21.421  0.00  0.00    +0.000 A 
ATOM     14  C   UNL     1       0.427   9.718  20.838  0.00  0.00    +0.000 A 
ATOM     15  C   UNL     1       0.730   9.982  19.497  0.00  0.00    +0.000 A 
ATOM     16  C   UNL     1       1.545   9.110  18.766  0.00  0.00    +0.000 A 
BRANCH  14  17
ATOM     17  C   UNL     1      -0.495  10.606  21.633  0.00  0.00    +0.000 C 
BRANCH  17  18
ATOM     18  O   UNL     1      -0.165  10.618  23.015  0.00  0.00    +0.000 OA
ATOM     19  H   UNL     1      -0.913  10.215  23.487  0.00  0.00    +0.000 HD
ENDBRANCH  17  18
ENDBRANCH  14  17
ENDBRANCH   7  11
BRANCH   1  21
ATOM     20  N   UNL     1       4.714   2.428  19.273  0.00  0.00    +0.000 N 
ATOM     21  C   UNL     1       3.930   2.815  18.224  0.00  0.00    +0.000 C 
ATOM     22  O   UNL     1       2.902   2.210  17.945  0.00  0.00    +0.000 OA
ATOM     23  H   UNL     1       4.435   1.637  19.832  0.00  0.00    +0.000 HD
ATOM     24  H   UNL     1       5.567   2.934  19.503  0.00  0.00    +0.000 HD
ENDBRANCH   1  21
TORSDOF 4
ENDMDL
MODEL 3
REMARK VINA RESULT:      -7.2      2.403      3.490
REMARK  Name = 
REMARK  4 active torsions:
REMARK  status: ('A' for Active; 'I' for Inactive)
REMARK    1  A    between atoms: C_2  and  C_4
REMARK    2  A    between atoms: C_10  and  C_11
REMARK    3  A    between atoms: C_14  and  C_15
REMARK    4  A    between atoms: C_15  and  O_16
REMARK                            x       y       z     vdW  Elec       q    Type
REMARK                         _______ _______ _______ _____ _____    ______ ____
ROOT
ATOM      1  C   UNL     1       3.949   3.695  19.382  0.00  0.00    +0.000 A 
ATOM      2  C   UNL     1       3.827   2.551  20.194  0.00  0.00    +0.000 A 
ATOM      3  C   UNL     1       2.949   2.528  21.281  0.00  0.00    +0.000 A 
ATOM      4  C   UNL     1       2.161   3.639  21.598  0.00  0.00    +0.000 A 
ATOM      5  C   UNL     1       2.297   4.761  20.776  0.00  0.00    +0.000 A 
ATOM      6  N   UNL     1       1.699   5.994  20.802  0.00  0.00    +0.000 N 
ATOM      7  C   UNL     1       2.198   6.762  19.774  0.00  0.00    +0.000 A 
ATOM      8  N   UNL     1       3.076   6.058  19.079  0.00  0.00    +0.000 NA
ATOM      9  C   UNL     1       3.159   4.819  19.689  0.00  0.00    +0.000 A 
ATOM     10  H   UNL     1       1.007   6.288  21.472  0.00  0.00    +0.000 HD
ENDROOT
BRANCH   7  11
ATOM     11  C   UNL     1       1.803   8.149  19.508  0.00  0.00    +0.000 A 
ATOM     12  C   UNL     1       2.058   8.776  18.280  0.00  0.00    +0.000 A 
ATOM     13  C   UNL     1       1.673  10.101  18.058  0.00  0.00    +0.000 A 
ATOM     14  C   UNL     1       1.013  10.834  19.052  0.00  0.00    +0.000 A 
ATOM     15  C   UNL     1       0.764  10.217  20.283  0.00  0.00    +0.000 A 
ATOM     16  C   UNL     1       1.147   8.888  20.503  0.00  0.00    +0.000 A 
BRANCH  14  17
ATOM     17  C   UNL     1       0.666  12.280  18.806  0.00  0.00    +0.000 C 
BRANCH  17  18
ATOM     18  O   UNL     1       1.534  12.883  17.856  0.00  0.00    +0.000 OA
ATOM     19  H   UNL     1       2.002  13.600  18.317  0.00  0.00    +0.000 HD
ENDBRANCH  17  18
ENDBRANCH  14  17
ENDBRANCH   7  11
BRANCH   1  21
ATOM     20  N   UNL     1       6.210   4.001  18.540  0.00  0.00    +0.000 N 
ATOM     21  C   UNL     1       4.909   3.695  18.255  0.00  0.00    +0.000 C 
ATOM     22  O   UNL     1       4.560   3.420  17.114  0.00  0.00    +0.000 OA
ATOM     23  H   UNL     1       6.893   3.991  17.799  0.00  0.00    +0.000 HD
ATOM     24  H   UNL     1       6.497   4.227  19.490  0.00  0.00    +0.000 HD
ENDBRANCH   1  21
TORSDOF 4
ENDMDL
MODEL 4
REMARK VINA RESULT:      -7.2      3.225      6.981
REMARK  Name = 
REMARK  4 active torsions:
REMARK  status: ('A' for Active; 'I' for Inactive)
REMARK    1  A    between atoms: C_2  and  C_4
REMARK    2  A    between atoms: C_10  and  C_11
REMARK    3  A    between atoms: C_14  and  C_15
REMARK    4  A    between atoms: C_15  and  O_16
REMARK                            x       y       z     vdW  Elec       q    Type
REMARK                         _______ _______ _______ _____ _____    ______ ____
ROOT
ATOM      1  C   UNL     1       1.652   3.698  19.304  0.00  0.00    +0.000 A 
ATOM      2  C   UNL     1       1.064   4.356  20.402  0.00  0.00    +0.000 A 
ATOM      3  C   UNL     1       1.469   5.641  20.774  0.00  0.00    +0.000 A 
ATOM      4  C   UNL     1       2.471   6.317  20.068  0.00  0.00    +0.000 A 
ATOM      5  C   UNL     1       3.037   5.644  18.982  0.00  0.00    +0.000 A 
ATOM      6  N   UNL     1       4.022   5.999  18.098  0.00  0.00    +0.000 N 
ATOM      7  C   UNL     1       4.231   4.964  17.214  0.00  0.00    +0.000 A 
ATOM      8  N   UNL     1       3.401   3.972  17.486  0.00  0.00    +0.000 NA
ATOM      9  C   UNL     1       2.658   4.369  18.584  0.00  0.00    +0.000 A 
ATOM     10  H   UNL     1       4.515   6.877  18.101  0.00  0.00    +0.000 HD
ENDROOT
BRANCH   7  11
ATOM     11  C   UNL     1       5.230   4.980  16.139  0.00  0.00    +0.000 A 
ATOM     12  C   UNL     1       6.440   5.679  16.255  0.00  0.00    +0.000 A 
ATOM     13  C   UNL     1       7.371   5.679  15.211  0.00  0.00    +0.000 A 
ATOM     14  C   UNL     1       7.123   4.972  14.028  0.00  0.00    +0.000 A 
ATOM     15  C   UNL     1       5.913   4.280  13.904  0.00  0.00    +0.000 A 
ATOM     16  C   UNL     1       4.984   4.278  14.951  0.00  0.00    +0.000 A 
BRANCH  14  17
ATOM     17  C   UNL     1       8.116   5.042  12.897  0.00  0.00    +0.000 C 
BRANCH  17  18
ATOM     18  O   UNL     1       9.073   6.074  13.090  0.00  0.00    +0.000 OA
ATOM     19  H   UNL     1       8.842   6.791  12.475  0.00  0.00    +0.000 HD
ENDBRANCH  17  18
ENDBRANCH  14  17
ENDBRANCH   7  11
BRANCH   1  21
ATOM     20  N   UNL     1       2.195   1.406  18.701  0.00  0.00    +0.000 N 
ATOM     21  C   UNL     1       1.218   2.327  18.954  0.00  0.00    +0.000 C 
ATOM     22  O   UNL     1       0.033   2.021  18.904  0.00  0.00    +0.000 OA
ATOM     23  H   UNL     1       1.934   0.458  18.478  0.00  0.00    +0.000 HD
ATOM     24  H   UNL     1       3.179   1.664  18.744  0.00  0.00    +0.000 HD
ENDBRANCH   1  21
TORSDOF 4
ENDMDL
MODEL 5
REMARK VINA RESULT:      -7.2      2.330      3.050
REMARK  Name = 
REMARK  4 active torsions:
REMARK  status: ('A' for Active; 'I' for Inactive)
REMARK    1  A    between atoms: C_2  and  C_4
REMARK    2  A    between atoms: C_10  and  C_11
REMARK    3  A    between atoms: C_14  and  C_15
REMARK    4  A    between atoms: C_15  and  O_16
REMARK                            x       y       z     vdW  Elec       q    Type
REMARK                         _______ _______ _______ _____ _____    ______ ____
ROOT
ATOM      1  C   UNL     1       2.842   3.174  19.783  0.00  0.00    +0.000 A 
ATOM      2  C   UNL     1       3.498   2.174  19.040  0.00  0.00    +0.000 A 
ATOM      3  C   UNL     1       4.090   2.462  17.807  0.00  0.00    +0.000 A 
ATOM      4  C   UNL     1       4.053   3.754  17.271  0.00  0.00    +0.000 A 
ATOM      5  C   UNL     1       3.399   4.730  18.027  0.00  0.00    +0.000 A 
ATOM      6  N   UNL     1       3.173   6.063  17.805  0.00  0.00    +0.000 N 
ATOM      7  C   UNL     1       2.454   6.583  18.857  0.00  0.00    +0.000 A 
ATOM      8  N   UNL     1       2.232   5.637  19.755  0.00  0.00    +0.000 NA
ATOM      9  C   UNL     1       2.800   4.479  19.255  0.00  0.00    +0.000 A 
ATOM     10  H   UNL     1       3.484   6.576  16.996  0.00  0.00    +0.000 HD
ENDROOT
BRANCH   7  11
ATOM     11  C   UNL     1       2.011   7.979  18.950  0.00  0.00    +0.000 A 
ATOM     12  C   UNL     1       1.375   8.486  20.092  0.00  0.00    +0.000 A 
ATOM     13  C   UNL     1       0.960   9.820  20.149  0.00  0.00    +0.000 A 
ATOM     14  C   UNL     1       1.178  10.687  19.071  0.00  0.00    +0.000 A 
ATOM     15  C   UNL     1       1.804  10.183  17.924  0.00  0.00    +0.000 A 
ATOM     16  C   UNL     1       2.222   8.848  17.870  0.00  0.00    +0.000 A 
BRANCH  14  17
ATOM     17  C   UNL     1       0.664  12.102  19.136  0.00  0.00    +0.000 C 
BRANCH  17  18
ATOM     18  O   UNL     1       1.062  12.866  18.007  0.00  0.00    +0.000 OA
ATOM     19  H   UNL     1       0.359  12.772  17.341  0.00  0.00    +0.000 HD
ENDBRANCH  17  18
ENDBRANCH  14  17
ENDBRANCH   7  11
BRANCH   1  21
ATOM     20  N   UNL     1       0.843   2.945  21.147  0.00  0.00    +0.000 N 
ATOM     21  C   UNL     1       2.202   2.829  21.072  0.00  0.00    +0.000 C 
ATOM     22  O   UNL     1       2.858   2.442  22.031  0.00  0.00    +0.000 OA
ATOM     23  H   UNL     1       0.373   2.699  22.005  0.00  0.00    +0.000 HD
ATOM     24  H   UNL     1       0.301   3.265  20.347  0.00  0.00    +0.000 HD
ENDBRANCH   1  21
TORSDOF 4
ENDMDL
MODEL 6
REMARK VINA RESULT:      -7.2      2.358      2.926
REMARK  Name = 
REMARK  4 active torsions:
REMARK  status: ('A' for Active; 'I' for Inactive)
REMARK    1  A    between atoms: C_2  and  C_4
REMARK    2  A    between atoms: C_10  and  C_11
REMARK    3  A    between atoms: C_14  and  C_15
REMARK    4  A    between atoms: C_15  and  O_16
REMARK                            x       y       z     vdW  Elec       q    Type
REMARK                         _______ _______ _______ _____ _____    ______ ____
ROOT
ATOM      1  C   UNL     1       2.825   3.119  19.791  0.00  0.00    +0.000 A 
ATOM      2  C   UNL     1       3.449   2.094  19.054  0.00  0.00    +0.000 A 
ATOM      3  C   UNL     1       4.011   2.348  17.799  0.00  0.00    +0.000 A 
ATOM      4  C   UNL     1       3.975   3.628  17.236  0.00  0.00    +0.000 A 
ATOM      5  C   UNL     1       3.353   4.628  17.988  0.00  0.00    +0.000 A 
ATOM      6  N   UNL     1       3.139   5.959  17.742  0.00  0.00    +0.000 N 
ATOM      7  C   UNL     1       2.455   6.512  18.801  0.00  0.00    +0.000 A 
ATOM      8  N   UNL     1       2.245   5.588  19.725  0.00  0.00    +0.000 NA
ATOM      9  C   UNL     1       2.785   4.412  19.236  0.00  0.00    +0.000 A 
ATOM     10  H   UNL     1       3.434   6.450  16.913  0.00  0.00    +0.000 HD
ENDROOT
BRANCH   7  11
ATOM     11  C   UNL     1       2.031   7.914  18.875  0.00  0.00    +0.000 A 
ATOM     12  C   UNL     1       2.205   8.804  17.805  0.00  0.00    +0.000 A 
ATOM     13  C   UNL     1       1.794  10.136  17.907  0.00  0.00    +0.000 A 
ATOM     14  C   UNL     1       1.190  10.615  19.076  0.00  0.00    +0.000 A 
ATOM     15  C   UNL     1       1.023   9.734  20.151  0.00  0.00    +0.000 A 
ATOM     16  C   UNL     1       1.431   8.398  20.046  0.00  0.00    +0.000 A 
BRANCH  14  17
ATOM     17  C   UNL     1       0.816  12.071  19.179  0.00  0.00    +0.000 C 
BRANCH  17  18
ATOM     18  O   UNL     1       1.245  12.814  18.047  0.00  0.00    +0.000 OA
ATOM     19  H   UNL     1       1.063  12.266  17.265  0.00  0.00    +0.000 HD
ENDBRANCH  17  18
ENDBRANCH  14  17
ENDBRANCH   7  11
BRANCH   1  21
ATOM     20  N   UNL     1       0.862   2.953  21.216  0.00  0.00    +0.000 N 
ATOM     21  C   UNL     1       2.216   2.810  21.105  0.00  0.00    +0.000 C 
ATOM     22  O   UNL     1       2.891   2.428  22.052  0.00  0.00    +0.000 OA
ATOM     23  H   UNL     1       0.412   2.732  22.091  0.00  0.00    +0.000 HD
ATOM     24  H   UNL     1       0.303   3.269  20.426  0.00  0.00    +0.000 HD
ENDBRANCH   1  21
TORSDOF 4
ENDMDL
MODEL 7
REMARK VINA RESULT:      -7.2      2.268      7.495
REMARK  Name = 
REMARK  4 active torsions:
REMARK  status: ('A' for Active; 'I' for Inactive)
REMARK    1  A    between atoms: C_2  and  C_4
REMARK    2  A    between atoms: C_10  and  C_11
REMARK    3  A    between atoms: C_14  and  C_15
REMARK    4  A    between atoms: C_15  and  O_16
REMARK                            x       y       z     vdW  Elec       q    Type
REMARK                         _______ _______ _______ _____ _____    ______ ____
ROOT
ATOM      1  C   UNL     1       0.277  10.001  19.668  0.00  0.00    +0.000 A 
ATOM      2  C   UNL     1      -0.256  10.264  20.944  0.00  0.00    +0.000 A 
ATOM      3  C   UNL     1       0.092   9.480  22.048  0.00  0.00    +0.000 A 
ATOM      4  C   UNL     1       0.983   8.408  21.922  0.00  0.00    +0.000 A 
ATOM      5  C   UNL     1       1.500   8.168  20.646  0.00  0.00    +0.000 A 
ATOM      6  N   UNL     1       2.371   7.221  20.175  0.00  0.00    +0.000 N 
ATOM      7  C   UNL     1       2.548   7.401  18.821  0.00  0.00    +0.000 A 
ATOM      8  N   UNL     1       1.841   8.443  18.416  0.00  0.00    +0.000 NA
ATOM      9  C   UNL     1       1.177   8.927  19.529  0.00  0.00    +0.000 A 
ATOM     10  H   UNL     1       2.807   6.505  20.733  0.00  0.00    +0.000 HD
ENDROOT
BRANCH   7  11
ATOM     11  C   UNL     1       3.396   6.555  17.975  0.00  0.00    +0.000 A 
ATOM     12  C   UNL     1       3.223   5.166  17.897  0.00  0.00    +0.000 A 
ATOM     13  C   UNL     1       4.050   4.385  17.084  0.00  0.00    +0.000 A 
ATOM     14  C   UNL     1       5.066   4.971  16.319  0.00  0.00    +0.000 A 
ATOM     15  C   UNL     1       5.250   6.356  16.401  0.00  0.00    +0.000 A 
ATOM     16  C   UNL     1       4.418   7.137  17.212  0.00  0.00    +0.000 A 
BRANCH  14  17
ATOM     17  C   UNL     1       5.983   4.097  15.502  0.00  0.00    +0.000 C 
BRANCH  17  18
ATOM     18  O   UNL     1       7.287   4.649  15.391  0.00  0.00    +0.000 OA
ATOM     19  H   UNL     1       7.845   3.972  14.971  0.00  0.00    +0.000 HD
ENDBRANCH  17  18
ENDBRANCH  14  17
ENDBRANCH   7  11
BRANCH   1  21
ATOM     20  N   UNL     1      -0.715  10.196  17.457  0.00  0.00    +0.000 N 
ATOM     21  C   UNL     1      -0.134  10.834  18.515  0.00  0.00    +0.000 C 
ATOM     22  O   UNL     1       0.027  12.048  18.512  0.00  0.00    +0.000 OA
ATOM     23  H   UNL     1      -1.024  10.736  16.664  0.00  0.00    +0.000 HD
ATOM     24  H   UNL     1      -0.848   9.187  17.465  0.00  0.00    +0.000 HD
ENDBRANCH   1  21
TORSDOF 4
ENDMDL
MODEL 8
REMARK VINA RESULT:      -7.2      2.486      3.656
REMARK  Name = 
REMARK  4 active torsions:
REMARK  status: ('A' for Active; 'I' for Inactive)
REMARK    1  A    between atoms: C_2  and  C_4
REMARK    2  A    between atoms: C_10  and  C_11
REMARK    3  A    between atoms: C_14  and  C_15
REMARK    4  A    between atoms: C_15  and  O_16
REMARK                            x       y       z     vdW  Elec       q    Type
REMARK                         _______ _______ _______ _____ _____    ______ ____
ROOT
ATOM      1  C   UNL     1       4.115   3.756  19.535  0.00  0.00    +0.000 A 
ATOM      2  C   UNL     1       3.946   2.578  20.288  0.00  0.00    +0.000 A 
ATOM      3  C   UNL     1       2.957   2.485  21.270  0.00  0.00    +0.000 A 
ATOM      4  C   UNL     1       2.099   3.558  21.538  0.00  0.00    +0.000 A 
ATOM      5  C   UNL     1       2.284   4.715  20.777  0.00  0.00    +0.000 A 
ATOM      6  N   UNL     1       1.642   5.926  20.780  0.00  0.00    +0.000 N 
ATOM      7  C   UNL     1       2.222   6.749  19.841  0.00  0.00    +0.000 A 
ATOM      8  N   UNL     1       3.195   6.101  19.222  0.00  0.00    +0.000 NA
ATOM      9  C   UNL     1       3.256   4.842  19.793  0.00  0.00    +0.000 A 
ATOM     10  H   UNL     1       0.871   6.171  21.380  0.00  0.00    +0.000 HD
ENDROOT
BRANCH   7  11
ATOM     11  C   UNL     1       1.809   8.132  19.582  0.00  0.00    +0.000 A 
ATOM     12  C   UNL     1       1.139   8.903  20.542  0.00  0.00    +0.000 A 
ATOM     13  C   UNL     1       0.754  10.219  20.264  0.00  0.00    +0.000 A 
ATOM     14  C   UNL     1       1.038  10.803  19.024  0.00  0.00    +0.000 A 
ATOM     15  C   UNL     1       1.698  10.035  18.059  0.00  0.00    +0.000 A 
ATOM     16  C   UNL     1       2.086   8.719  18.339  0.00  0.00    +0.000 A 
BRANCH  14  17
ATOM     17  C   UNL     1       0.555  12.201  18.731  0.00  0.00    +0.000 C 
BRANCH  17  18
ATOM     18  O   UNL     1      -0.580  12.205  17.877  0.00  0.00    +0.000 OA
ATOM     19  H   UNL     1      -1.217  12.833  18.257  0.00  0.00    +0.000 HD
ENDBRANCH  17  18
ENDBRANCH  14  17
ENDBRANCH   7  11
BRANCH   1  21
ATOM     20  N   UNL     1       4.900   3.382  17.265  0.00  0.00    +0.000 N 
ATOM     21  C   UNL     1       5.191   3.831  18.521  0.00  0.00    +0.000 C 
ATOM     22  O   UNL     1       6.295   4.288  18.790  0.00  0.00    +0.000 OA
ATOM     23  H   UNL     1       5.604   3.438  16.546  0.00  0.00    +0.000 HD
ATOM     24  H   UNL     1       3.980   3.005  17.045  0.00  0.00    +0.000 HD
ENDBRANCH   1  21
TORSDOF 4
ENDMDL
MODEL 9
REMARK VINA RESULT:      -7.1      2.846      7.381
REMARK  Name = 
REMARK  4 active torsions:
REMARK  status: ('A' for Active; 'I' for Inactive)
REMARK    1  A    between atoms: C_2  and  C_4
REMARK    2  A    between atoms: C_10  and  C_11
REMARK    3  A    between atoms: C_14  and  C_15
REMARK    4  A    between atoms: C_15  and  O_16
REMARK                            x       y       z     vdW  Elec       q    Type
REMARK                         _______ _______ _______ _____ _____    ______ ____
ROOT
ATOM      1  C   UNL     1       2.054   5.113  19.992  0.00  0.00    +0.000 A 
ATOM      2  C   UNL     1       1.338   4.226  20.817  0.00  0.00    +0.000 A 
ATOM      3  C   UNL     1       1.466   2.842  20.672  0.00  0.00    +0.000 A 
ATOM      4  C   UNL     1       2.312   2.292  19.702  0.00  0.00    +0.000 A 
ATOM      5  C   UNL     1       3.015   3.192  18.897  0.00  0.00    +0.000 A 
ATOM      6  N   UNL     1       3.902   3.003  17.870  0.00  0.00    +0.000 N 
ATOM      7  C   UNL     1       4.301   4.228  17.384  0.00  0.00    +0.000 A 
ATOM      8  N   UNL     1       3.720   5.193  18.079  0.00  0.00    +0.000 NA
ATOM      9  C   UNL     1       2.911   4.572  19.015  0.00  0.00    +0.000 A 
ATOM     10  H   UNL     1       4.207   2.108  17.525  0.00  0.00    +0.000 HD
ENDROOT
BRANCH   7  11
ATOM     11  C   UNL     1       5.231   4.414  16.265  0.00  0.00    +0.000 A 
ATOM     12  C   UNL     1       6.521   4.931  16.444  0.00  0.00    +0.000 A 
ATOM     13  C   UNL     1       7.384   5.100  15.357  0.00  0.00    +0.000 A 
ATOM     14  C   UNL     1       6.984   4.748  14.062  0.00  0.00    +0.000 A 
ATOM     15  C   UNL     1       5.693   4.241  13.875  0.00  0.00    +0.000 A 
ATOM     16  C   UNL     1       4.832   4.068  14.966  0.00  0.00    +0.000 A 
BRANCH  14  17
ATOM     17  C   UNL     1       7.912   5.001  12.901  0.00  0.00    +0.000 C 
BRANCH  17  18
ATOM     18  O   UNL     1       8.875   6.003  13.196  0.00  0.00    +0.000 OA
ATOM     19  H   UNL     1       8.551   6.830  12.799  0.00  0.00    +0.000 HD
ENDBRANCH  17  18
ENDBRANCH  14  17
ENDBRANCH   7  11
BRANCH   1  21
ATOM     20  N   UNL     1       2.342   7.378  19.155  0.00  0.00    +0.000 N 
ATOM     21  C   UNL     1       1.874   6.574  20.155  0.00  0.00    +0.000 C 
ATOM     22  O   UNL     1       1.317   7.046  21.138  0.00  0.00    +0.000 OA
ATOM     23  H   UNL     1       2.217   8.376  19.225  0.00  0.00    +0.000 HD
ATOM     24  H   UNL     1       2.803   6.982  18.338  0.00  0.00    +0.000 HD
ENDBRANCH   1  21
TORSDOF 4
ENDMDL
