MODEL 1
REMARK VINA RESULT:      -6.8      0.000      0.000
REMARK  Name = 
REMARK  1 active torsions:
REMARK  status: ('A' for Active; 'I' for Inactive)
REMARK    1  A    between atoms: C_4  and  C_5
REMARK                            x       y       z     vdW  Elec       q    Type
REMARK                         _______ _______ _______ _____ _____    ______ ____
ROOT
ATOM      1  O   UNL     1       5.281   3.734  19.175  0.00  0.00    +0.000 OA
ATOM      2  C   UNL     1       5.643   4.584  18.370  0.00  0.00    +0.000 C 
ATOM      3  C   UNL     1       4.739   5.532  17.596  0.00  0.00    +0.000 C 
ATOM      4  C   UNL     1       3.418   5.647  17.791  0.00  0.00    +0.000 C 
ATOM      5  N   UNL     1       5.496   6.273  16.649  0.00  0.00    +0.000 N 
ATOM      6  C   UNL     1       6.203   5.386  15.673  0.00  0.00    +0.000 C 
ATOM      7  C   UNL     1       7.148   4.443  16.451  0.00  0.00    +0.000 C 
ATOM      8  C   UNL     1       7.095   4.769  17.954  0.00  0.00    +0.000 C 
ATOM      9  C   UNL     1       7.438   6.255  18.173  0.00  0.00    +0.000 C 
ATOM     10  C   UNL     1       6.523   7.143  17.303  0.00  0.00    +0.000 C 
ENDROOT
BRANCH   4  11
ATOM     11  C   UNL     1       2.633   4.955  18.757  0.00  0.00    +0.000 A 
ATOM     12  C   UNL     1       2.491   5.347  20.118  0.00  0.00    +0.000 A 
ATOM     13  C   UNL     1       1.750   4.436  20.839  0.00  0.00    +0.000 A 
ATOM     14  S   UNL     1       1.169   3.159  19.859  0.00  0.00    +0.000 S 
ATOM     15  C   UNL     1       1.944   3.798  18.471  0.00  0.00    +0.000 A 
ENDBRANCH   4  11
TORSDOF 1
ENDMDL
MODEL 2
REMARK VINA RESULT:      -6.7      0.575      1.089
REMARK  Name = 
REMARK  1 active torsions:
REMARK  status: ('A' for Active; 'I' for Inactive)
REMARK    1  A    between atoms: C_4  and  C_5
REMARK                            x       y       z     vdW  Elec       q    Type
REMARK                         _______ _______ _______ _____ _____    ______ ____
ROOT
ATOM      1  O   UNL     1       5.304   3.677  19.048  0.00  0.00    +0.000 OA
ATOM      2  C   UNL     1       5.727   4.551  18.302  0.00  0.00    +0.000 C 
ATOM      3  C   UNL     1       4.887   5.527  17.492  0.00  0.00    +0.000 C 
ATOM      4  C   UNL     1       3.555   5.640  17.589  0.00  0.00    +0.000 C 
ATOM      5  N   UNL     1       5.714   6.296  16.630  0.00  0.00    +0.000 N 
ATOM      6  C   UNL     1       6.492   5.438  15.683  0.00  0.00    +0.000 C 
ATOM      7  C   UNL     1       7.374   4.467  16.500  0.00  0.00    +0.000 C 
ATOM      8  C   UNL     1       7.208   4.744  18.004  0.00  0.00    +0.000 C 
ATOM      9  C   UNL     1       7.534   6.221  18.296  0.00  0.00    +0.000 C 
ATOM     10  C   UNL     1       6.689   7.140  17.389  0.00  0.00    +0.000 C 
ENDROOT
BRANCH   4  11
ATOM     11  C   UNL     1       2.697   4.920  18.470  0.00  0.00    +0.000 A 
ATOM     12  C   UNL     1       1.990   3.734  18.125  0.00  0.00    +0.000 A 
ATOM     13  C   UNL     1       1.165   3.315  19.146  0.00  0.00    +0.000 A 
ATOM     14  S   UNL     1       1.302   4.306  20.535  0.00  0.00    +0.000 S 
ATOM     15  C   UNL     1       2.438   5.328  19.759  0.00  0.00    +0.000 A 
ENDBRANCH   4  11
TORSDOF 1
ENDMDL
MODEL 3
REMARK VINA RESULT:      -6.7      1.536      2.241
REMARK  Name = 
REMARK  1 active torsions:
REMARK  status: ('A' for Active; 'I' for Inactive)
REMARK    1  A    between atoms: C_4  and  C_5
REMARK                            x       y       z     vdW  Elec       q    Type
REMARK                         _______ _______ _______ _____ _____    ______ ____
ROOT
ATOM      1  O   UNL     1       3.960   5.915  19.118  0.00  0.00    +0.000 OA
ATOM      2  C   UNL     1       4.645   5.582  18.159  0.00  0.00    +0.000 C 
ATOM      3  C   UNL     1       4.781   4.174  17.596  0.00  0.00    +0.000 C 
ATOM      4  C   UNL     1       4.061   3.122  18.008  0.00  0.00    +0.000 C 
ATOM      5  N   UNL     1       5.772   4.142  16.579  0.00  0.00    +0.000 N 
ATOM      6  C   UNL     1       7.110   4.587  17.081  0.00  0.00    +0.000 C 
ATOM      7  C   UNL     1       6.985   6.029  17.622  0.00  0.00    +0.000 C 
ATOM      8  C   UNL     1       5.552   6.548  17.410  0.00  0.00    +0.000 C 
ATOM      9  C   UNL     1       5.181   6.446  15.918  0.00  0.00    +0.000 C 
ATOM     10  C   UNL     1       5.411   5.006  15.412  0.00  0.00    +0.000 C 
ENDROOT
BRANCH   4  11
ATOM     11  C   UNL     1       3.030   3.123  18.992  0.00  0.00    +0.000 A 
ATOM     12  C   UNL     1       1.672   3.466  18.744  0.00  0.00    +0.000 A 
ATOM     13  C   UNL     1       0.925   3.470  19.902  0.00  0.00    +0.000 A 
ATOM     14  S   UNL     1       1.844   2.990  21.264  0.00  0.00    +0.000 S 
ATOM     15  C   UNL     1       3.259   2.815  20.314  0.00  0.00    +0.000 A 
ENDBRANCH   4  11
TORSDOF 1
ENDMDL
MODEL 4
REMARK VINA RESULT:      -6.7      2.586      5.154
REMARK  Name = 
REMARK  1 active torsions:
REMARK  status: ('A' for Active; 'I' for Inactive)
REMARK    1  A    between atoms: C_4  and  C_5
REMARK                            x       y       z     vdW  Elec       q    Type
REMARK                         _______ _______ _______ _____ _____    ______ ____
ROOT
ATOM      1  O   UNL     1       5.049   3.279  19.375  0.00  0.00    +0.000 OA
ATOM      2  C   UNL     1       3.831   3.400  19.417  0.00  0.00    +0.000 C 
ATOM      3  C   UNL     1       2.996   4.378  18.604  0.00  0.00    +0.000 C 
ATOM      4  C   UNL     1       3.481   5.159  17.629  0.00  0.00    +0.000 C 
ATOM      5  N   UNL     1       1.639   4.338  19.024  0.00  0.00    +0.000 N 
ATOM      6  C   UNL     1       1.487   4.673  20.474  0.00  0.00    +0.000 C 
ATOM      7  C   UNL     1       2.306   3.662  21.308  0.00  0.00    +0.000 C 
ATOM      8  C   UNL     1       2.951   2.617  20.381  0.00  0.00    +0.000 C 
ATOM      9  C   UNL     1       1.859   1.933  19.536  0.00  0.00    +0.000 C 
ATOM     10  C   UNL     1       1.017   2.996  18.797  0.00  0.00    +0.000 C 
ENDROOT
BRANCH   4  11
ATOM     11  C   UNL     1       4.823   5.197  17.151  0.00  0.00    +0.000 A 
ATOM     12  C   UNL     1       5.828   6.085  17.624  0.00  0.00    +0.000 A 
ATOM     13  C   UNL     1       7.000   5.959  16.911  0.00  0.00    +0.000 A 
ATOM     14  S   UNL     1       6.907   4.723  15.730  0.00  0.00    +0.000 S 
ATOM     15  C   UNL     1       5.279   4.380  16.141  0.00  0.00    +0.000 A 
ENDBRANCH   4  11
TORSDOF 1
ENDMDL
MODEL 5
REMARK VINA RESULT:      -6.6      2.578      5.256
REMARK  Name = 
REMARK  1 active torsions:
REMARK  status: ('A' for Active; 'I' for Inactive)
REMARK    1  A    between atoms: C_4  and  C_5
REMARK                            x       y       z     vdW  Elec       q    Type
REMARK                         _______ _______ _______ _____ _____    ______ ____
ROOT
ATOM      1  O   UNL     1       4.982   3.370  19.394  0.00  0.00    +0.000 OA
ATOM      2  C   UNL     1       3.758   3.415  19.412  0.00  0.00    +0.000 C 
ATOM      3  C   UNL     1       2.882   4.354  18.596  0.00  0.00    +0.000 C 
ATOM      4  C   UNL     1       3.338   5.181  17.645  0.00  0.00    +0.000 C 
ATOM      5  N   UNL     1       1.521   4.224  18.985  0.00  0.00    +0.000 N 
ATOM      6  C   UNL     1       1.319   4.524  20.437  0.00  0.00    +0.000 C 
ATOM      7  C   UNL     1       2.180   3.550  21.272  0.00  0.00    +0.000 C 
ATOM      8  C   UNL     1       2.908   2.563  20.343  0.00  0.00    +0.000 C 
ATOM      9  C   UNL     1       1.878   1.828  19.463  0.00  0.00    +0.000 C 
ATOM     10  C   UNL     1       0.988   2.850  18.723  0.00  0.00    +0.000 C 
ENDROOT
BRANCH   4  11
ATOM     11  C   UNL     1       4.685   5.309  17.197  0.00  0.00    +0.000 A 
ATOM     12  C   UNL     1       5.292   4.488  16.206  0.00  0.00    +0.000 A 
ATOM     13  C   UNL     1       6.629   4.780  16.047  0.00  0.00    +0.000 A 
ATOM     14  S   UNL     1       7.125   6.086  17.036  0.00  0.00    +0.000 S 
ATOM     15  C   UNL     1       5.559   6.239  17.713  0.00  0.00    +0.000 A 
ENDBRANCH   4  11
TORSDOF 1
ENDMDL
MODEL 6
REMARK VINA RESULT:      -6.5      1.498      2.582
REMARK  Name = 
REMARK  1 active torsions:
REMARK  status: ('A' for Active; 'I' for Inactive)
REMARK    1  A    between atoms: C_4  and  C_5
REMARK                            x       y       z     vdW  Elec       q    Type
REMARK                         _______ _______ _______ _____ _____    ______ ____
ROOT
ATOM      1  O   UNL     1       3.079   5.774  17.636  0.00  0.00    +0.000 OA
ATOM      2  C   UNL     1       4.226   5.511  17.298  0.00  0.00    +0.000 C 
ATOM      3  C   UNL     1       5.052   4.324  17.770  0.00  0.00    +0.000 C 
ATOM      4  C   UNL     1       4.581   3.328  18.533  0.00  0.00    +0.000 C 
ATOM      5  N   UNL     1       6.384   4.423  17.283  0.00  0.00    +0.000 N 
ATOM      6  C   UNL     1       7.056   5.682  17.735  0.00  0.00    +0.000 C 
ATOM      7  C   UNL     1       6.240   6.892  17.229  0.00  0.00    +0.000 C 
ATOM      8  C   UNL     1       5.049   6.407  16.383  0.00  0.00    +0.000 C 
ATOM      9  C   UNL     1       5.561   5.522  15.231  0.00  0.00    +0.000 C 
ATOM     10  C   UNL     1       6.443   4.384  15.789  0.00  0.00    +0.000 C 
ENDROOT
BRANCH   4  11
ATOM     11  C   UNL     1       3.245   3.170  19.003  0.00  0.00    +0.000 A 
ATOM     12  C   UNL     1       2.192   2.561  18.265  0.00  0.00    +0.000 A 
ATOM     13  C   UNL     1       0.989   2.635  18.933  0.00  0.00    +0.000 A 
ATOM     14  S   UNL     1       1.149   3.370  20.470  0.00  0.00    +0.000 S 
ATOM     15  C   UNL     1       2.826   3.630  20.231  0.00  0.00    +0.000 A 
ENDBRANCH   4  11
TORSDOF 1
ENDMDL
MODEL 7
REMARK VINA RESULT:      -6.4      2.746      5.419
REMARK  Name = 
REMARK  1 active torsions:
REMARK  status: ('A' for Active; 'I' for Inactive)
REMARK    1  A    between atoms: C_4  and  C_5
REMARK                            x       y       z     vdW  Elec       q    Type
REMARK                         _______ _______ _______ _____ _____    ______ ____
ROOT
ATOM      1  O   UNL     1       3.024   5.415  17.802  0.00  0.00    +0.000 OA
ATOM      2  C   UNL     1       2.742   4.561  18.634  0.00  0.00    +0.000 C 
ATOM      3  C   UNL     1       3.707   3.570  19.268  0.00  0.00    +0.000 C 
ATOM      4  C   UNL     1       5.035   3.587  19.088  0.00  0.00    +0.000 C 
ATOM      5  N   UNL     1       3.000   2.637  20.073  0.00  0.00    +0.000 N 
ATOM      6  C   UNL     1       1.981   1.873  19.287  0.00  0.00    +0.000 C 
ATOM      7  C   UNL     1       0.977   2.872  18.669  0.00  0.00    +0.000 C 
ATOM      8  C   UNL     1       1.320   4.305  19.113  0.00  0.00    +0.000 C 
ATOM      9  C   UNL     1       1.346   4.376  20.652  0.00  0.00    +0.000 C 
ATOM     10  C   UNL     1       2.295   3.297  21.216  0.00  0.00    +0.000 C 
ENDROOT
BRANCH   4  11
ATOM     11  C   UNL     1       5.783   4.529  18.326  0.00  0.00    +0.000 A 
ATOM     12  C   UNL     1       6.057   4.414  16.935  0.00  0.00    +0.000 A 
ATOM     13  C   UNL     1       6.883   5.423  16.489  0.00  0.00    +0.000 A 
ATOM     14  S   UNL     1       7.262   6.540  17.729  0.00  0.00    +0.000 S 
ATOM     15  C   UNL     1       6.354   5.653  18.880  0.00  0.00    +0.000 A 
ENDBRANCH   4  11
TORSDOF 1
ENDMDL
MODEL 8
REMARK VINA RESULT:      -6.4      1.150      1.403
REMARK  Name = 
REMARK  1 active torsions:
REMARK  status: ('A' for Active; 'I' for Inactive)
REMARK    1  A    between atoms: C_4  and  C_5
REMARK                            x       y       z     vdW  Elec       q    Type
REMARK                         _______ _______ _______ _____ _____    ______ ____
ROOT
ATOM      1  O   UNL     1       5.002   4.929  19.643  0.00  0.00    +0.000 OA
ATOM      2  C   UNL     1       5.239   5.070  18.450  0.00  0.00    +0.000 C 
ATOM      3  C   UNL     1       4.401   4.538  17.297  0.00  0.00    +0.000 C 
ATOM      4  C   UNL     1       3.209   3.944  17.439  0.00  0.00    +0.000 C 
ATOM      5  N   UNL     1       5.061   4.766  16.059  0.00  0.00    +0.000 N 
ATOM      6  C   UNL     1       6.407   4.115  16.010  0.00  0.00    +0.000 C 
ATOM      7  C   UNL     1       7.275   4.677  17.158  0.00  0.00    +0.000 C 
ATOM      8  C   UNL     1       6.494   5.756  17.928  0.00  0.00    +0.000 C 
ATOM      9  C   UNL     1       6.031   6.854  16.951  0.00  0.00    +0.000 C 
ATOM     10  C   UNL     1       5.248   6.224  15.779  0.00  0.00    +0.000 C 
ENDROOT
BRANCH   4  11
ATOM     11  C   UNL     1       2.496   3.736  18.655  0.00  0.00    +0.000 A 
ATOM     12  C   UNL     1       1.656   4.701  19.278  0.00  0.00    +0.000 A 
ATOM     13  C   UNL     1       1.176   4.256  20.491  0.00  0.00    +0.000 A 
ATOM     14  S   UNL     1       1.678   2.657  20.835  0.00  0.00    +0.000 S 
ATOM     15  C   UNL     1       2.577   2.568  19.379  0.00  0.00    +0.000 A 
ENDBRANCH   4  11
TORSDOF 1
ENDMDL
MODEL 9
REMARK VINA RESULT:      -6.4      1.160      1.641
REMARK  Name = 
REMARK  1 active torsions:
REMARK  status: ('A' for Active; 'I' for Inactive)
REMARK    1  A    between atoms: C_4  and  C_5
REMARK                            x       y       z     vdW  Elec       q    Type
REMARK                         _______ _______ _______ _____ _____    ______ ____
ROOT
ATOM      1  O   UNL     1       4.272   2.893  17.344  0.00  0.00    +0.000 OA
ATOM      2  C   UNL     1       4.834   3.965  17.154  0.00  0.00    +0.000 C 
ATOM      3  C   UNL     1       4.375   5.323  17.662  0.00  0.00    +0.000 C 
ATOM      4  C   UNL     1       3.346   5.510  18.500  0.00  0.00    +0.000 C 
ATOM      5  N   UNL     1       5.190   6.354  17.123  0.00  0.00    +0.000 N 
ATOM      6  C   UNL     1       5.164   6.371  15.627  0.00  0.00    +0.000 C 
ATOM      7  C   UNL     1       5.663   5.005  15.105  0.00  0.00    +0.000 C 
ATOM      8  C   UNL     1       6.076   4.109  16.286  0.00  0.00    +0.000 C 
ATOM      9  C   UNL     1       7.136   4.834  17.137  0.00  0.00    +0.000 C 
ATOM     10  C   UNL     1       6.618   6.228  17.554  0.00  0.00    +0.000 C 
ENDROOT
BRANCH   4  11
ATOM     11  C   UNL     1       2.534   4.502  19.095  0.00  0.00    +0.000 A 
ATOM     12  C   UNL     1       1.405   3.898  18.474  0.00  0.00    +0.000 A 
ATOM     13  C   UNL     1       0.757   3.027  19.322  0.00  0.00    +0.000 A 
ATOM     14  S   UNL     1       1.553   2.885  20.831  0.00  0.00    +0.000 S 
ATOM     15  C   UNL     1       2.747   4.024  20.369  0.00  0.00    +0.000 A 
ENDBRANCH   4  11
TORSDOF 1
ENDMDL
