MODEL 1
REMARK VINA RESULT:      -9.4      0.000      0.000
REMARK  Name = 
REMARK  7 active torsions:
REMARK  status: ('A' for Active; 'I' for Inactive)
REMARK    1  A    between atoms: C_2  and  C_14
REMARK    2  A    between atoms: N_3  and  N_4
REMARK    3  A    between atoms: N_4  and  C_5
REMARK    4  A    between atoms: C_5  and  C_6
REMARK    5  A    between atoms: C_6  and  C_7
REMARK    6  A    between atoms: C_7  and  C_8
REMARK    7  A    between atoms: C_16  and  C_17
REMARK                            x       y       z     vdW  Elec       q    Type
REMARK                         _______ _______ _______ _____ _____    ______ ____
ROOT
ATOM      1  C   UNL     1       4.933   6.695  17.712  0.00  0.00    +0.000 A 
ATOM      2  C   UNL     1       4.807   6.147  18.959  0.00  0.00    +0.000 A 
ATOM      3  C   UNL     1       3.548   6.135  19.514  0.00  0.00    +0.000 A 
ATOM      4  C   UNL     1       2.784   7.274  19.254  0.00  0.00    +0.000 A 
ATOM      5  C   UNL     1       1.822   7.742  20.173  0.00  0.00    +0.000 A 
ATOM      6  C   UNL     1       0.975   8.765  19.828  0.00  0.00    +0.000 A 
ATOM      7  C   UNL     1       1.067   9.328  18.564  0.00  0.00    +0.000 A 
ATOM      8  C   UNL     1       2.063   8.895  17.669  0.00  0.00    +0.000 A 
ATOM      9  C   UNL     1       2.975   7.892  18.002  0.00  0.00    +0.000 A 
ATOM     10  N   UNL     1       3.983   7.512  17.166  0.00  0.00    +0.000 NA
ENDROOT
BRANCH   3  11
ATOM     11  C   UNL     1       2.784   4.758  19.538  0.00  0.00    +0.000 C 
ATOM     12  C   UNL     1       1.891   4.488  18.273  0.00  0.00    +0.000 C 
ATOM     13  C   UNL     1       1.212   3.100  18.351  0.00  0.00    +0.000 C 
ATOM     14  C   UNL     1       2.290   2.011  18.468  0.00  0.00    +0.000 C 
ATOM     15  C   UNL     1       3.146   2.254  19.718  0.00  0.00    +0.000 C 
ATOM     16  C   UNL     1       2.259   2.236  20.974  0.00  0.00    +0.000 C 
ATOM     17  C   UNL     1       1.141   3.281  20.850  0.00  0.00    +0.000 C 
ATOM     18  C   UNL     1       0.308   3.027  19.589  0.00  0.00    +0.000 C 
ATOM     19  C   UNL     1       1.789   4.665  20.752  0.00  0.00    +0.000 C 
ATOM     20  C   UNL     1       3.828   3.623  19.602  0.00  0.00    +0.000 C 
ENDBRANCH   3  11
BRANCH   1  22
ATOM     21  O   UNL     1       6.997   7.213  16.601  0.00  0.00    +0.000 OA
ATOM     22  C   UNL     1       6.161   6.352  16.915  0.00  0.00    +0.000 C 
ATOM     23  N   UNL     1       6.306   5.027  16.617  0.00  0.00    +0.000 N 
ATOM     24  H   UNL     1       5.536   4.381  16.846  0.00  0.00    +0.000 HD
BRANCH  23  25
ATOM     25  N   UNL     1       7.375   4.589  15.805  0.00  0.00    +0.000 NA
ATOM     26  H   UNL     1       7.619   3.648  16.151  0.00  0.00    +0.000 HD
BRANCH  25  27
ATOM     27  C   UNL     1       6.986   4.451  14.397  0.00  0.00    +0.000 C 
BRANCH  27  28
ATOM     28  C   UNL     1       7.913   5.200  13.433  0.00  0.00    +0.000 C 
BRANCH  28  29
ATOM     29  C   UNL     1       7.385   5.080  12.001  0.00  0.00    +0.000 C 
BRANCH  29  30
ATOM     30  C   UNL     1       6.811   3.719  11.701  0.00  0.00    +0.000 A 
ATOM     31  C   UNL     1       5.428   3.505  11.754  0.00  0.00    +0.000 A 
ATOM     32  C   UNL     1       4.895   2.245  11.480  0.00  0.00    +0.000 A 
ATOM     33  C   UNL     1       5.739   1.187  11.151  0.00  0.00    +0.000 A 
ATOM     34  C   UNL     1       7.117   1.388  11.092  0.00  0.00    +0.000 A 
ATOM     35  C   UNL     1       7.652   2.648  11.368  0.00  0.00    +0.000 A 
ENDBRANCH  29  30
ENDBRANCH  28  29
ENDBRANCH  27  28
ENDBRANCH  25  27
ENDBRANCH  23  25
ENDBRANCH   1  22
TORSDOF 7
ENDMDL
MODEL 2
REMARK VINA RESULT:      -9.4      4.778      8.273
REMARK  Name = 
REMARK  7 active torsions:
REMARK  status: ('A' for Active; 'I' for Inactive)
REMARK    1  A    between atoms: C_2  and  C_14
REMARK    2  A    between atoms: N_3  and  N_4
REMARK    3  A    between atoms: N_4  and  C_5
REMARK    4  A    between atoms: C_5  and  C_6
REMARK    5  A    between atoms: C_6  and  C_7
REMARK    6  A    between atoms: C_7  and  C_8
REMARK    7  A    between atoms: C_16  and  C_17
REMARK                            x       y       z     vdW  Elec       q    Type
REMARK                         _______ _______ _______ _____ _____    ______ ____
ROOT
ATOM      1  C   UNL     1       7.051   6.676  17.162  0.00  0.00    +0.000 A 
ATOM      2  C   UNL     1       5.693   6.837  17.194  0.00  0.00    +0.000 A 
ATOM      3  C   UNL     1       4.930   5.839  16.630  0.00  0.00    +0.000 A 
ATOM      4  C   UNL     1       5.465   5.283  15.467  0.00  0.00    +0.000 A 
ATOM      5  C   UNL     1       4.636   4.773  14.446  0.00  0.00    +0.000 A 
ATOM      6  C   UNL     1       5.182   4.089  13.388  0.00  0.00    +0.000 A 
ATOM      7  C   UNL     1       6.554   3.895  13.339  0.00  0.00    +0.000 A 
ATOM      8  C   UNL     1       7.383   4.451  14.332  0.00  0.00    +0.000 A 
ATOM      9  C   UNL     1       6.870   5.196  15.395  0.00  0.00    +0.000 A 
ATOM     10  N   UNL     1       7.669   5.792  16.324  0.00  0.00    +0.000 NA
ENDROOT
BRANCH   3  11
ATOM     11  C   UNL     1       4.189   4.857  17.613  0.00  0.00    +0.000 C 
ATOM     12  C   UNL     1       4.819   4.777  19.050  0.00  0.00    +0.000 C 
ATOM     13  C   UNL     1       4.010   3.828  19.966  0.00  0.00    +0.000 C 
ATOM     14  C   UNL     1       2.560   4.327  20.061  0.00  0.00    +0.000 C 
ATOM     15  C   UNL     1       1.931   4.379  18.663  0.00  0.00    +0.000 C 
ATOM     16  C   UNL     1       1.952   2.980  18.025  0.00  0.00    +0.000 C 
ATOM     17  C   UNL     1       3.389   2.441  17.972  0.00  0.00    +0.000 C 
ATOM     18  C   UNL     1       4.001   2.411  19.376  0.00  0.00    +0.000 C 
ATOM     19  C   UNL     1       4.217   3.376  17.085  0.00  0.00    +0.000 C 
ATOM     20  C   UNL     1       2.735   5.345  17.785  0.00  0.00    +0.000 C 
ENDBRANCH   3  11
BRANCH   1  22
ATOM     21  O   UNL     1       8.458   6.984  19.083  0.00  0.00    +0.000 OA
ATOM     22  C   UNL     1       7.878   7.496  18.114  0.00  0.00    +0.000 C 
ATOM     23  N   UNL     1       7.981   8.821  17.797  0.00  0.00    +0.000 N 
ATOM     24  H   UNL     1       7.413   9.189  17.020  0.00  0.00    +0.000 HD
BRANCH  23  25
ATOM     25  N   UNL     1       8.664   9.711  18.655  0.00  0.00    +0.000 NA
ATOM     26  H   UNL     1       9.454   9.172  19.041  0.00  0.00    +0.000 HD
BRANCH  25  27
ATOM     27  C   UNL     1       9.226  10.859  17.934  0.00  0.00    +0.000 C 
BRANCH  27  28
ATOM     28  C   UNL     1      10.475  11.444  18.601  0.00  0.00    +0.000 C 
BRANCH  28  29
ATOM     29  C   UNL     1      10.426  11.197  20.111  0.00  0.00    +0.000 C 
BRANCH  29  30
ATOM     30  C   UNL     1      10.094  12.440  20.898  0.00  0.00    +0.000 A 
ATOM     31  C   UNL     1       9.181  12.384  21.958  0.00  0.00    +0.000 A 
ATOM     32  C   UNL     1       8.870  13.534  22.685  0.00  0.00    +0.000 A 
ATOM     33  C   UNL     1       9.466  14.750  22.358  0.00  0.00    +0.000 A 
ATOM     34  C   UNL     1      10.379  14.816  21.306  0.00  0.00    +0.000 A 
ATOM     35  C   UNL     1      10.690  13.667  20.577  0.00  0.00    +0.000 A 
ENDBRANCH  29  30
ENDBRANCH  28  29
ENDBRANCH  27  28
ENDBRANCH  25  27
ENDBRANCH  23  25
ENDBRANCH   1  22
TORSDOF 7
ENDMDL
MODEL 3
REMARK VINA RESULT:      -9.3      4.671      7.611
REMARK  Name = 
REMARK  7 active torsions:
REMARK  status: ('A' for Active; 'I' for Inactive)
REMARK    1  A    between atoms: C_2  and  C_14
REMARK    2  A    between atoms: N_3  and  N_4
REMARK    3  A    between atoms: N_4  and  C_5
REMARK    4  A    between atoms: C_5  and  C_6
REMARK    5  A    between atoms: C_6  and  C_7
REMARK    6  A    between atoms: C_7  and  C_8
REMARK    7  A    between atoms: C_16  and  C_17
REMARK                            x       y       z     vdW  Elec       q    Type
REMARK                         _______ _______ _______ _____ _____    ______ ____
ROOT
ATOM      1  C   UNL     1       7.033   6.164  17.473  0.00  0.00    +0.000 A 
ATOM      2  C   UNL     1       5.694   6.441  17.487  0.00  0.00    +0.000 A 
ATOM      3  C   UNL     1       4.868   5.574  16.808  0.00  0.00    +0.000 A 
ATOM      4  C   UNL     1       5.392   5.086  15.610  0.00  0.00    +0.000 A 
ATOM      5  C   UNL     1       4.557   4.752  14.523  0.00  0.00    +0.000 A 
ATOM      6  C   UNL     1       5.078   4.126  13.417  0.00  0.00    +0.000 A 
ATOM      7  C   UNL     1       6.429   3.818  13.383  0.00  0.00    +0.000 A 
ATOM      8  C   UNL     1       7.268   4.200  14.447  0.00  0.00    +0.000 A 
ATOM      9  C   UNL     1       6.786   4.882  15.565  0.00  0.00    +0.000 A 
ATOM     10  N   UNL     1       7.602   5.313  16.568  0.00  0.00    +0.000 NA
ENDROOT
BRANCH   3  11
ATOM     11  C   UNL     1       4.013   4.571  17.670  0.00  0.00    +0.000 C 
ATOM     12  C   UNL     1       2.460   4.702  17.469  0.00  0.00    +0.000 C 
ATOM     13  C   UNL     1       1.693   3.656  18.313  0.00  0.00    +0.000 C 
ATOM     14  C   UNL     1       2.152   2.245  17.914  0.00  0.00    +0.000 C 
ATOM     15  C   UNL     1       3.663   2.103  18.136  0.00  0.00    +0.000 C 
ATOM     16  C   UNL     1       4.003   2.354  19.615  0.00  0.00    +0.000 C 
ATOM     17  C   UNL     1       3.502   3.740  20.048  0.00  0.00    +0.000 C 
ATOM     18  C   UNL     1       1.994   3.864  19.804  0.00  0.00    +0.000 C 
ATOM     19  C   UNL     1       4.232   4.794  19.211  0.00  0.00    +0.000 C 
ATOM     20  C   UNL     1       4.398   3.131  17.269  0.00  0.00    +0.000 C 
ENDBRANCH   3  11
BRANCH   1  22
ATOM     21  O   UNL     1       8.278   6.196  19.527  0.00  0.00    +0.000 OA
ATOM     22  C   UNL     1       7.896   6.813  18.521  0.00  0.00    +0.000 C 
ATOM     23  N   UNL     1       8.263   8.101  18.252  0.00  0.00    +0.000 N 
ATOM     24  H   UNL     1       7.848   8.574  17.435  0.00  0.00    +0.000 HD
BRANCH  23  25
ATOM     25  N   UNL     1       9.005   8.846  19.195  0.00  0.00    +0.000 NA
ATOM     26  H   UNL     1       9.988   8.569  19.055  0.00  0.00    +0.000 HD
BRANCH  25  27
ATOM     27  C   UNL     1       8.917  10.291  18.958  0.00  0.00    +0.000 C 
BRANCH  27  28
ATOM     28  C   UNL     1       9.458  11.133  20.119  0.00  0.00    +0.000 C 
BRANCH  28  29
ATOM     29  C   UNL     1      10.917  11.512  19.854  0.00  0.00    +0.000 C 
BRANCH  29  30
ATOM     30  C   UNL     1      11.059  12.617  18.839  0.00  0.00    +0.000 A 
ATOM     31  C   UNL     1      11.670  12.369  17.603  0.00  0.00    +0.000 A 
ATOM     32  C   UNL     1      11.806  13.391  16.663  0.00  0.00    +0.000 A 
ATOM     33  C   UNL     1      11.335  14.671  16.949  0.00  0.00    +0.000 A 
ATOM     34  C   UNL     1      10.723  14.929  18.175  0.00  0.00    +0.000 A 
ATOM     35  C   UNL     1      10.588  13.907  19.117  0.00  0.00    +0.000 A 
ENDBRANCH  29  30
ENDBRANCH  28  29
ENDBRANCH  27  28
ENDBRANCH  25  27
ENDBRANCH  23  25
ENDBRANCH   1  22
TORSDOF 7
ENDMDL
MODEL 4
REMARK VINA RESULT:      -9.3      4.723      7.743
REMARK  Name = 
REMARK  7 active torsions:
REMARK  status: ('A' for Active; 'I' for Inactive)
REMARK    1  A    between atoms: C_2  and  C_14
REMARK    2  A    between atoms: N_3  and  N_4
REMARK    3  A    between atoms: N_4  and  C_5
REMARK    4  A    between atoms: C_5  and  C_6
REMARK    5  A    between atoms: C_6  and  C_7
REMARK    6  A    between atoms: C_7  and  C_8
REMARK    7  A    between atoms: C_16  and  C_17
REMARK                            x       y       z     vdW  Elec       q    Type
REMARK                         _______ _______ _______ _____ _____    ______ ____
ROOT
ATOM      1  C   UNL     1       7.095   6.236  17.463  0.00  0.00    +0.000 A 
ATOM      2  C   UNL     1       5.747   6.463  17.508  0.00  0.00    +0.000 A 
ATOM      3  C   UNL     1       4.939   5.570  16.842  0.00  0.00    +0.000 A 
ATOM      4  C   UNL     1       5.453   5.112  15.627  0.00  0.00    +0.000 A 
ATOM      5  C   UNL     1       4.607   4.755  14.557  0.00  0.00    +0.000 A 
ATOM      6  C   UNL     1       5.125   4.157  13.435  0.00  0.00    +0.000 A 
ATOM      7  C   UNL     1       6.486   3.899  13.368  0.00  0.00    +0.000 A 
ATOM      8  C   UNL     1       7.334   4.305  14.416  0.00  0.00    +0.000 A 
ATOM      9  C   UNL     1       6.852   4.960  15.550  0.00  0.00    +0.000 A 
ATOM     10  N   UNL     1       7.674   5.414  16.538  0.00  0.00    +0.000 NA
ENDROOT
BRANCH   3  11
ATOM     11  C   UNL     1       4.141   4.530  17.714  0.00  0.00    +0.000 C 
ATOM     12  C   UNL     1       4.623   4.427  19.206  0.00  0.00    +0.000 C 
ATOM     13  C   UNL     1       3.763   3.421  20.007  0.00  0.00    +0.000 C 
ATOM     14  C   UNL     1       2.292   3.862  19.965  0.00  0.00    +0.000 C 
ATOM     15  C   UNL     1       1.808   3.936  18.511  0.00  0.00    +0.000 C 
ATOM     16  C   UNL     1       1.951   2.559  17.839  0.00  0.00    +0.000 C 
ATOM     17  C   UNL     1       3.406   2.076  17.921  0.00  0.00    +0.000 C 
ATOM     18  C   UNL     1       3.872   2.024  19.380  0.00  0.00    +0.000 C 
ATOM     19  C   UNL     1       4.282   3.069  17.151  0.00  0.00    +0.000 C 
ATOM     20  C   UNL     1       2.658   4.958  17.749  0.00  0.00    +0.000 C 
ENDBRANCH   3  11
BRANCH   1  22
ATOM     21  O   UNL     1       8.372   6.302  19.496  0.00  0.00    +0.000 OA
ATOM     22  C   UNL     1       7.956   6.909  18.497  0.00  0.00    +0.000 C 
ATOM     23  N   UNL     1       8.282   8.207  18.222  0.00  0.00    +0.000 N 
ATOM     24  H   UNL     1       7.841   8.667  17.413  0.00  0.00    +0.000 HD
BRANCH  23  25
ATOM     25  N   UNL     1       9.019   8.971  19.154  0.00  0.00    +0.000 NA
ATOM     26  H   UNL     1      10.007   8.718  19.001  0.00  0.00    +0.000 HD
BRANCH  25  27
ATOM     27  C   UNL     1       8.893  10.413  18.914  0.00  0.00    +0.000 C 
BRANCH  27  28
ATOM     28  C   UNL     1       9.440  11.271  20.060  0.00  0.00    +0.000 C 
BRANCH  28  29
ATOM     29  C   UNL     1      10.911  11.610  19.803  0.00  0.00    +0.000 C 
BRANCH  29  30
ATOM     30  C   UNL     1      11.088  12.724  18.803  0.00  0.00    +0.000 A 
ATOM     31  C   UNL     1      10.620  14.013  19.087  0.00  0.00    +0.000 A 
ATOM     32  C   UNL     1      10.780  15.044  18.161  0.00  0.00    +0.000 A 
ATOM     33  C   UNL     1      11.408  14.798  16.942  0.00  0.00    +0.000 A 
ATOM     34  C   UNL     1      11.880  13.519  16.649  0.00  0.00    +0.000 A 
ATOM     35  C   UNL     1      11.720  12.486  17.574  0.00  0.00    +0.000 A 
ENDBRANCH  29  30
ENDBRANCH  28  29
ENDBRANCH  27  28
ENDBRANCH  25  27
ENDBRANCH  23  25
ENDBRANCH   1  22
TORSDOF 7
ENDMDL
MODEL 5
REMARK VINA RESULT:      -9.2      4.772      7.635
REMARK  Name = 
REMARK  7 active torsions:
REMARK  status: ('A' for Active; 'I' for Inactive)
REMARK    1  A    between atoms: C_2  and  C_14
REMARK    2  A    between atoms: N_3  and  N_4
REMARK    3  A    between atoms: N_4  and  C_5
REMARK    4  A    between atoms: C_5  and  C_6
REMARK    5  A    between atoms: C_6  and  C_7
REMARK    6  A    between atoms: C_7  and  C_8
REMARK    7  A    between atoms: C_16  and  C_17
REMARK                            x       y       z     vdW  Elec       q    Type
REMARK                         _______ _______ _______ _____ _____    ______ ____
ROOT
ATOM      1  C   UNL     1       7.031   6.213  17.405  0.00  0.00    +0.000 A 
ATOM      2  C   UNL     1       5.690   6.483  17.410  0.00  0.00    +0.000 A 
ATOM      3  C   UNL     1       4.870   5.596  16.751  0.00  0.00    +0.000 A 
ATOM      4  C   UNL     1       5.397   5.085  15.564  0.00  0.00    +0.000 A 
ATOM      5  C   UNL     1       4.566   4.721  14.484  0.00  0.00    +0.000 A 
ATOM      6  C   UNL     1       5.091   4.074  13.394  0.00  0.00    +0.000 A 
ATOM      7  C   UNL     1       6.444   3.771  13.369  0.00  0.00    +0.000 A 
ATOM      8  C   UNL     1       7.280   4.181  14.424  0.00  0.00    +0.000 A 
ATOM      9  C   UNL     1       6.793   4.886  15.526  0.00  0.00    +0.000 A 
ATOM     10  N   UNL     1       7.605   5.344  16.520  0.00  0.00    +0.000 NA
ENDROOT
BRANCH   3  11
ATOM     11  C   UNL     1       4.018   4.609  17.634  0.00  0.00    +0.000 C 
ATOM     12  C   UNL     1       2.463   4.768  17.471  0.00  0.00    +0.000 C 
ATOM     13  C   UNL     1       1.699   3.736  18.334  0.00  0.00    +0.000 C 
ATOM     14  C   UNL     1       2.123   2.317  17.925  0.00  0.00    +0.000 C 
ATOM     15  C   UNL     1       3.636   2.148  18.111  0.00  0.00    +0.000 C 
ATOM     16  C   UNL     1       4.016   2.394  19.581  0.00  0.00    +0.000 C 
ATOM     17  C   UNL     1       3.550   3.788  20.024  0.00  0.00    +0.000 C 
ATOM     18  C   UNL     1       2.040   3.939  19.817  0.00  0.00    +0.000 C 
ATOM     19  C   UNL     1       4.279   4.830  19.169  0.00  0.00    +0.000 C 
ATOM     20  C   UNL     1       4.368   3.163  17.225  0.00  0.00    +0.000 C 
ENDBRANCH   3  11
BRANCH   1  22
ATOM     21  O   UNL     1       8.279   6.294  19.455  0.00  0.00    +0.000 OA
ATOM     22  C   UNL     1       7.888   6.890  18.439  0.00  0.00    +0.000 C 
ATOM     23  N   UNL     1       8.240   8.177  18.146  0.00  0.00    +0.000 N 
ATOM     24  H   UNL     1       7.818   8.630  17.322  0.00  0.00    +0.000 HD
BRANCH  23  25
ATOM     25  N   UNL     1       8.976   8.946  19.074  0.00  0.00    +0.000 NA
ATOM     26  H   UNL     1       9.964   8.686  18.929  0.00  0.00    +0.000 HD
BRANCH  25  27
ATOM     27  C   UNL     1       8.860  10.386  18.821  0.00  0.00    +0.000 C 
BRANCH  27  28
ATOM     28  C   UNL     1      10.175  11.148  19.021  0.00  0.00    +0.000 C 
BRANCH  28  29
ATOM     29  C   UNL     1      10.662  11.711  17.684  0.00  0.00    +0.000 C 
BRANCH  29  30
ATOM     30  C   UNL     1      10.523  13.210  17.594  0.00  0.00    +0.000 A 
ATOM     31  C   UNL     1       9.421  13.855  18.169  0.00  0.00    +0.000 A 
ATOM     32  C   UNL     1       9.289  15.242  18.084  0.00  0.00    +0.000 A 
ATOM     33  C   UNL     1      10.257  15.996  17.424  0.00  0.00    +0.000 A 
ATOM     34  C   UNL     1      11.360  15.365  16.850  0.00  0.00    +0.000 A 
ATOM     35  C   UNL     1      11.492  13.978  16.933  0.00  0.00    +0.000 A 
ENDBRANCH  29  30
ENDBRANCH  28  29
ENDBRANCH  27  28
ENDBRANCH  25  27
ENDBRANCH  23  25
ENDBRANCH   1  22
TORSDOF 7
ENDMDL
MODEL 6
REMARK VINA RESULT:      -9.2      5.013      7.906
REMARK  Name = 
REMARK  7 active torsions:
REMARK  status: ('A' for Active; 'I' for Inactive)
REMARK    1  A    between atoms: C_2  and  C_14
REMARK    2  A    between atoms: N_3  and  N_4
REMARK    3  A    between atoms: N_4  and  C_5
REMARK    4  A    between atoms: C_5  and  C_6
REMARK    5  A    between atoms: C_6  and  C_7
REMARK    6  A    between atoms: C_7  and  C_8
REMARK    7  A    between atoms: C_16  and  C_17
REMARK                            x       y       z     vdW  Elec       q    Type
REMARK                         _______ _______ _______ _____ _____    ______ ____
ROOT
ATOM      1  C   UNL     1       7.009   6.202  17.331  0.00  0.00    +0.000 A 
ATOM      2  C   UNL     1       5.665   6.453  17.327  0.00  0.00    +0.000 A 
ATOM      3  C   UNL     1       4.862   5.558  16.657  0.00  0.00    +0.000 A 
ATOM      4  C   UNL     1       5.407   5.059  15.472  0.00  0.00    +0.000 A 
ATOM      5  C   UNL     1       4.589   4.689  14.384  0.00  0.00    +0.000 A 
ATOM      6  C   UNL     1       5.133   4.054  13.295  0.00  0.00    +0.000 A 
ATOM      7  C   UNL     1       6.489   3.770  13.280  0.00  0.00    +0.000 A 
ATOM      8  C   UNL     1       7.311   4.187  14.344  0.00  0.00    +0.000 A 
ATOM      9  C   UNL     1       6.805   4.880  15.444  0.00  0.00    +0.000 A 
ATOM     10  N   UNL     1       7.603   5.345  16.447  0.00  0.00    +0.000 NA
ENDROOT
BRANCH   3  11
ATOM     11  C   UNL     1       4.017   4.555  17.529  0.00  0.00    +0.000 C 
ATOM     12  C   UNL     1       3.500   3.292  16.749  0.00  0.00    +0.000 C 
ATOM     13  C   UNL     1       2.720   2.336  17.682  0.00  0.00    +0.000 C 
ATOM     14  C   UNL     1       3.631   1.897  18.838  0.00  0.00    +0.000 C 
ATOM     15  C   UNL     1       4.115   3.125  19.620  0.00  0.00    +0.000 C 
ATOM     16  C   UNL     1       2.910   3.899  20.182  0.00  0.00    +0.000 C 
ATOM     17  C   UNL     1       1.959   4.298  19.045  0.00  0.00    +0.000 C 
ATOM     18  C   UNL     1       1.500   3.059  18.270  0.00  0.00    +0.000 C 
ATOM     19  C   UNL     1       2.715   5.231  18.094  0.00  0.00    +0.000 C 
ATOM     20  C   UNL     1       4.907   4.040  18.679  0.00  0.00    +0.000 C 
ENDBRANCH   3  11
BRANCH   1  22
ATOM     21  O   UNL     1       8.222   6.297  19.401  0.00  0.00    +0.000 OA
ATOM     22  C   UNL     1       7.849   6.886  18.375  0.00  0.00    +0.000 C 
ATOM     23  N   UNL     1       8.206   8.171  18.079  0.00  0.00    +0.000 N 
ATOM     24  H   UNL     1       7.799   8.618  17.245  0.00  0.00    +0.000 HD
BRANCH  23  25
ATOM     25  N   UNL     1       8.926   8.946  19.015  0.00  0.00    +0.000 NA
ATOM     26  H   UNL     1       9.901   8.615  18.957  0.00  0.00    +0.000 HD
BRANCH  25  27
ATOM     27  C   UNL     1       8.926  10.373  18.673  0.00  0.00    +0.000 C 
BRANCH  27  28
ATOM     28  C   UNL     1      10.200  11.104  19.111  0.00  0.00    +0.000 C 
BRANCH  28  29
ATOM     29  C   UNL     1      10.919  11.680  17.888  0.00  0.00    +0.000 C 
BRANCH  29  30
ATOM     30  C   UNL     1      11.416  13.085  18.109  0.00  0.00    +0.000 A 
ATOM     31  C   UNL     1      11.613  13.571  19.408  0.00  0.00    +0.000 A 
ATOM     32  C   UNL     1      12.070  14.873  19.614  0.00  0.00    +0.000 A 
ATOM     33  C   UNL     1      12.333  15.702  18.526  0.00  0.00    +0.000 A 
ATOM     34  C   UNL     1      12.144  15.228  17.228  0.00  0.00    +0.000 A 
ATOM     35  C   UNL     1      11.685  13.926  17.020  0.00  0.00    +0.000 A 
ENDBRANCH  29  30
ENDBRANCH  28  29
ENDBRANCH  27  28
ENDBRANCH  25  27
ENDBRANCH  23  25
ENDBRANCH   1  22
TORSDOF 7
ENDMDL
MODEL 7
REMARK VINA RESULT:      -9.2      4.582      8.172
REMARK  Name = 
REMARK  7 active torsions:
REMARK  status: ('A' for Active; 'I' for Inactive)
REMARK    1  A    between atoms: C_2  and  C_14
REMARK    2  A    between atoms: N_3  and  N_4
REMARK    3  A    between atoms: N_4  and  C_5
REMARK    4  A    between atoms: C_5  and  C_6
REMARK    5  A    between atoms: C_6  and  C_7
REMARK    6  A    between atoms: C_7  and  C_8
REMARK    7  A    between atoms: C_16  and  C_17
REMARK                            x       y       z     vdW  Elec       q    Type
REMARK                         _______ _______ _______ _____ _____    ______ ____
ROOT
ATOM      1  C   UNL     1       6.988   6.530  17.104  0.00  0.00    +0.000 A 
ATOM      2  C   UNL     1       5.629   6.675  17.138  0.00  0.00    +0.000 A 
ATOM      3  C   UNL     1       4.878   5.682  16.550  0.00  0.00    +0.000 A 
ATOM      4  C   UNL     1       5.420   5.159  15.375  0.00  0.00    +0.000 A 
ATOM      5  C   UNL     1       4.597   4.663  14.342  0.00  0.00    +0.000 A 
ATOM      6  C   UNL     1       5.152   4.009  13.270  0.00  0.00    +0.000 A 
ATOM      7  C   UNL     1       6.526   3.832  13.217  0.00  0.00    +0.000 A 
ATOM      8  C   UNL     1       7.348   4.374  14.224  0.00  0.00    +0.000 A 
ATOM      9  C   UNL     1       6.826   5.089  15.303  0.00  0.00    +0.000 A 
ATOM     10  N   UNL     1       7.618   5.672  16.246  0.00  0.00    +0.000 NA
ENDROOT
BRANCH   3  11
ATOM     11  C   UNL     1       4.147   4.669  17.509  0.00  0.00    +0.000 C 
ATOM     12  C   UNL     1       4.425   3.156  17.190  0.00  0.00    +0.000 C 
ATOM     13  C   UNL     1       3.710   2.227  18.200  0.00  0.00    +0.000 C 
ATOM     14  C   UNL     1       4.191   2.556  19.622  0.00  0.00    +0.000 C 
ATOM     15  C   UNL     1       3.895   4.025  19.949  0.00  0.00    +0.000 C 
ATOM     16  C   UNL     1       2.384   4.293  19.844  0.00  0.00    +0.000 C 
ATOM     17  C   UNL     1       1.874   3.917  18.445  0.00  0.00    +0.000 C 
ATOM     18  C   UNL     1       2.193   2.451  18.134  0.00  0.00    +0.000 C 
ATOM     19  C   UNL     1       2.583   4.811  17.422  0.00  0.00    +0.000 C 
ATOM     20  C   UNL     1       4.637   4.922  18.951  0.00  0.00    +0.000 C 
ENDBRANCH   3  11
BRANCH   1  22
ATOM     21  O   UNL     1       8.345   6.819  19.064  0.00  0.00    +0.000 OA
ATOM     22  C   UNL     1       7.805   7.338  18.075  0.00  0.00    +0.000 C 
ATOM     23  N   UNL     1       7.948   8.658  17.753  0.00  0.00    +0.000 N 
ATOM     24  H   UNL     1       7.411   9.034  16.957  0.00  0.00    +0.000 HD
BRANCH  23  25
ATOM     25  N   UNL     1       8.625   9.538  18.625  0.00  0.00    +0.000 NA
ATOM     26  H   UNL     1       9.440   9.010  18.974  0.00  0.00    +0.000 HD
BRANCH  25  27
ATOM     27  C   UNL     1       9.136  10.726  17.932  0.00  0.00    +0.000 C 
BRANCH  27  28
ATOM     28  C   UNL     1      10.031  11.606  18.812  0.00  0.00    +0.000 C 
BRANCH  28  29
ATOM     29  C   UNL     1      10.009  11.096  20.255  0.00  0.00    +0.000 C 
BRANCH  29  30
ATOM     30  C   UNL     1       9.537  12.138  21.237  0.00  0.00    +0.000 A 
ATOM     31  C   UNL     1      10.058  13.438  21.196  0.00  0.00    +0.000 A 
ATOM     32  C   UNL     1       9.625  14.403  22.106  0.00  0.00    +0.000 A 
ATOM     33  C   UNL     1       8.669  14.079  23.066  0.00  0.00    +0.000 A 
ATOM     34  C   UNL     1       8.142  12.789  23.115  0.00  0.00    +0.000 A 
ATOM     35  C   UNL     1       8.575  11.822  22.206  0.00  0.00    +0.000 A 
ENDBRANCH  29  30
ENDBRANCH  28  29
ENDBRANCH  27  28
ENDBRANCH  25  27
ENDBRANCH  23  25
ENDBRANCH   1  22
TORSDOF 7
ENDMDL
MODEL 8
REMARK VINA RESULT:      -9.2      4.994      8.214
REMARK  Name = 
REMARK  7 active torsions:
REMARK  status: ('A' for Active; 'I' for Inactive)
REMARK    1  A    between atoms: C_2  and  C_14
REMARK    2  A    between atoms: N_3  and  N_4
REMARK    3  A    between atoms: N_4  and  C_5
REMARK    4  A    between atoms: C_5  and  C_6
REMARK    5  A    between atoms: C_6  and  C_7
REMARK    6  A    between atoms: C_7  and  C_8
REMARK    7  A    between atoms: C_16  and  C_17
REMARK                            x       y       z     vdW  Elec       q    Type
REMARK                         _______ _______ _______ _____ _____    ______ ____
ROOT
ATOM      1  C   UNL     1       7.062   6.707  17.163  0.00  0.00    +0.000 A 
ATOM      2  C   UNL     1       5.714   6.938  17.142  0.00  0.00    +0.000 A 
ATOM      3  C   UNL     1       4.920   5.963  16.582  0.00  0.00    +0.000 A 
ATOM      4  C   UNL     1       5.463   5.343  15.456  0.00  0.00    +0.000 A 
ATOM      5  C   UNL     1       4.644   4.843  14.423  0.00  0.00    +0.000 A 
ATOM      6  C   UNL     1       5.189   4.098  13.406  0.00  0.00    +0.000 A 
ATOM      7  C   UNL     1       6.549   3.833  13.411  0.00  0.00    +0.000 A 
ATOM      8  C   UNL     1       7.372   4.377  14.415  0.00  0.00    +0.000 A 
ATOM      9  C   UNL     1       6.864   5.181  15.437  0.00  0.00    +0.000 A 
ATOM     10  N   UNL     1       7.661   5.766  16.374  0.00  0.00    +0.000 NA
ENDROOT
BRANCH   3  11
ATOM     11  C   UNL     1       4.096   5.052  17.568  0.00  0.00    +0.000 C 
ATOM     12  C   UNL     1       2.618   5.529  17.811  0.00  0.00    +0.000 C 
ATOM     13  C   UNL     1       1.862   4.560  18.751  0.00  0.00    +0.000 C 
ATOM     14  C   UNL     1       1.860   3.152  18.136  0.00  0.00    +0.000 C 
ATOM     15  C   UNL     1       3.301   2.670  17.924  0.00  0.00    +0.000 C 
ATOM     16  C   UNL     1       4.049   2.643  19.267  0.00  0.00    +0.000 C 
ATOM     17  C   UNL     1       4.014   4.030  19.924  0.00  0.00    +0.000 C 
ATOM     18  C   UNL     1       2.567   4.496  20.113  0.00  0.00    +0.000 C 
ATOM     19  C   UNL     1       4.740   5.014  19.001  0.00  0.00    +0.000 C 
ATOM     20  C   UNL     1       4.017   3.632  16.968  0.00  0.00    +0.000 C 
ENDBRANCH   3  11
BRANCH   1  22
ATOM     21  O   UNL     1       8.469   6.993  19.087  0.00  0.00    +0.000 OA
ATOM     22  C   UNL     1       7.898   7.514  18.118  0.00  0.00    +0.000 C 
ATOM     23  N   UNL     1       8.021   8.838  17.802  0.00  0.00    +0.000 N 
ATOM     24  H   UNL     1       7.459   9.215  17.025  0.00  0.00    +0.000 HD
BRANCH  23  25
ATOM     25  N   UNL     1       8.714   9.717  18.663  0.00  0.00    +0.000 NA
ATOM     26  H   UNL     1       9.613   9.254  18.868  0.00  0.00    +0.000 HD
BRANCH  25  27
ATOM     27  C   UNL     1       9.017  11.001  18.022  0.00  0.00    +0.000 C 
BRANCH  27  28
ATOM     28  C   UNL     1      10.505  11.366  18.064  0.00  0.00    +0.000 C 
BRANCH  28  29
ATOM     29  C   UNL     1      10.985  11.435  19.517  0.00  0.00    +0.000 C 
BRANCH  29  30
ATOM     30  C   UNL     1      10.932  12.830  20.085  0.00  0.00    +0.000 A 
ATOM     31  C   UNL     1      11.757  13.838  19.568  0.00  0.00    +0.000 A 
ATOM     32  C   UNL     1      11.712  15.129  20.096  0.00  0.00    +0.000 A 
ATOM     33  C   UNL     1      10.845  15.425  21.145  0.00  0.00    +0.000 A 
ATOM     34  C   UNL     1      10.017  14.431  21.665  0.00  0.00    +0.000 A 
ATOM     35  C   UNL     1      10.062  13.139  21.140  0.00  0.00    +0.000 A 
ENDBRANCH  29  30
ENDBRANCH  28  29
ENDBRANCH  27  28
ENDBRANCH  25  27
ENDBRANCH  23  25
ENDBRANCH   1  22
TORSDOF 7
ENDMDL
MODEL 9
REMARK VINA RESULT:      -9.1      4.990      8.320
REMARK  Name = 
REMARK  7 active torsions:
REMARK  status: ('A' for Active; 'I' for Inactive)
REMARK    1  A    between atoms: C_2  and  C_14
REMARK    2  A    between atoms: N_3  and  N_4
REMARK    3  A    between atoms: N_4  and  C_5
REMARK    4  A    between atoms: C_5  and  C_6
REMARK    5  A    between atoms: C_6  and  C_7
REMARK    6  A    between atoms: C_7  and  C_8
REMARK    7  A    between atoms: C_16  and  C_17
REMARK                            x       y       z     vdW  Elec       q    Type
REMARK                         _______ _______ _______ _____ _____    ______ ____
ROOT
ATOM      1  C   UNL     1       6.997   6.482  17.130  0.00  0.00    +0.000 A 
ATOM      2  C   UNL     1       5.639   6.635  17.161  0.00  0.00    +0.000 A 
ATOM      3  C   UNL     1       4.884   5.657  16.554  0.00  0.00    +0.000 A 
ATOM      4  C   UNL     1       5.427   5.150  15.372  0.00  0.00    +0.000 A 
ATOM      5  C   UNL     1       4.606   4.677  14.328  0.00  0.00    +0.000 A 
ATOM      6  C   UNL     1       5.160   4.038  13.247  0.00  0.00    +0.000 A 
ATOM      7  C   UNL     1       6.533   3.854  13.196  0.00  0.00    +0.000 A 
ATOM      8  C   UNL     1       7.354   4.373  14.215  0.00  0.00    +0.000 A 
ATOM      9  C   UNL     1       6.833   5.072  15.304  0.00  0.00    +0.000 A 
ATOM     10  N   UNL     1       7.625   5.635  16.260  0.00  0.00    +0.000 NA
ENDROOT
BRANCH   3  11
ATOM     11  C   UNL     1       4.143   4.633  17.493  0.00  0.00    +0.000 C 
ATOM     12  C   UNL     1       4.251   3.134  17.033  0.00  0.00    +0.000 C 
ATOM     13  C   UNL     1       3.538   2.187  18.028  0.00  0.00    +0.000 C 
ATOM     14  C   UNL     1       4.163   2.350  19.422  0.00  0.00    +0.000 C 
ATOM     15  C   UNL     1       4.034   3.806  19.888  0.00  0.00    +0.000 C 
ATOM     16  C   UNL     1       2.551   4.211  19.940  0.00  0.00    +0.000 C 
ATOM     17  C   UNL     1       1.895   4.003  18.567  0.00  0.00    +0.000 C 
ATOM     18  C   UNL     1       2.048   2.547  18.116  0.00  0.00    +0.000 C 
ATOM     19  C   UNL     1       2.597   4.916  17.558  0.00  0.00    +0.000 C 
ATOM     20  C   UNL     1       4.771   4.717  18.900  0.00  0.00    +0.000 C 
ENDBRANCH   3  11
BRANCH   1  22
ATOM     21  O   UNL     1       8.345   6.730  19.102  0.00  0.00    +0.000 OA
ATOM     22  C   UNL     1       7.816   7.268  18.118  0.00  0.00    +0.000 C 
ATOM     23  N   UNL     1       7.972   8.591  17.817  0.00  0.00    +0.000 N 
ATOM     24  H   UNL     1       7.443   8.984  17.024  0.00  0.00    +0.000 HD
BRANCH  23  25
ATOM     25  N   UNL     1       8.651   9.452  18.706  0.00  0.00    +0.000 NA
ATOM     26  H   UNL     1       9.449   8.906  19.066  0.00  0.00    +0.000 HD
BRANCH  25  27
ATOM     27  C   UNL     1       9.198  10.634  18.030  0.00  0.00    +0.000 C 
BRANCH  27  28
ATOM     28  C   UNL     1      10.398  11.251  18.757  0.00  0.00    +0.000 C 
BRANCH  28  29
ATOM     29  C   UNL     1      10.040  11.519  20.221  0.00  0.00    +0.000 C 
BRANCH  29  30
ATOM     30  C   UNL     1      10.259  12.954  20.625  0.00  0.00    +0.000 A 
ATOM     31  C   UNL     1      11.085  13.787  19.859  0.00  0.00    +0.000 A 
ATOM     32  C   UNL     1      11.292  15.116  20.233  0.00  0.00    +0.000 A 
ATOM     33  C   UNL     1      10.678  15.624  21.376  0.00  0.00    +0.000 A 
ATOM     34  C   UNL     1       9.852  14.804  22.144  0.00  0.00    +0.000 A 
ATOM     35  C   UNL     1       9.645  13.475  21.772  0.00  0.00    +0.000 A 
ENDBRANCH  29  30
ENDBRANCH  28  29
ENDBRANCH  27  28
ENDBRANCH  25  27
ENDBRANCH  23  25
ENDBRANCH   1  22
TORSDOF 7
ENDMDL
