MODEL 1
REMARK VINA RESULT:      -8.3      0.000      0.000
REMARK  Name = 
REMARK  3 active torsions:
REMARK  status: ('A' for Active; 'I' for Inactive)
REMARK    1  A    between atoms: C_2  and  C_14
REMARK    2  A    between atoms: N_3  and  N_4
REMARK    3  A    between atoms: C_5  and  C_6
REMARK                            x       y       z     vdW  Elec       q    Type
REMARK                         _______ _______ _______ _____ _____    ______ ____
ROOT
ATOM      1  O   UNL     1       8.374   6.624  18.830  0.00  0.00    +0.000 OA
ATOM      2  C   UNL     1       7.367   6.856  18.165  0.00  0.00    +0.000 C 
ATOM      3  N   UNL     1       7.218   8.009  17.390  0.00  0.00    +0.000 N 
ATOM      4  H   UNL     1       6.355   8.156  16.877  0.00  0.00    +0.000 HD
ENDROOT
BRANCH   2   5
ATOM      5  C   UNL     1       6.231   5.933  18.134  0.00  0.00    +0.000 A 
ATOM      6  C   UNL     1       5.975   4.969  17.172  0.00  0.00    +0.000 A 
ATOM      7  C   UNL     1       4.803   4.213  17.461  0.00  0.00    +0.000 A 
ATOM      8  C   UNL     1       4.181   4.635  18.623  0.00  0.00    +0.000 A 
ATOM      9  S   UNL     1       5.016   5.923  19.352  0.00  0.00    +0.000 S 
ATOM     10  C   UNL     1       2.934   4.030  19.123  0.00  0.00    +0.000 A 
ATOM     11  C   UNL     1       2.452   4.185  20.428  0.00  0.00    +0.000 A 
ATOM     12  C   UNL     1       1.277   3.537  20.828  0.00  0.00    +0.000 A 
ATOM     13  C   UNL     1       0.568   2.739  19.930  0.00  0.00    +0.000 A 
ATOM     14  C   UNL     1       1.030   2.578  18.626  0.00  0.00    +0.000 A 
ATOM     15  C   UNL     1       2.217   3.203  18.221  0.00  0.00    +0.000 A 
ATOM     16  C   UNL     1       2.703   3.043  16.788  0.00  0.00    +0.000 C 
ATOM     17  C   UNL     1       4.239   3.061  16.686  0.00  0.00    +0.000 C 
ENDBRANCH   2   5
BRANCH   3  18
ATOM     18  N   UNL     1       8.209   8.942  17.355  0.00  0.00    +0.000 NA
ATOM     19  C   UNL     1       8.111   9.952  18.157  0.00  0.00    +0.000 C 
BRANCH  19  20
ATOM     20  C   UNL     1       9.172  10.987  18.178  0.00  0.00    +0.000 A 
ATOM     21  C   UNL     1      10.449  10.663  18.663  0.00  0.00    +0.000 A 
ATOM     22  C   UNL     1      11.446  11.637  18.729  0.00  0.00    +0.000 A 
ATOM     23  C   UNL     1      11.160  12.933  18.314  0.00  0.00    +0.000 A 
ATOM     24  F   UNL     1      12.110  13.874  18.396  0.00  0.00    +0.000 F 
ATOM     25  C   UNL     1       9.897  13.251  17.822  0.00  0.00    +0.000 A 
ATOM     26  F   UNL     1       9.629  14.503  17.425  0.00  0.00    +0.000 F 
ATOM     27  C   UNL     1       8.894  12.285  17.743  0.00  0.00    +0.000 A 
ENDBRANCH  19  20
ENDBRANCH   3  18
TORSDOF 3
ENDMDL
MODEL 2
REMARK VINA RESULT:      -8.0      7.662      9.046
REMARK  Name = 
REMARK  3 active torsions:
REMARK  status: ('A' for Active; 'I' for Inactive)
REMARK    1  A    between atoms: C_2  and  C_14
REMARK    2  A    between atoms: N_3  and  N_4
REMARK    3  A    between atoms: C_5  and  C_6
REMARK                            x       y       z     vdW  Elec       q    Type
REMARK                         _______ _______ _______ _____ _____    ______ ____
ROOT
ATOM      1  O   UNL     1       2.321  10.127  17.458  0.00  0.00    +0.000 OA
ATOM      2  C   UNL     1       1.465   9.511  18.089  0.00  0.00    +0.000 C 
ATOM      3  N   UNL     1       1.712   8.278  18.699  0.00  0.00    +0.000 N 
ATOM      4  H   UNL     1       0.960   7.806  19.191  0.00  0.00    +0.000 HD
ENDROOT
BRANCH   2   5
ATOM      5  C   UNL     1       0.105  10.026  18.253  0.00  0.00    +0.000 A 
ATOM      6  C   UNL     1      -1.013   9.656  17.522  0.00  0.00    +0.000 A 
ATOM      7  C   UNL     1      -2.193  10.323  17.961  0.00  0.00    +0.000 A 
ATOM      8  C   UNL     1      -1.941  11.203  19.000  0.00  0.00    +0.000 A 
ATOM      9  S   UNL     1      -0.298  11.208  19.436  0.00  0.00    +0.000 S 
ATOM     10  C   UNL     1      -2.992  12.034  19.612  0.00  0.00    +0.000 A 
ATOM     11  C   UNL     1      -2.867  12.677  20.849  0.00  0.00    +0.000 A 
ATOM     12  C   UNL     1      -3.936  13.413  21.374  0.00  0.00    +0.000 A 
ATOM     13  C   UNL     1      -5.134  13.523  20.667  0.00  0.00    +0.000 A 
ATOM     14  C   UNL     1      -5.274  12.894  19.432  0.00  0.00    +0.000 A 
ATOM     15  C   UNL     1      -4.219  12.136  18.907  0.00  0.00    +0.000 A 
ATOM     16  C   UNL     1      -4.370  11.472  17.547  0.00  0.00    +0.000 C 
ATOM     17  C   UNL     1      -3.591  10.147  17.453  0.00  0.00    +0.000 C 
ENDBRANCH   2   5
BRANCH   3  18
ATOM     18  N   UNL     1       2.941   7.700  18.599  0.00  0.00    +0.000 NA
ATOM     19  C   UNL     1       3.043   6.627  17.885  0.00  0.00    +0.000 C 
BRANCH  19  20
ATOM     20  C   UNL     1       4.361   5.968  17.723  0.00  0.00    +0.000 A 
ATOM     21  C   UNL     1       5.044   5.493  18.855  0.00  0.00    +0.000 A 
ATOM     22  C   UNL     1       6.305   4.909  18.723  0.00  0.00    +0.000 A 
ATOM     23  C   UNL     1       6.880   4.807  17.462  0.00  0.00    +0.000 A 
ATOM     24  F   UNL     1       8.098   4.266  17.336  0.00  0.00    +0.000 F 
ATOM     25  C   UNL     1       6.197   5.268  16.339  0.00  0.00    +0.000 A 
ATOM     26  F   UNL     1       6.759   5.167  15.126  0.00  0.00    +0.000 F 
ATOM     27  C   UNL     1       4.934   5.846  16.456  0.00  0.00    +0.000 A 
ENDBRANCH  19  20
ENDBRANCH   3  18
TORSDOF 3
ENDMDL
MODEL 3
REMARK VINA RESULT:      -7.8      7.867      9.067
REMARK  Name = 
REMARK  3 active torsions:
REMARK  status: ('A' for Active; 'I' for Inactive)
REMARK    1  A    between atoms: C_2  and  C_14
REMARK    2  A    between atoms: N_3  and  N_4
REMARK    3  A    between atoms: C_5  and  C_6
REMARK                            x       y       z     vdW  Elec       q    Type
REMARK                         _______ _______ _______ _____ _____    ______ ____
ROOT
ATOM      1  O   UNL     1       1.765  10.462  19.326  0.00  0.00    +0.000 OA
ATOM      2  C   UNL     1       1.031   9.828  18.572  0.00  0.00    +0.000 C 
ATOM      3  N   UNL     1       1.451   8.685  17.886  0.00  0.00    +0.000 N 
ATOM      4  H   UNL     1       0.806   8.213  17.261  0.00  0.00    +0.000 HD
ENDROOT
BRANCH   2   5
ATOM      5  C   UNL     1      -0.357  10.224  18.331  0.00  0.00    +0.000 A 
ATOM      6  C   UNL     1      -1.176   9.785  17.302  0.00  0.00    +0.000 A 
ATOM      7  C   UNL     1      -2.486  10.339  17.378  0.00  0.00    +0.000 A 
ATOM      8  C   UNL     1      -2.627  11.206  18.449  0.00  0.00    +0.000 A 
ATOM      9  S   UNL     1      -1.190  11.333  19.348  0.00  0.00    +0.000 S 
ATOM     10  C   UNL     1      -3.879  11.929  18.728  0.00  0.00    +0.000 A 
ATOM     11  C   UNL     1      -4.178  12.544  19.950  0.00  0.00    +0.000 A 
ATOM     12  C   UNL     1      -5.414  13.174  20.140  0.00  0.00    +0.000 A 
ATOM     13  C   UNL     1      -6.358  13.205  19.113  0.00  0.00    +0.000 A 
ATOM     14  C   UNL     1      -6.075  12.603  17.889  0.00  0.00    +0.000 A 
ATOM     15  C   UNL     1      -4.851  11.950  17.694  0.00  0.00    +0.000 A 
ATOM     16  C   UNL     1      -4.539  11.316  16.347  0.00  0.00    +0.000 C 
ATOM     17  C   UNL     1      -3.654  10.064  16.481  0.00  0.00    +0.000 C 
ENDBRANCH   2   5
BRANCH   3  18
ATOM     18  N   UNL     1       2.728   8.234  18.027  0.00  0.00    +0.000 NA
ATOM     19  C   UNL     1       2.926   6.959  17.950  0.00  0.00    +0.000 C 
BRANCH  19  20
ATOM     20  C   UNL     1       4.299   6.414  18.074  0.00  0.00    +0.000 A 
ATOM     21  C   UNL     1       4.566   5.411  19.020  0.00  0.00    +0.000 A 
ATOM     22  C   UNL     1       5.862   4.918  19.179  0.00  0.00    +0.000 A 
ATOM     23  C   UNL     1       6.887   5.433  18.393  0.00  0.00    +0.000 A 
ATOM     24  F   UNL     1       8.135   4.976  18.558  0.00  0.00    +0.000 F 
ATOM     25  C   UNL     1       6.620   6.420  17.447  0.00  0.00    +0.000 A 
ATOM     26  F   UNL     1       7.614   6.912  16.695  0.00  0.00    +0.000 F 
ATOM     27  C   UNL     1       5.328   6.915  17.273  0.00  0.00    +0.000 A 
ENDBRANCH  19  20
ENDBRANCH   3  18
TORSDOF 3
ENDMDL
MODEL 4
REMARK VINA RESULT:      -7.8      7.906      9.776
REMARK  Name = 
REMARK  3 active torsions:
REMARK  status: ('A' for Active; 'I' for Inactive)
REMARK    1  A    between atoms: C_2  and  C_14
REMARK    2  A    between atoms: N_3  and  N_4
REMARK    3  A    between atoms: C_5  and  C_6
REMARK                            x       y       z     vdW  Elec       q    Type
REMARK                         _______ _______ _______ _____ _____    ______ ____
ROOT
ATOM      1  O   UNL     1       1.321   7.520  21.170  0.00  0.00    +0.000 OA
ATOM      2  C   UNL     1       1.311   8.528  20.467  0.00  0.00    +0.000 C 
ATOM      3  N   UNL     1       1.853   8.563  19.179  0.00  0.00    +0.000 N 
ATOM      4  H   UNL     1       1.832   9.430  18.653  0.00  0.00    +0.000 HD
ENDROOT
BRANCH   2   5
ATOM      5  C   UNL     1       0.721   9.786  20.929  0.00  0.00    +0.000 A 
ATOM      6  C   UNL     1       1.074  11.062  20.522  0.00  0.00    +0.000 A 
ATOM      7  C   UNL     1       0.276  12.068  21.141  0.00  0.00    +0.000 A 
ATOM      8  C   UNL     1      -0.648  11.534  22.023  0.00  0.00    +0.000 A 
ATOM      9  S   UNL     1      -0.550   9.839  22.086  0.00  0.00    +0.000 S 
ATOM     10  C   UNL     1      -1.573  12.370  22.808  0.00  0.00    +0.000 A 
ATOM     11  C   UNL     1      -2.721  11.886  23.447  0.00  0.00    +0.000 A 
ATOM     12  C   UNL     1      -3.566  12.763  24.138  0.00  0.00    +0.000 A 
ATOM     13  C   UNL     1      -3.270  14.124  24.207  0.00  0.00    +0.000 A 
ATOM     14  C   UNL     1      -2.129  14.621  23.582  0.00  0.00    +0.000 A 
ATOM     15  C   UNL     1      -1.287  13.758  22.868  0.00  0.00    +0.000 A 
ATOM     16  C   UNL     1      -0.030  14.304  22.209  0.00  0.00    +0.000 C 
ATOM     17  C   UNL     1       0.327  13.548  20.916  0.00  0.00    +0.000 C 
ENDBRANCH   2   5
BRANCH   3  18
ATOM     18  N   UNL     1       2.438   7.451  18.654  0.00  0.00    +0.000 NA
ATOM     19  C   UNL     1       3.379   7.622  17.784  0.00  0.00    +0.000 C 
BRANCH  19  20
ATOM     20  C   UNL     1       4.066   6.447  17.196  0.00  0.00    +0.000 A 
ATOM     21  C   UNL     1       5.080   6.640  16.244  0.00  0.00    +0.000 A 
ATOM     22  C   UNL     1       5.707   5.544  15.649  0.00  0.00    +0.000 A 
ATOM     23  C   UNL     1       5.314   4.259  16.007  0.00  0.00    +0.000 A 
ATOM     24  F   UNL     1       5.900   3.206  15.422  0.00  0.00    +0.000 F 
ATOM     25  C   UNL     1       4.317   4.068  16.960  0.00  0.00    +0.000 A 
ATOM     26  F   UNL     1       3.944   2.826  17.298  0.00  0.00    +0.000 F 
ATOM     27  C   UNL     1       3.688   5.155  17.567  0.00  0.00    +0.000 A 
ENDBRANCH  19  20
ENDBRANCH   3  18
TORSDOF 3
ENDMDL
MODEL 5
REMARK VINA RESULT:      -7.7      8.172     10.735
REMARK  Name = 
REMARK  3 active torsions:
REMARK  status: ('A' for Active; 'I' for Inactive)
REMARK    1  A    between atoms: C_2  and  C_14
REMARK    2  A    between atoms: N_3  and  N_4
REMARK    3  A    between atoms: C_5  and  C_6
REMARK                            x       y       z     vdW  Elec       q    Type
REMARK                         _______ _______ _______ _____ _____    ______ ____
ROOT
ATOM      1  O   UNL     1       1.555   8.969  18.532  0.00  0.00    +0.000 OA
ATOM      2  C   UNL     1       1.396   9.017  19.750  0.00  0.00    +0.000 C 
ATOM      3  N   UNL     1       1.758   7.971  20.604  0.00  0.00    +0.000 N 
ATOM      4  H   UNL     1       1.585   8.059  21.600  0.00  0.00    +0.000 HD
ENDROOT
BRANCH   2   5
ATOM      5  C   UNL     1       0.810  10.185  20.408  0.00  0.00    +0.000 A 
ATOM      6  C   UNL     1       1.157  11.511  20.201  0.00  0.00    +0.000 A 
ATOM      7  C   UNL     1       0.364  12.406  20.976  0.00  0.00    +0.000 A 
ATOM      8  C   UNL     1      -0.550  11.738  21.774  0.00  0.00    +0.000 A 
ATOM      9  S   UNL     1      -0.448  10.054  21.573  0.00  0.00    +0.000 S 
ATOM     10  C   UNL     1      -1.467  12.438  22.690  0.00  0.00    +0.000 A 
ATOM     11  C   UNL     1      -2.607  11.858  23.258  0.00  0.00    +0.000 A 
ATOM     12  C   UNL     1      -3.446  12.614  24.086  0.00  0.00    +0.000 A 
ATOM     13  C   UNL     1      -3.152  13.949  24.362  0.00  0.00    +0.000 A 
ATOM     14  C   UNL     1      -2.018  14.541  23.810  0.00  0.00    +0.000 A 
ATOM     15  C   UNL     1      -1.183  13.802  22.962  0.00  0.00    +0.000 A 
ATOM     16  C   UNL     1       0.066  14.447  22.382  0.00  0.00    +0.000 C 
ATOM     17  C   UNL     1       0.410  13.903  20.984  0.00  0.00    +0.000 C 
ENDBRANCH   2   5
BRANCH   3  18
ATOM     18  N   UNL     1       2.301   6.831  20.097  0.00  0.00    +0.000 NA
ATOM     19  C   UNL     1       1.666   5.723  20.296  0.00  0.00    +0.000 C 
BRANCH  19  20
ATOM     20  C   UNL     1       2.199   4.453  19.747  0.00  0.00    +0.000 A 
ATOM     21  C   UNL     1       1.662   3.929  18.560  0.00  0.00    +0.000 A 
ATOM     22  C   UNL     1       2.124   2.713  18.053  0.00  0.00    +0.000 A 
ATOM     23  C   UNL     1       3.119   2.025  18.738  0.00  0.00    +0.000 A 
ATOM     24  F   UNL     1       3.549   0.848  18.265  0.00  0.00    +0.000 F 
ATOM     25  C   UNL     1       3.660   2.551  19.909  0.00  0.00    +0.000 A 
ATOM     26  F   UNL     1       4.618   1.880  20.563  0.00  0.00    +0.000 F 
ATOM     27  C   UNL     1       3.212   3.768  20.421  0.00  0.00    +0.000 A 
ENDBRANCH  19  20
ENDBRANCH   3  18
TORSDOF 3
ENDMDL
MODEL 6
REMARK VINA RESULT:      -7.7      7.696      9.490
REMARK  Name = 
REMARK  3 active torsions:
REMARK  status: ('A' for Active; 'I' for Inactive)
REMARK    1  A    between atoms: C_2  and  C_14
REMARK    2  A    between atoms: N_3  and  N_4
REMARK    3  A    between atoms: C_5  and  C_6
REMARK                            x       y       z     vdW  Elec       q    Type
REMARK                         _______ _______ _______ _____ _____    ______ ____
ROOT
ATOM      1  O   UNL     1       0.429  10.421  18.560  0.00  0.00    +0.000 OA
ATOM      2  C   UNL     1       0.868   9.692  19.447  0.00  0.00    +0.000 C 
ATOM      3  N   UNL     1       0.558   9.867  20.798  0.00  0.00    +0.000 N 
ATOM      4  H   UNL     1       0.966   9.245  21.488  0.00  0.00    +0.000 HD
ENDROOT
BRANCH   2   5
ATOM      5  C   UNL     1       1.761   8.570  19.153  0.00  0.00    +0.000 A 
ATOM      6  C   UNL     1       1.931   7.427  19.918  0.00  0.00    +0.000 A 
ATOM      7  C   UNL     1       2.851   6.512  19.327  0.00  0.00    +0.000 A 
ATOM      8  C   UNL     1       3.377   6.992  18.140  0.00  0.00    +0.000 A 
ATOM      9  S   UNL     1       2.754   8.523  17.749  0.00  0.00    +0.000 S 
ATOM     10  C   UNL     1       4.371   6.244  17.351  0.00  0.00    +0.000 A 
ATOM     11  C   UNL     1       4.682   6.517  16.014  0.00  0.00    +0.000 A 
ATOM     12  C   UNL     1       5.612   5.725  15.329  0.00  0.00    +0.000 A 
ATOM     13  C   UNL     1       6.247   4.663  15.973  0.00  0.00    +0.000 A 
ATOM     14  C   UNL     1       5.954   4.381  17.305  0.00  0.00    +0.000 A 
ATOM     15  C   UNL     1       5.008   5.151  17.994  0.00  0.00    +0.000 A 
ATOM     16  C   UNL     1       4.711   4.852  19.456  0.00  0.00    +0.000 C 
ATOM     17  C   UNL     1       3.249   5.158  19.829  0.00  0.00    +0.000 C 
ENDBRANCH   2   5
BRANCH   3  18
ATOM     18  N   UNL     1      -0.255  10.889  21.185  0.00  0.00    +0.000 NA
ATOM     19  C   UNL     1      -0.583  10.954  22.434  0.00  0.00    +0.000 C 
BRANCH  19  20
ATOM     20  C   UNL     1      -1.447  12.058  22.916  0.00  0.00    +0.000 A 
ATOM     21  C   UNL     1      -0.962  13.376  22.905  0.00  0.00    +0.000 A 
ATOM     22  C   UNL     1      -1.748  14.421  23.395  0.00  0.00    +0.000 A 
ATOM     23  C   UNL     1      -3.013  14.142  23.899  0.00  0.00    +0.000 A 
ATOM     24  F   UNL     1      -3.760  15.140  24.389  0.00  0.00    +0.000 F 
ATOM     25  C   UNL     1      -3.498  12.836  23.899  0.00  0.00    +0.000 A 
ATOM     26  F   UNL     1      -4.719  12.576  24.388  0.00  0.00    +0.000 F 
ATOM     27  C   UNL     1      -2.726  11.785  23.405  0.00  0.00    +0.000 A 
ENDBRANCH  19  20
ENDBRANCH   3  18
TORSDOF 3
ENDMDL
MODEL 7
REMARK VINA RESULT:      -7.7      8.301     10.817
REMARK  Name = 
REMARK  3 active torsions:
REMARK  status: ('A' for Active; 'I' for Inactive)
REMARK    1  A    between atoms: C_2  and  C_14
REMARK    2  A    between atoms: N_3  and  N_4
REMARK    3  A    between atoms: C_5  and  C_6
REMARK                            x       y       z     vdW  Elec       q    Type
REMARK                         _______ _______ _______ _____ _____    ______ ____
ROOT
ATOM      1  O   UNL     1       1.417   9.142  18.738  0.00  0.00    +0.000 OA
ATOM      2  C   UNL     1       1.239   9.177  19.954  0.00  0.00    +0.000 C 
ATOM      3  N   UNL     1       1.574   8.118  20.802  0.00  0.00    +0.000 N 
ATOM      4  H   UNL     1       1.386   8.197  21.795  0.00  0.00    +0.000 HD
ENDROOT
BRANCH   2   5
ATOM      5  C   UNL     1       0.654  10.345  20.615  0.00  0.00    +0.000 A 
ATOM      6  C   UNL     1       1.016  11.669  20.426  0.00  0.00    +0.000 A 
ATOM      7  C   UNL     1       0.221  12.564  21.199  0.00  0.00    +0.000 A 
ATOM      8  C   UNL     1      -0.710  11.897  21.978  0.00  0.00    +0.000 A 
ATOM      9  S   UNL     1      -0.621  10.214  21.761  0.00  0.00    +0.000 S 
ATOM     10  C   UNL     1      -1.634  12.597  22.887  0.00  0.00    +0.000 A 
ATOM     11  C   UNL     1      -2.787  12.021  23.434  0.00  0.00    +0.000 A 
ATOM     12  C   UNL     1      -3.630  12.777  24.257  0.00  0.00    +0.000 A 
ATOM     13  C   UNL     1      -3.327  14.107  24.551  0.00  0.00    +0.000 A 
ATOM     14  C   UNL     1      -2.181  14.693  24.020  0.00  0.00    +0.000 A 
ATOM     15  C   UNL     1      -1.341  13.955  23.177  0.00  0.00    +0.000 A 
ATOM     16  C   UNL     1      -0.078  14.594  22.620  0.00  0.00    +0.000 C 
ATOM     17  C   UNL     1       0.280  14.060  21.222  0.00  0.00    +0.000 C 
ENDBRANCH   2   5
BRANCH   3  18
ATOM     18  N   UNL     1       2.113   6.977  20.291  0.00  0.00    +0.000 NA
ATOM     19  C   UNL     1       1.503   5.864  20.533  0.00  0.00    +0.000 C 
BRANCH  19  20
ATOM     20  C   UNL     1       2.034   4.594  19.983  0.00  0.00    +0.000 A 
ATOM     21  C   UNL     1       2.623   3.655  20.845  0.00  0.00    +0.000 A 
ATOM     22  C   UNL     1       3.166   2.474  20.336  0.00  0.00    +0.000 A 
ATOM     23  C   UNL     1       3.120   2.238  18.967  0.00  0.00    +0.000 A 
ATOM     24  F   UNL     1       3.658   1.115  18.475  0.00  0.00    +0.000 F 
ATOM     25  C   UNL     1       2.524   3.164  18.114  0.00  0.00    +0.000 A 
ATOM     26  F   UNL     1       2.485   2.929  16.795  0.00  0.00    +0.000 F 
ATOM     27  C   UNL     1       1.972   4.344  18.610  0.00  0.00    +0.000 A 
ENDBRANCH  19  20
ENDBRANCH   3  18
TORSDOF 3
ENDMDL
MODEL 8
REMARK VINA RESULT:      -7.7      7.656      9.733
REMARK  Name = 
REMARK  3 active torsions:
REMARK  status: ('A' for Active; 'I' for Inactive)
REMARK    1  A    between atoms: C_2  and  C_14
REMARK    2  A    between atoms: N_3  and  N_4
REMARK    3  A    between atoms: C_5  and  C_6
REMARK                            x       y       z     vdW  Elec       q    Type
REMARK                         _______ _______ _______ _____ _____    ______ ____
ROOT
ATOM      1  O   UNL     1       1.484   9.552  17.674  0.00  0.00    +0.000 OA
ATOM      2  C   UNL     1       1.397   9.188  18.845  0.00  0.00    +0.000 C 
ATOM      3  N   UNL     1       1.839   7.938  19.287  0.00  0.00    +0.000 N 
ATOM      4  H   UNL     1       1.724   7.686  20.263  0.00  0.00    +0.000 HD
ENDROOT
BRANCH   2   5
ATOM      5  C   UNL     1       0.818  10.046  19.879  0.00  0.00    +0.000 A 
ATOM      6  C   UNL     1       0.055   9.637  20.961  0.00  0.00    +0.000 A 
ATOM      7  C   UNL     1      -0.323  10.724  21.801  0.00  0.00    +0.000 A 
ATOM      8  C   UNL     1       0.140  11.939  21.324  0.00  0.00    +0.000 A 
ATOM      9  S   UNL     1       1.026  11.753  19.886  0.00  0.00    +0.000 S 
ATOM     10  C   UNL     1      -0.141  13.218  21.999  0.00  0.00    +0.000 A 
ATOM     11  C   UNL     1       0.558  14.406  21.757  0.00  0.00    +0.000 A 
ATOM     12  C   UNL     1       0.250  15.566  22.477  0.00  0.00    +0.000 A 
ATOM     13  C   UNL     1      -0.763  15.555  23.437  0.00  0.00    +0.000 A 
ATOM     14  C   UNL     1      -1.473  14.383  23.686  0.00  0.00    +0.000 A 
ATOM     15  C   UNL     1      -1.158  13.210  22.988  0.00  0.00    +0.000 A 
ATOM     16  C   UNL     1      -1.954  11.940  23.248  0.00  0.00    +0.000 C 
ATOM     17  C   UNL     1      -1.099  10.670  23.081  0.00  0.00    +0.000 C 
ENDBRANCH   2   5
BRANCH   3  18
ATOM     18  N   UNL     1       2.384   7.055  18.406  0.00  0.00    +0.000 NA
ATOM     19  C   UNL     1       3.667   7.079  18.248  0.00  0.00    +0.000 C 
BRANCH  19  20
ATOM     20  C   UNL     1       4.316   6.124  17.318  0.00  0.00    +0.000 A 
ATOM     21  C   UNL     1       5.027   6.610  16.208  0.00  0.00    +0.000 A 
ATOM     22  C   UNL     1       5.607   5.723  15.299  0.00  0.00    +0.000 A 
ATOM     23  C   UNL     1       5.471   4.355  15.503  0.00  0.00    +0.000 A 
ATOM     24  F   UNL     1       6.010   3.503  14.621  0.00  0.00    +0.000 F 
ATOM     25  C   UNL     1       4.777   3.874  16.611  0.00  0.00    +0.000 A 
ATOM     26  F   UNL     1       4.650   2.553  16.798  0.00  0.00    +0.000 F 
ATOM     27  C   UNL     1       4.199   4.749  17.529  0.00  0.00    +0.000 A 
ENDBRANCH  19  20
ENDBRANCH   3  18
TORSDOF 3
ENDMDL
MODEL 9
REMARK VINA RESULT:      -7.7      7.847      9.333
REMARK  Name = 
REMARK  3 active torsions:
REMARK  status: ('A' for Active; 'I' for Inactive)
REMARK    1  A    between atoms: C_2  and  C_14
REMARK    2  A    between atoms: N_3  and  N_4
REMARK    3  A    between atoms: C_5  and  C_6
REMARK                            x       y       z     vdW  Elec       q    Type
REMARK                         _______ _______ _______ _____ _____    ______ ____
ROOT
ATOM      1  O   UNL     1       2.488  11.007  18.145  0.00  0.00    +0.000 OA
ATOM      2  C   UNL     1       1.455  10.342  18.178  0.00  0.00    +0.000 C 
ATOM      3  N   UNL     1       1.414   8.983  17.854  0.00  0.00    +0.000 N 
ATOM      4  H   UNL     1       0.528   8.491  17.881  0.00  0.00    +0.000 HD
ENDROOT
BRANCH   2   5
ATOM      5  C   UNL     1       0.170  10.930  18.563  0.00  0.00    +0.000 A 
ATOM      6  C   UNL     1      -0.027  11.977  19.449  0.00  0.00    +0.000 A 
ATOM      7  C   UNL     1      -1.402  12.330  19.573  0.00  0.00    +0.000 A 
ATOM      8  C   UNL     1      -2.220  11.527  18.798  0.00  0.00    +0.000 A 
ATOM      9  S   UNL     1      -1.327  10.371  17.929  0.00  0.00    +0.000 S 
ATOM     10  C   UNL     1      -3.686  11.673  18.773  0.00  0.00    +0.000 A 
ATOM     11  C   UNL     1      -4.515  11.128  17.786  0.00  0.00    +0.000 A 
ATOM     12  C   UNL     1      -5.897  11.354  17.820  0.00  0.00    +0.000 A 
ATOM     13  C   UNL     1      -6.464  12.116  18.842  0.00  0.00    +0.000 A 
ATOM     14  C   UNL     1      -5.654  12.662  19.835  0.00  0.00    +0.000 A 
ATOM     15  C   UNL     1      -4.268  12.462  19.799  0.00  0.00    +0.000 A 
ATOM     16  C   UNL     1      -3.393  13.040  20.901  0.00  0.00    +0.000 C 
ATOM     17  C   UNL     1      -1.996  13.436  20.390  0.00  0.00    +0.000 C 
ENDBRANCH   2   5
BRANCH   3  18
ATOM     18  N   UNL     1       2.550   8.338  17.470  0.00  0.00    +0.000 NA
ATOM     19  C   UNL     1       2.798   7.188  18.005  0.00  0.00    +0.000 C 
BRANCH  19  20
ATOM     20  C   UNL     1       4.008   6.431  17.607  0.00  0.00    +0.000 A 
ATOM     21  C   UNL     1       3.925   5.045  17.400  0.00  0.00    +0.000 A 
ATOM     22  C   UNL     1       5.064   4.311  17.067  0.00  0.00    +0.000 A 
ATOM     23  C   UNL     1       6.284   4.967  16.947  0.00  0.00    +0.000 A 
ATOM     24  F   UNL     1       7.383   4.261  16.647  0.00  0.00    +0.000 F 
ATOM     25  C   UNL     1       6.365   6.344  17.140  0.00  0.00    +0.000 A 
ATOM     26  F   UNL     1       7.545   6.967  17.024  0.00  0.00    +0.000 F 
ATOM     27  C   UNL     1       5.232   7.089  17.466  0.00  0.00    +0.000 A 
ENDBRANCH  19  20
ENDBRANCH   3  18
TORSDOF 3
ENDMDL
