MODEL 1
REMARK VINA RESULT:      -8.5      0.000      0.000
REMARK  Name = 
REMARK  6 active torsions:
REMARK  status: ('A' for Active; 'I' for Inactive)
REMARK    1  A    between atoms: C_2  and  C_3
REMARK    2  A    between atoms: C_6  and  C_7
REMARK    3  A    between atoms: C_7  and  C_8
REMARK    4  A    between atoms: C_8  and  N_9
REMARK    5  A    between atoms: C_10  and  C_12
REMARK    6  A    between atoms: C_15  and  C_16
REMARK                            x       y       z     vdW  Elec       q    Type
REMARK                         _______ _______ _______ _____ _____    ______ ____
ROOT
ATOM      1  C   UNL     1       0.964   9.622  21.135  0.00  0.00    +0.000 C 
ATOM      2  C   UNL     1       0.782   8.129  21.442  0.00  0.00    +0.000 C 
ATOM      3  C   UNL     1       1.759   7.248  20.642  0.00  0.00    +0.000 C 
ATOM      4  C   UNL     1       1.684   7.492  19.118  0.00  0.00    +0.000 C 
ATOM      5  C   UNL     1       1.796   8.995  18.829  0.00  0.00    +0.000 C 
ATOM      6  C   UNL     1       0.849   9.865  19.628  0.00  0.00    +0.000 C 
ENDROOT
BRANCH   4   7
ATOM      7  C   UNL     1       2.773   6.793  18.354  0.00  0.00    +0.000 A 
ATOM      8  N   UNL     1       3.732   7.536  17.678  0.00  0.00    +0.000 NA
ATOM      9  N   UNL     1       4.519   6.715  16.988  0.00  0.00    +0.000 NA
ATOM     10  N   UNL     1       4.064   5.472  17.203  0.00  0.00    +0.000 N 
ATOM     11  C   UNL     1       4.619   4.325  16.624  0.00  0.00    +0.000 A 
ATOM     12  N   UNL     1       4.125   3.127  16.841  0.00  0.00    +0.000 NA
ATOM     13  C   UNL     1       3.035   3.110  17.666  0.00  0.00    +0.000 A 
ATOM     14  N   UNL     1       2.374   1.961  18.000  0.00  0.00    +0.000 N 
ATOM     15  C   UNL     1       1.326   2.269  18.839  0.00  0.00    +0.000 A 
ATOM     16  C   UNL     1       1.316   3.638  19.050  0.00  0.00    +0.000 A 
ATOM     17  C   UNL     1       2.386   4.156  18.307  0.00  0.00    +0.000 A 
ATOM     18  C   UNL     1       2.979   5.471  18.042  0.00  0.00    +0.000 A 
ATOM     19  H   UNL     1       2.632   1.041  17.673  0.00  0.00    +0.000 HD
ENDBRANCH   4   7
BRANCH   1  21
ATOM     20  N   UNL     1      -0.895  11.235  21.000  0.00  0.00    +0.000 N 
ATOM     21  C   UNL     1      -0.039  10.547  21.825  0.00  0.00    +0.000 C 
ATOM     22  O   UNL     1      -0.133  10.625  23.049  0.00  0.00    +0.000 OA
ATOM     23  H   UNL     1      -0.756  11.231  19.997  0.00  0.00    +0.000 HD
BRANCH  20  24
ATOM     24  C   UNL     1      -1.923  12.064  21.604  0.00  0.00    +0.000 C 
BRANCH  24  25
ATOM     25  C   UNL     1      -2.602  12.981  20.600  0.00  0.00    +0.000 C 
BRANCH  25  29
ATOM     26  C   UNL     1      -3.289  11.107  16.771  0.00  0.00    +0.000 A 
ATOM     27  C   UNL     1      -4.345  11.283  17.667  0.00  0.00    +0.000 A 
ATOM     28  C   UNL     1      -4.113  11.878  18.911  0.00  0.00    +0.000 A 
ATOM     29  C   UNL     1      -2.827  12.310  19.266  0.00  0.00    +0.000 A 
ATOM     30  C   UNL     1      -1.772  12.106  18.365  0.00  0.00    +0.000 A 
ATOM     31  C   UNL     1      -2.002  11.513  17.126  0.00  0.00    +0.000 A 
BRANCH  26  33
ATOM     32  N   UNL     1      -3.736  10.030  14.438  0.00  0.00    +0.000 NA
ATOM     33  C   UNL     1      -3.534  10.515  15.479  0.00  0.00    +0.000 C 
ENDBRANCH  26  33
ENDBRANCH  25  29
ENDBRANCH  24  25
ENDBRANCH  20  24
ENDBRANCH   1  21
TORSDOF 6
ENDMDL
MODEL 2
REMARK VINA RESULT:      -8.5      2.684      9.239
REMARK  Name = 
REMARK  6 active torsions:
REMARK  status: ('A' for Active; 'I' for Inactive)
REMARK    1  A    between atoms: C_2  and  C_3
REMARK    2  A    between atoms: C_6  and  C_7
REMARK    3  A    between atoms: C_7  and  C_8
REMARK    4  A    between atoms: C_8  and  N_9
REMARK    5  A    between atoms: C_10  and  C_12
REMARK    6  A    between atoms: C_15  and  C_16
REMARK                            x       y       z     vdW  Elec       q    Type
REMARK                         _______ _______ _______ _____ _____    ______ ____
ROOT
ATOM      1  C   UNL     1       2.790   6.753  19.401  0.00  0.00    +0.000 C 
ATOM      2  C   UNL     1       2.226   7.557  18.222  0.00  0.00    +0.000 C 
ATOM      3  C   UNL     1       1.715   8.943  18.655  0.00  0.00    +0.000 C 
ATOM      4  C   UNL     1       0.677   8.875  19.798  0.00  0.00    +0.000 C 
ATOM      5  C   UNL     1       1.223   8.010  20.942  0.00  0.00    +0.000 C 
ATOM      6  C   UNL     1       1.744   6.653  20.515  0.00  0.00    +0.000 C 
ENDROOT
BRANCH   4   7
ATOM      7  C   UNL     1       0.332  10.223  20.364  0.00  0.00    +0.000 A 
ATOM      8  N   UNL     1       1.041  10.720  21.450  0.00  0.00    +0.000 NA
ATOM      9  N   UNL     1       0.493  11.866  21.845  0.00  0.00    +0.000 NA
ATOM     10  N   UNL     1      -0.556  12.091  21.041  0.00  0.00    +0.000 N 
ATOM     11  C   UNL     1      -1.408  13.196  21.156  0.00  0.00    +0.000 A 
ATOM     12  N   UNL     1      -2.441  13.364  20.363  0.00  0.00    +0.000 NA
ATOM     13  C   UNL     1      -2.603  12.373  19.434  0.00  0.00    +0.000 A 
ATOM     14  N   UNL     1      -3.627  12.364  18.529  0.00  0.00    +0.000 N 
ATOM     15  C   UNL     1      -3.520  11.244  17.735  0.00  0.00    +0.000 A 
ATOM     16  C   UNL     1      -2.407  10.523  18.136  0.00  0.00    +0.000 A 
ATOM     17  C   UNL     1      -1.844  11.235  19.203  0.00  0.00    +0.000 A 
ATOM     18  C   UNL     1      -0.697  11.097  20.107  0.00  0.00    +0.000 A 
ATOM     19  H   UNL     1      -4.339  13.079  18.467  0.00  0.00    +0.000 HD
ENDBRANCH   4   7
BRANCH   1  21
ATOM     20  N   UNL     1       3.185   4.985  17.730  0.00  0.00    +0.000 N 
ATOM     21  C   UNL     1       3.228   5.329  19.058  0.00  0.00    +0.000 C 
ATOM     22  O   UNL     1       3.666   4.550  19.904  0.00  0.00    +0.000 OA
ATOM     23  H   UNL     1       2.745   5.598  17.055  0.00  0.00    +0.000 HD
BRANCH  20  24
ATOM     24  C   UNL     1       3.669   3.673  17.337  0.00  0.00    +0.000 C 
BRANCH  24  25
ATOM     25  C   UNL     1       5.025   3.729  16.654  0.00  0.00    +0.000 C 
BRANCH  25  29
ATOM     26  C   UNL     1       7.292   7.264  17.655  0.00  0.00    +0.000 A 
ATOM     27  C   UNL     1       7.536   6.062  18.320  0.00  0.00    +0.000 A 
ATOM     28  C   UNL     1       6.789   4.924  18.001  0.00  0.00    +0.000 A 
ATOM     29  C   UNL     1       5.799   4.976  17.009  0.00  0.00    +0.000 A 
ATOM     30  C   UNL     1       5.550   6.197  16.365  0.00  0.00    +0.000 A 
ATOM     31  C   UNL     1       6.294   7.331  16.683  0.00  0.00    +0.000 A 
BRANCH  26  33
ATOM     32  N   UNL     1       8.720   9.375  18.211  0.00  0.00    +0.000 NA
ATOM     33  C   UNL     1       8.080   8.432  17.968  0.00  0.00    +0.000 C 
ENDBRANCH  26  33
ENDBRANCH  25  29
ENDBRANCH  24  25
ENDBRANCH  20  24
ENDBRANCH   1  21
TORSDOF 6
ENDMDL
MODEL 3
REMARK VINA RESULT:      -8.4      1.779      2.151
REMARK  Name = 
REMARK  6 active torsions:
REMARK  status: ('A' for Active; 'I' for Inactive)
REMARK    1  A    between atoms: C_2  and  C_3
REMARK    2  A    between atoms: C_6  and  C_7
REMARK    3  A    between atoms: C_7  and  C_8
REMARK    4  A    between atoms: C_8  and  N_9
REMARK    5  A    between atoms: C_10  and  C_12
REMARK    6  A    between atoms: C_15  and  C_16
REMARK                            x       y       z     vdW  Elec       q    Type
REMARK                         _______ _______ _______ _____ _____    ______ ____
ROOT
ATOM      1  C   UNL     1       0.879  10.494  19.333  0.00  0.00    +0.000 C 
ATOM      2  C   UNL     1       0.686   9.371  20.362  0.00  0.00    +0.000 C 
ATOM      3  C   UNL     1       1.772   8.286  20.247  0.00  0.00    +0.000 C 
ATOM      4  C   UNL     1       1.887   7.692  18.825  0.00  0.00    +0.000 C 
ATOM      5  C   UNL     1       2.008   8.827  17.800  0.00  0.00    +0.000 C 
ATOM      6  C   UNL     1       0.952   9.905  17.922  0.00  0.00    +0.000 C 
ENDROOT
BRANCH   4   7
ATOM      7  C   UNL     1       3.076   6.789  18.656  0.00  0.00    +0.000 A 
ATOM      8  N   UNL     1       4.068   7.114  17.740  0.00  0.00    +0.000 NA
ATOM      9  N   UNL     1       4.954   6.123  17.683  0.00  0.00    +0.000 NA
ATOM     10  N   UNL     1       4.531   5.176  18.532  0.00  0.00    +0.000 N 
ATOM     11  C   UNL     1       5.190   3.957  18.736  0.00  0.00    +0.000 A 
ATOM     12  N   UNL     1       4.726   3.045  19.558  0.00  0.00    +0.000 NA
ATOM     13  C   UNL     1       3.558   3.390  20.180  0.00  0.00    +0.000 A 
ATOM     14  N   UNL     1       2.914   2.568  21.062  0.00  0.00    +0.000 N 
ATOM     15  C   UNL     1       1.774   3.193  21.515  0.00  0.00    +0.000 A 
ATOM     16  C   UNL     1       1.686   4.440  20.917  0.00  0.00    +0.000 A 
ATOM     17  C   UNL     1       2.804   4.552  20.080  0.00  0.00    +0.000 A 
ATOM     18  C   UNL     1       3.367   5.543  19.157  0.00  0.00    +0.000 A 
ATOM     19  H   UNL     1       3.242   1.649  21.327  0.00  0.00    +0.000 HD
ENDBRANCH   4   7
BRANCH   1  21
ATOM     20  N   UNL     1      -1.495  11.112  19.577  0.00  0.00    +0.000 N 
ATOM     21  C   UNL     1      -0.220  11.557  19.327  0.00  0.00    +0.000 C 
ATOM     22  O   UNL     1       0.020  12.755  19.181  0.00  0.00    +0.000 OA
ATOM     23  H   UNL     1      -1.695  10.121  19.612  0.00  0.00    +0.000 HD
BRANCH  20  24
ATOM     24  C   UNL     1      -2.565  12.091  19.667  0.00  0.00    +0.000 C 
BRANCH  24  25
ATOM     25  C   UNL     1      -3.848  11.617  19.003  0.00  0.00    +0.000 C 
BRANCH  25  29
ATOM     26  C   UNL     1      -3.166  10.166  14.995  0.00  0.00    +0.000 A 
ATOM     27  C   UNL     1      -4.068  11.206  15.221  0.00  0.00    +0.000 A 
ATOM     28  C   UNL     1      -4.295  11.662  16.523  0.00  0.00    +0.000 A 
ATOM     29  C   UNL     1      -3.616  11.089  17.607  0.00  0.00    +0.000 A 
ATOM     30  C   UNL     1      -2.729  10.029  17.367  0.00  0.00    +0.000 A 
ATOM     31  C   UNL     1      -2.503   9.574  16.071  0.00  0.00    +0.000 A 
BRANCH  26  33
ATOM     32  N   UNL     1      -2.716   9.337  12.562  0.00  0.00    +0.000 NA
ATOM     33  C   UNL     1      -2.914   9.712  13.648  0.00  0.00    +0.000 C 
ENDBRANCH  26  33
ENDBRANCH  25  29
ENDBRANCH  24  25
ENDBRANCH  20  24
ENDBRANCH   1  21
TORSDOF 6
ENDMDL
MODEL 4
REMARK VINA RESULT:      -8.4      2.809      8.928
REMARK  Name = 
REMARK  6 active torsions:
REMARK  status: ('A' for Active; 'I' for Inactive)
REMARK    1  A    between atoms: C_2  and  C_3
REMARK    2  A    between atoms: C_6  and  C_7
REMARK    3  A    between atoms: C_7  and  C_8
REMARK    4  A    between atoms: C_8  and  N_9
REMARK    5  A    between atoms: C_10  and  C_12
REMARK    6  A    between atoms: C_15  and  C_16
REMARK                            x       y       z     vdW  Elec       q    Type
REMARK                         _______ _______ _______ _____ _____    ______ ____
ROOT
ATOM      1  C   UNL     1       2.220   6.919  19.881  0.00  0.00    +0.000 C 
ATOM      2  C   UNL     1       2.245   7.153  18.364  0.00  0.00    +0.000 C 
ATOM      3  C   UNL     1       2.329   8.649  18.008  0.00  0.00    +0.000 C 
ATOM      4  C   UNL     1       1.207   9.489  18.659  0.00  0.00    +0.000 C 
ATOM      5  C   UNL     1       1.146   9.193  20.163  0.00  0.00    +0.000 C 
ATOM      6  C   UNL     1       1.081   7.722  20.516  0.00  0.00    +0.000 C 
ENDROOT
BRANCH   4   7
ATOM      7  C   UNL     1       1.403  10.970  18.488  0.00  0.00    +0.000 A 
ATOM      8  N   UNL     1       2.621  11.459  18.035  0.00  0.00    +0.000 NA
ATOM      9  N   UNL     1       2.601  12.789  18.069  0.00  0.00    +0.000 NA
ATOM     10  N   UNL     1       1.401  13.145  18.549  0.00  0.00    +0.000 N 
ATOM     11  C   UNL     1       1.003  14.471  18.757  0.00  0.00    +0.000 A 
ATOM     12  N   UNL     1      -0.173  14.775  19.256  0.00  0.00    +0.000 NA
ATOM     13  C   UNL     1      -0.955  13.692  19.549  0.00  0.00    +0.000 A 
ATOM     14  N   UNL     1      -2.207  13.804  20.086  0.00  0.00    +0.000 N 
ATOM     15  C   UNL     1      -2.737  12.546  20.267  0.00  0.00    +0.000 A 
ATOM     16  C   UNL     1      -1.811  11.610  19.836  0.00  0.00    +0.000 A 
ATOM     17  C   UNL     1      -0.698  12.337  19.394  0.00  0.00    +0.000 A 
ATOM     18  C   UNL     1       0.624  12.049  18.826  0.00  0.00    +0.000 A 
ATOM     19  H   UNL     1      -2.656  14.682  20.307  0.00  0.00    +0.000 HD
ENDBRANCH   4   7
BRANCH   1  21
ATOM     20  N   UNL     1       1.570   4.604  19.339  0.00  0.00    +0.000 N 
ATOM     21  C   UNL     1       2.041   5.461  20.304  0.00  0.00    +0.000 C 
ATOM     22  O   UNL     1       2.364   5.051  21.418  0.00  0.00    +0.000 OA
ATOM     23  H   UNL     1       1.228   4.962  18.457  0.00  0.00    +0.000 HD
BRANCH  20  24
ATOM     24  C   UNL     1       1.460   3.192  19.662  0.00  0.00    +0.000 C 
BRANCH  24  25
ATOM     25  C   UNL     1       2.540   2.353  18.996  0.00  0.00    +0.000 C 
BRANCH  25  29
ATOM     26  C   UNL     1       5.651   4.726  17.172  0.00  0.00    +0.000 A 
ATOM     27  C   UNL     1       5.727   4.388  18.524  0.00  0.00    +0.000 A 
ATOM     28  C   UNL     1       4.709   3.630  19.112  0.00  0.00    +0.000 A 
ATOM     29  C   UNL     1       3.613   3.198  18.352  0.00  0.00    +0.000 A 
ATOM     30  C   UNL     1       3.538   3.566  17.001  0.00  0.00    +0.000 A 
ATOM     31  C   UNL     1       4.552   4.320  16.415  0.00  0.00    +0.000 A 
BRANCH  26  33
ATOM     32  N   UNL     1       7.565   6.106  16.060  0.00  0.00    +0.000 NA
ATOM     33  C   UNL     1       6.713   5.487  16.560  0.00  0.00    +0.000 C 
ENDBRANCH  26  33
ENDBRANCH  25  29
ENDBRANCH  24  25
ENDBRANCH  20  24
ENDBRANCH   1  21
TORSDOF 6
ENDMDL
MODEL 5
REMARK VINA RESULT:      -8.4      3.025      4.367
REMARK  Name = 
REMARK  6 active torsions:
REMARK  status: ('A' for Active; 'I' for Inactive)
REMARK    1  A    between atoms: C_2  and  C_3
REMARK    2  A    between atoms: C_6  and  C_7
REMARK    3  A    between atoms: C_7  and  C_8
REMARK    4  A    between atoms: C_8  and  N_9
REMARK    5  A    between atoms: C_10  and  C_12
REMARK    6  A    between atoms: C_15  and  C_16
REMARK                            x       y       z     vdW  Elec       q    Type
REMARK                         _______ _______ _______ _____ _____    ______ ____
ROOT
ATOM      1  C   UNL     1       0.480   9.978  18.883  0.00  0.00    +0.000 C 
ATOM      2  C   UNL     1       1.598   9.481  17.956  0.00  0.00    +0.000 C 
ATOM      3  C   UNL     1       1.926   7.995  18.187  0.00  0.00    +0.000 C 
ATOM      4  C   UNL     1       2.271   7.673  19.659  0.00  0.00    +0.000 C 
ATOM      5  C   UNL     1       1.181   8.237  20.580  0.00  0.00    +0.000 C 
ATOM      6  C   UNL     1       0.844   9.694  20.342  0.00  0.00    +0.000 C 
ENDROOT
BRANCH   4   7
ATOM      7  C   UNL     1       2.387   6.199  19.930  0.00  0.00    +0.000 A 
ATOM      8  N   UNL     1       1.457   5.571  20.748  0.00  0.00    +0.000 NA
ATOM      9  N   UNL     1       1.821   4.304  20.934  0.00  0.00    +0.000 NA
ATOM     10  N   UNL     1       2.968   4.129  20.263  0.00  0.00    +0.000 N 
ATOM     11  C   UNL     1       3.682   2.925  20.235  0.00  0.00    +0.000 A 
ATOM     12  N   UNL     1       4.817   2.804  19.585  0.00  0.00    +0.000 NA
ATOM     13  C   UNL     1       5.228   3.946  18.955  0.00  0.00    +0.000 A 
ATOM     14  N   UNL     1       6.390   4.022  18.239  0.00  0.00    +0.000 N 
ATOM     15  C   UNL     1       6.526   5.295  17.730  0.00  0.00    +0.000 A 
ATOM     16  C   UNL     1       5.431   6.047  18.123  0.00  0.00    +0.000 A 
ATOM     17  C   UNL     1       4.628   5.196  18.894  0.00  0.00    +0.000 A 
ATOM     18  C   UNL     1       3.360   5.278  19.626  0.00  0.00    +0.000 A 
ATOM     19  H   UNL     1       7.033   3.253  18.114  0.00  0.00    +0.000 HD
ENDBRANCH   4   7
BRANCH   1  21
ATOM     20  N   UNL     1       1.129  12.327  19.253  0.00  0.00    +0.000 N 
ATOM     21  C   UNL     1       0.169  11.471  18.772  0.00  0.00    +0.000 C 
ATOM     22  O   UNL     1      -0.846  11.896  18.222  0.00  0.00    +0.000 OA
ATOM     23  H   UNL     1       1.917  11.971  19.778  0.00  0.00    +0.000 HD
BRANCH  20  24
ATOM     24  C   UNL     1       0.923  13.756  19.097  0.00  0.00    +0.000 C 
BRANCH  24  25
ATOM     25  C   UNL     1       0.762  14.473  20.429  0.00  0.00    +0.000 C 
BRANCH  25  29
ATOM     26  C   UNL     1      -2.805  13.199  22.500  0.00  0.00    +0.000 A 
ATOM     27  C   UNL     1      -2.901  13.819  21.254  0.00  0.00    +0.000 A 
ATOM     28  C   UNL     1      -1.742  14.242  20.594  0.00  0.00    +0.000 A 
ATOM     29  C   UNL     1      -0.480  14.040  21.170  0.00  0.00    +0.000 A 
ATOM     30  C   UNL     1      -0.402  13.436  22.434  0.00  0.00    +0.000 A 
ATOM     31  C   UNL     1      -1.555  13.015  23.091  0.00  0.00    +0.000 A 
BRANCH  26  33
ATOM     32  N   UNL     1      -4.963  12.362  23.704  0.00  0.00    +0.000 NA
ATOM     33  C   UNL     1      -3.999  12.741  23.169  0.00  0.00    +0.000 C 
ENDBRANCH  26  33
ENDBRANCH  25  29
ENDBRANCH  24  25
ENDBRANCH  20  24
ENDBRANCH   1  21
TORSDOF 6
ENDMDL
MODEL 6
REMARK VINA RESULT:      -8.3      2.801      4.370
REMARK  Name = 
REMARK  6 active torsions:
REMARK  status: ('A' for Active; 'I' for Inactive)
REMARK    1  A    between atoms: C_2  and  C_3
REMARK    2  A    between atoms: C_6  and  C_7
REMARK    3  A    between atoms: C_7  and  C_8
REMARK    4  A    between atoms: C_8  and  N_9
REMARK    5  A    between atoms: C_10  and  C_12
REMARK    6  A    between atoms: C_15  and  C_16
REMARK                            x       y       z     vdW  Elec       q    Type
REMARK                         _______ _______ _______ _____ _____    ______ ____
ROOT
ATOM      1  C   UNL     1       0.516   9.759  19.469  0.00  0.00    +0.000 C 
ATOM      2  C   UNL     1       1.586   9.388  18.432  0.00  0.00    +0.000 C 
ATOM      3  C   UNL     1       1.872   7.875  18.410  0.00  0.00    +0.000 C 
ATOM      4  C   UNL     1       2.256   7.311  19.796  0.00  0.00    +0.000 C 
ATOM      5  C   UNL     1       1.216   7.749  20.837  0.00  0.00    +0.000 C 
ATOM      6  C   UNL     1       0.920   9.234  20.849  0.00  0.00    +0.000 C 
ENDROOT
BRANCH   4   7
ATOM      7  C   UNL     1       2.332   5.811  19.823  0.00  0.00    +0.000 A 
ATOM      8  N   UNL     1       1.709   5.104  20.843  0.00  0.00    +0.000 NA
ATOM      9  N   UNL     1       2.002   3.812  20.726  0.00  0.00    +0.000 NA
ATOM     10  N   UNL     1       2.810   3.694  19.662  0.00  0.00    +0.000 N 
ATOM     11  C   UNL     1       3.358   2.482  19.226  0.00  0.00    +0.000 A 
ATOM     12  N   UNL     1       4.168   2.415  18.194  0.00  0.00    +0.000 NA
ATOM     13  C   UNL     1       4.423   3.621  17.601  0.00  0.00    +0.000 A 
ATOM     14  N   UNL     1       5.250   3.758  16.522  0.00  0.00    +0.000 N 
ATOM     15  C   UNL     1       5.304   5.085  16.158  0.00  0.00    +0.000 A 
ATOM     16  C   UNL     1       4.495   5.813  17.016  0.00  0.00    +0.000 A 
ATOM     17  C   UNL     1       3.952   4.888  17.918  0.00  0.00    +0.000 A 
ATOM     18  C   UNL     1       3.046   4.909  19.072  0.00  0.00    +0.000 A 
ATOM     19  H   UNL     1       5.735   2.992  16.075  0.00  0.00    +0.000 HD
ENDBRANCH   4   7
BRANCH   1  21
ATOM     20  N   UNL     1      -0.672  11.623  20.559  0.00  0.00    +0.000 N 
ATOM     21  C   UNL     1       0.251  11.258  19.611  0.00  0.00    +0.000 C 
ATOM     22  O   UNL     1       0.875  12.103  18.971  0.00  0.00    +0.000 OA
ATOM     23  H   UNL     1      -1.240  10.923  21.019  0.00  0.00    +0.000 HD
BRANCH  20  24
ATOM     24  C   UNL     1      -0.902  13.038  20.795  0.00  0.00    +0.000 C 
BRANCH  24  25
ATOM     25  C   UNL     1      -1.190  13.350  22.255  0.00  0.00    +0.000 C 
BRANCH  25  29
ATOM     26  C   UNL     1      -5.350  12.872  23.308  0.00  0.00    +0.000 A 
ATOM     27  C   UNL     1      -4.355  12.645  24.259  0.00  0.00    +0.000 A 
ATOM     28  C   UNL     1      -3.008  12.788  23.908  0.00  0.00    +0.000 A 
ATOM     29  C   UNL     1      -2.648  13.168  22.607  0.00  0.00    +0.000 A 
ATOM     30  C   UNL     1      -3.658  13.370  21.656  0.00  0.00    +0.000 A 
ATOM     31  C   UNL     1      -4.999  13.228  22.005  0.00  0.00    +0.000 A 
BRANCH  26  33
ATOM     32  N   UNL     1      -7.862  12.640  23.972  0.00  0.00    +0.000 NA
ATOM     33  C   UNL     1      -6.739  12.749  23.677  0.00  0.00    +0.000 C 
ENDBRANCH  26  33
ENDBRANCH  25  29
ENDBRANCH  24  25
ENDBRANCH  20  24
ENDBRANCH   1  21
TORSDOF 6
ENDMDL
MODEL 7
REMARK VINA RESULT:      -8.3      2.945      4.018
REMARK  Name = 
REMARK  6 active torsions:
REMARK  status: ('A' for Active; 'I' for Inactive)
REMARK    1  A    between atoms: C_2  and  C_3
REMARK    2  A    between atoms: C_6  and  C_7
REMARK    3  A    between atoms: C_7  and  C_8
REMARK    4  A    between atoms: C_8  and  N_9
REMARK    5  A    between atoms: C_10  and  C_12
REMARK    6  A    between atoms: C_15  and  C_16
REMARK                            x       y       z     vdW  Elec       q    Type
REMARK                         _______ _______ _______ _____ _____    ______ ____
ROOT
ATOM      1  C   UNL     1       0.761   9.925  19.285  0.00  0.00    +0.000 C 
ATOM      2  C   UNL     1       1.747   9.433  18.216  0.00  0.00    +0.000 C 
ATOM      3  C   UNL     1       1.908   7.902  18.235  0.00  0.00    +0.000 C 
ATOM      4  C   UNL     1       2.309   7.353  19.623  0.00  0.00    +0.000 C 
ATOM      5  C   UNL     1       1.359   7.908  20.693  0.00  0.00    +0.000 C 
ATOM      6  C   UNL     1       1.185   9.412  20.664  0.00  0.00    +0.000 C 
ENDROOT
BRANCH   4   7
ATOM      7  C   UNL     1       2.264   5.853  19.700  0.00  0.00    +0.000 A 
ATOM      8  N   UNL     1       1.541   5.233  20.711  0.00  0.00    +0.000 NA
ATOM      9  N   UNL     1       1.736   3.919  20.648  0.00  0.00    +0.000 NA
ATOM     10  N   UNL     1       2.579   3.701  19.629  0.00  0.00    +0.000 N 
ATOM     11  C   UNL     1       3.048   2.435  19.257  0.00  0.00    +0.000 A 
ATOM     12  N   UNL     1       3.895   2.270  18.267  0.00  0.00    +0.000 NA
ATOM     13  C   UNL     1       4.272   3.431  17.650  0.00  0.00    +0.000 A 
ATOM     14  N   UNL     1       5.155   3.465  16.608  0.00  0.00    +0.000 N 
ATOM     15  C   UNL     1       5.332   4.770  16.205  0.00  0.00    +0.000 A 
ATOM     16  C   UNL     1       4.545   5.588  17.001  0.00  0.00    +0.000 A 
ATOM     17  C   UNL     1       3.890   4.741  17.905  0.00  0.00    +0.000 A 
ATOM     18  C   UNL     1       2.937   4.873  19.012  0.00  0.00    +0.000 A 
ATOM     19  H   UNL     1       5.597   2.648  16.208  0.00  0.00    +0.000 HD
ENDBRANCH   4   7
BRANCH   1  21
ATOM     20  N   UNL     1       1.279  12.043  20.434  0.00  0.00    +0.000 N 
ATOM     21  C   UNL     1       0.626  11.445  19.385  0.00  0.00    +0.000 C 
ATOM     22  O   UNL     1       0.031  12.112  18.541  0.00  0.00    +0.000 OA
ATOM     23  H   UNL     1       1.693  11.483  21.168  0.00  0.00    +0.000 HD
BRANCH  20  24
ATOM     24  C   UNL     1       1.254  13.493  20.530  0.00  0.00    +0.000 C 
BRANCH  24  25
ATOM     25  C   UNL     1       0.619  13.984  21.821  0.00  0.00    +0.000 C 
BRANCH  25  29
ATOM     26  C   UNL     1      -3.559  12.951  22.170  0.00  0.00    +0.000 A 
ATOM     27  C   UNL     1      -2.628  12.424  23.066  0.00  0.00    +0.000 A 
ATOM     28  C   UNL     1      -1.274  12.751  22.939  0.00  0.00    +0.000 A 
ATOM     29  C   UNL     1      -0.842  13.615  21.922  0.00  0.00    +0.000 A 
ATOM     30  C   UNL     1      -1.786  14.118  21.015  0.00  0.00    +0.000 A 
ATOM     31  C   UNL     1      -3.134  13.792  21.141  0.00  0.00    +0.000 A 
BRANCH  26  33
ATOM     32  N   UNL     1      -6.091  12.380  22.427  0.00  0.00    +0.000 NA
ATOM     33  C   UNL     1      -4.958  12.632  22.317  0.00  0.00    +0.000 C 
ENDBRANCH  26  33
ENDBRANCH  25  29
ENDBRANCH  24  25
ENDBRANCH  20  24
ENDBRANCH   1  21
TORSDOF 6
ENDMDL
MODEL 8
REMARK VINA RESULT:      -8.3      2.277      8.996
REMARK  Name = 
REMARK  6 active torsions:
REMARK  status: ('A' for Active; 'I' for Inactive)
REMARK    1  A    between atoms: C_2  and  C_3
REMARK    2  A    between atoms: C_6  and  C_7
REMARK    3  A    between atoms: C_7  and  C_8
REMARK    4  A    between atoms: C_8  and  N_9
REMARK    5  A    between atoms: C_10  and  C_12
REMARK    6  A    between atoms: C_15  and  C_16
REMARK                            x       y       z     vdW  Elec       q    Type
REMARK                         _______ _______ _______ _____ _____    ______ ____
ROOT
ATOM      1  C   UNL     1       3.590   7.402  18.610  0.00  0.00    +0.000 C 
ATOM      2  C   UNL     1       2.794   8.108  17.504  0.00  0.00    +0.000 C 
ATOM      3  C   UNL     1       1.907   9.237  18.058  0.00  0.00    +0.000 C 
ATOM      4  C   UNL     1       0.956   8.765  19.181  0.00  0.00    +0.000 C 
ATOM      5  C   UNL     1       1.753   7.999  20.245  0.00  0.00    +0.000 C 
ATOM      6  C   UNL     1       2.640   6.899  19.701  0.00  0.00    +0.000 C 
ENDROOT
BRANCH   4   7
ATOM      7  C   UNL     1       0.242   9.896  19.865  0.00  0.00    +0.000 A 
ATOM      8  N   UNL     1       0.573  10.236  21.170  0.00  0.00    +0.000 NA
ATOM      9  N   UNL     1      -0.257  11.181  21.603  0.00  0.00    +0.000 NA
ATOM     10  N   UNL     1      -1.114  11.430  20.602  0.00  0.00    +0.000 N 
ATOM     11  C   UNL     1      -2.163  12.355  20.682  0.00  0.00    +0.000 A 
ATOM     12  N   UNL     1      -2.996  12.549  19.686  0.00  0.00    +0.000 NA
ATOM     13  C   UNL     1      -2.750  11.773  18.587  0.00  0.00    +0.000 A 
ATOM     14  N   UNL     1      -3.515  11.822  17.456  0.00  0.00    +0.000 N 
ATOM     15  C   UNL     1      -3.018  10.928  16.533  0.00  0.00    +0.000 A 
ATOM     16  C   UNL     1      -1.913  10.297  17.080  0.00  0.00    +0.000 A 
ATOM     17  C   UNL     1      -1.756  10.829  18.367  0.00  0.00    +0.000 A 
ATOM     18  C   UNL     1      -0.846  10.654  19.504  0.00  0.00    +0.000 A 
ATOM     19  H   UNL     1      -4.315  12.428  17.335  0.00  0.00    +0.000 HD
ENDBRANCH   4   7
BRANCH   1  21
ATOM     20  N   UNL     1       4.111   5.701  16.903  0.00  0.00    +0.000 N 
ATOM     21  C   UNL     1       4.420   6.206  18.142  0.00  0.00    +0.000 C 
ATOM     22  O   UNL     1       5.362   5.758  18.796  0.00  0.00    +0.000 OA
ATOM     23  H   UNL     1       3.285   6.018  16.412  0.00  0.00    +0.000 HD
BRANCH  20  24
ATOM     24  C   UNL     1       4.922   4.619  16.373  0.00  0.00    +0.000 C 
BRANCH  24  25
ATOM     25  C   UNL     1       4.221   3.272  16.445  0.00  0.00    +0.000 C 
BRANCH  25  29
ATOM     26  C   UNL     1       2.219   2.714  20.229  0.00  0.00    +0.000 A 
ATOM     27  C   UNL     1       3.589   2.477  20.118  0.00  0.00    +0.000 A 
ATOM     28  C   UNL     1       4.229   2.646  18.887  0.00  0.00    +0.000 A 
ATOM     29  C   UNL     1       3.507   3.062  17.759  0.00  0.00    +0.000 A 
ATOM     30  C   UNL     1       2.126   3.273  17.880  0.00  0.00    +0.000 A 
ATOM     31  C   UNL     1       1.488   3.105  19.107  0.00  0.00    +0.000 A 
BRANCH  26  33
ATOM     32  N   UNL     1       1.029   2.432  22.533  0.00  0.00    +0.000 NA
ATOM     33  C   UNL     1       1.563   2.562  21.506  0.00  0.00    +0.000 C 
ENDBRANCH  26  33
ENDBRANCH  25  29
ENDBRANCH  24  25
ENDBRANCH  20  24
ENDBRANCH   1  21
TORSDOF 6
ENDMDL
MODEL 9
REMARK VINA RESULT:      -8.2      4.161      5.734
REMARK  Name = 
REMARK  6 active torsions:
REMARK  status: ('A' for Active; 'I' for Inactive)
REMARK    1  A    between atoms: C_2  and  C_3
REMARK    2  A    between atoms: C_6  and  C_7
REMARK    3  A    between atoms: C_7  and  C_8
REMARK    4  A    between atoms: C_8  and  N_9
REMARK    5  A    between atoms: C_10  and  C_12
REMARK    6  A    between atoms: C_15  and  C_16
REMARK                            x       y       z     vdW  Elec       q    Type
REMARK                         _______ _______ _______ _____ _____    ______ ____
ROOT
ATOM      1  C   UNL     1       0.405   9.855  19.164  0.00  0.00    +0.000 C 
ATOM      2  C   UNL     1       1.549   9.426  18.235  0.00  0.00    +0.000 C 
ATOM      3  C   UNL     1       1.893   7.933  18.389  0.00  0.00    +0.000 C 
ATOM      4  C   UNL     1       2.212   7.532  19.847  0.00  0.00    +0.000 C 
ATOM      5  C   UNL     1       1.096   8.029  20.775  0.00  0.00    +0.000 C 
ATOM      6  C   UNL     1       0.743   9.492  20.613  0.00  0.00    +0.000 C 
ENDROOT
BRANCH   4   7
ATOM      7  C   UNL     1       2.343   6.047  20.036  0.00  0.00    +0.000 A 
ATOM      8  N   UNL     1       1.423   5.366  20.822  0.00  0.00    +0.000 NA
ATOM      9  N   UNL     1       1.800   4.095  20.937  0.00  0.00    +0.000 NA
ATOM     10  N   UNL     1       2.945   3.968  20.253  0.00  0.00    +0.000 N 
ATOM     11  C   UNL     1       3.671   2.774  20.156  0.00  0.00    +0.000 A 
ATOM     12  N   UNL     1       4.804   2.700  19.496  0.00  0.00    +0.000 NA
ATOM     13  C   UNL     1       5.202   3.878  18.929  0.00  0.00    +0.000 A 
ATOM     14  N   UNL     1       6.359   4.005  18.213  0.00  0.00    +0.000 N 
ATOM     15  C   UNL     1       6.481   5.304  17.774  0.00  0.00    +0.000 A 
ATOM     16  C   UNL     1       5.381   6.024  18.212  0.00  0.00    +0.000 A 
ATOM     17  C   UNL     1       4.589   5.124  18.938  0.00  0.00    +0.000 A 
ATOM     18  C   UNL     1       3.324   5.154  19.679  0.00  0.00    +0.000 A 
ATOM     19  H   UNL     1       7.009   3.250  18.043  0.00  0.00    +0.000 HD
ENDBRANCH   4   7
BRANCH   1  21
ATOM     20  N   UNL     1       1.024  12.165  18.570  0.00  0.00    +0.000 N 
ATOM     21  C   UNL     1       0.076  11.347  19.132  0.00  0.00    +0.000 C 
ATOM     22  O   UNL     1      -1.004  11.794  19.518  0.00  0.00    +0.000 OA
ATOM     23  H   UNL     1       1.940  11.804  18.334  0.00  0.00    +0.000 HD
BRANCH  20  24
ATOM     24  C   UNL     1       0.728  13.581  18.437  0.00  0.00    +0.000 C 
BRANCH  24  25
ATOM     25  C   UNL     1       1.428  14.427  19.489  0.00  0.00    +0.000 C 
BRANCH  25  29
ATOM     26  C   UNL     1       5.564  15.179  18.504  0.00  0.00    +0.000 A 
ATOM     27  C   UNL     1       5.198  14.882  19.818  0.00  0.00    +0.000 A 
ATOM     28  C   UNL     1       3.854  14.653  20.133  0.00  0.00    +0.000 A 
ATOM     29  C   UNL     1       2.869  14.710  19.137  0.00  0.00    +0.000 A 
ATOM     30  C   UNL     1       3.250  15.032  17.826  0.00  0.00    +0.000 A 
ATOM     31  C   UNL     1       4.587  15.260  17.512  0.00  0.00    +0.000 A 
BRANCH  26  33
ATOM     32  N   UNL     1       8.072  15.570  17.904  0.00  0.00    +0.000 NA
ATOM     33  C   UNL     1       6.953  15.391  18.176  0.00  0.00    +0.000 C 
ENDBRANCH  26  33
ENDBRANCH  25  29
ENDBRANCH  24  25
ENDBRANCH  20  24
ENDBRANCH   1  21
TORSDOF 6
ENDMDL
