MODEL 1
REMARK VINA RESULT:      -8.5      0.000      0.000
REMARK  Name = 
REMARK  1 active torsions:
REMARK  status: ('A' for Active; 'I' for Inactive)
REMARK    1  A    between atoms: C_4  and  C_5
REMARK                            x       y       z     vdW  Elec       q    Type
REMARK                         _______ _______ _______ _____ _____    ______ ____
ROOT
ATOM      1  O   UNL     1       1.800   9.673  17.431  0.00  0.00    +0.000 OA
ATOM      2  C   UNL     1       1.713   9.093  18.500  0.00  0.00    +0.000 C 
ATOM      3  C   UNL     1       2.270   7.749  18.845  0.00  0.00    +0.000 C 
ATOM      4  C   UNL     1       3.037   7.022  18.025  0.00  0.00    +0.000 C 
ATOM      5  C   UNL     1       1.877   7.419  20.262  0.00  0.00    +0.000 C 
ATOM      6  C   UNL     1       1.155   8.644  20.722  0.00  0.00    +0.000 A 
ATOM      7  C   UNL     1       0.619   8.879  21.976  0.00  0.00    +0.000 A 
ATOM      8  C   UNL     1      -0.028  10.096  22.198  0.00  0.00    +0.000 A 
ATOM      9  C   UNL     1      -0.138  11.049  21.171  0.00  0.00    +0.000 A 
ATOM     10  C   UNL     1       0.399  10.804  19.904  0.00  0.00    +0.000 A 
ATOM     11  C   UNL     1       1.044   9.596  19.707  0.00  0.00    +0.000 A 
ENDROOT
BRANCH   4  12
ATOM     12  C   UNL     1       3.579   5.751  18.376  0.00  0.00    +0.000 A 
ATOM     13  C   UNL     1       4.894   5.532  18.715  0.00  0.00    +0.000 A 
ATOM     14  N   UNL     1       5.015   4.214  19.074  0.00  0.00    +0.000 N 
ATOM     15  C   UNL     1       3.805   3.568  18.941  0.00  0.00    +0.000 A 
ATOM     16  C   UNL     1       3.453   2.238  19.208  0.00  0.00    +0.000 A 
ATOM     17  C   UNL     1       2.128   1.857  18.976  0.00  0.00    +0.000 A 
ATOM     18  C   UNL     1       1.193   2.769  18.492  0.00  0.00    +0.000 A 
ATOM     19  C   UNL     1       1.560   4.093  18.231  0.00  0.00    +0.000 A 
ATOM     20  C   UNL     1       2.886   4.509  18.471  0.00  0.00    +0.000 A 
ATOM     21  H   UNL     1       5.863   3.777  19.411  0.00  0.00    +0.000 HD
ENDBRANCH   4  12
TORSDOF 1
ENDMDL
MODEL 2
REMARK VINA RESULT:      -8.4      4.390      6.254
REMARK  Name = 
REMARK  1 active torsions:
REMARK  status: ('A' for Active; 'I' for Inactive)
REMARK    1  A    between atoms: C_4  and  C_5
REMARK                            x       y       z     vdW  Elec       q    Type
REMARK                         _______ _______ _______ _____ _____    ______ ____
ROOT
ATOM      1  O   UNL     1       3.449   1.463  18.063  0.00  0.00    +0.000 OA
ATOM      2  C   UNL     1       3.522   2.676  18.166  0.00  0.00    +0.000 C 
ATOM      3  C   UNL     1       4.434   3.591  17.413  0.00  0.00    +0.000 C 
ATOM      4  C   UNL     1       5.253   3.194  16.431  0.00  0.00    +0.000 C 
ATOM      5  C   UNL     1       4.207   4.999  17.901  0.00  0.00    +0.000 C 
ATOM      6  C   UNL     1       3.094   4.854  18.888  0.00  0.00    +0.000 A 
ATOM      7  C   UNL     1       2.472   5.863  19.602  0.00  0.00    +0.000 A 
ATOM      8  C   UNL     1       1.451   5.510  20.487  0.00  0.00    +0.000 A 
ATOM      9  C   UNL     1       1.075   4.166  20.651  0.00  0.00    +0.000 A 
ATOM     10  C   UNL     1       1.712   3.150  19.932  0.00  0.00    +0.000 A 
ATOM     11  C   UNL     1       2.715   3.521  19.055  0.00  0.00    +0.000 A 
ENDROOT
BRANCH   4  12
ATOM     12  C   UNL     1       6.100   4.082  15.708  0.00  0.00    +0.000 A 
ATOM     13  C   UNL     1       6.861   5.073  16.283  0.00  0.00    +0.000 A 
ATOM     14  N   UNL     1       7.605   5.655  15.288  0.00  0.00    +0.000 N 
ATOM     15  C   UNL     1       7.313   5.077  14.071  0.00  0.00    +0.000 A 
ATOM     16  C   UNL     1       7.836   5.333  12.797  0.00  0.00    +0.000 A 
ATOM     17  C   UNL     1       7.343   4.578  11.728  0.00  0.00    +0.000 A 
ATOM     18  C   UNL     1       6.362   3.609  11.925  0.00  0.00    +0.000 A 
ATOM     19  C   UNL     1       5.850   3.366  13.204  0.00  0.00    +0.000 A 
ATOM     20  C   UNL     1       6.340   4.101  14.303  0.00  0.00    +0.000 A 
ATOM     21  H   UNL     1       8.288   6.388  15.424  0.00  0.00    +0.000 HD
ENDBRANCH   4  12
TORSDOF 1
ENDMDL
MODEL 3
REMARK VINA RESULT:      -8.2      4.178      7.304
REMARK  Name = 
REMARK  1 active torsions:
REMARK  status: ('A' for Active; 'I' for Inactive)
REMARK    1  A    between atoms: C_4  and  C_5
REMARK                            x       y       z     vdW  Elec       q    Type
REMARK                         _______ _______ _______ _____ _____    ______ ____
ROOT
ATOM      1  O   UNL     1       7.439   6.078  16.437  0.00  0.00    +0.000 OA
ATOM      2  C   UNL     1       6.806   5.248  15.805  0.00  0.00    +0.000 C 
ATOM      3  C   UNL     1       5.709   4.371  16.317  0.00  0.00    +0.000 C 
ATOM      4  C   UNL     1       5.203   4.447  17.554  0.00  0.00    +0.000 C 
ATOM      5  C   UNL     1       5.254   3.473  15.196  0.00  0.00    +0.000 C 
ATOM      6  C   UNL     1       6.069   3.925  14.029  0.00  0.00    +0.000 A 
ATOM      7  C   UNL     1       6.010   3.450  12.730  0.00  0.00    +0.000 A 
ATOM      8  C   UNL     1       6.872   4.008  11.784  0.00  0.00    +0.000 A 
ATOM      9  C   UNL     1       7.781   5.017  12.147  0.00  0.00    +0.000 A 
ATOM     10  C   UNL     1       7.842   5.488  13.462  0.00  0.00    +0.000 A 
ATOM     11  C   UNL     1       6.973   4.929  14.382  0.00  0.00    +0.000 A 
ENDROOT
BRANCH   4  12
ATOM     12  C   UNL     1       4.142   3.617  18.020  0.00  0.00    +0.000 A 
ATOM     13  C   UNL     1       3.978   2.295  17.677  0.00  0.00    +0.000 A 
ATOM     14  N   UNL     1       2.908   1.812  18.385  0.00  0.00    +0.000 N 
ATOM     15  C   UNL     1       2.356   2.810  19.159  0.00  0.00    +0.000 A 
ATOM     16  C   UNL     1       1.275   2.773  20.049  0.00  0.00    +0.000 A 
ATOM     17  C   UNL     1       0.933   3.959  20.707  0.00  0.00    +0.000 A 
ATOM     18  C   UNL     1       1.643   5.136  20.480  0.00  0.00    +0.000 A 
ATOM     19  C   UNL     1       2.721   5.156  19.589  0.00  0.00    +0.000 A 
ATOM     20  C   UNL     1       3.097   3.971  18.923  0.00  0.00    +0.000 A 
ATOM     21  H   UNL     1       2.580   0.856  18.365  0.00  0.00    +0.000 HD
ENDBRANCH   4  12
TORSDOF 1
ENDMDL
MODEL 4
REMARK VINA RESULT:      -8.1      3.947      7.021
REMARK  Name = 
REMARK  1 active torsions:
REMARK  status: ('A' for Active; 'I' for Inactive)
REMARK    1  A    between atoms: C_4  and  C_5
REMARK                            x       y       z     vdW  Elec       q    Type
REMARK                         _______ _______ _______ _____ _____    ______ ____
ROOT
ATOM      1  O   UNL     1       7.816   6.360  16.017  0.00  0.00    +0.000 OA
ATOM      2  C   UNL     1       6.863   5.670  15.695  0.00  0.00    +0.000 C 
ATOM      3  C   UNL     1       5.628   5.409  16.497  0.00  0.00    +0.000 C 
ATOM      4  C   UNL     1       5.360   5.989  17.673  0.00  0.00    +0.000 C 
ATOM      5  C   UNL     1       4.747   4.462  15.722  0.00  0.00    +0.000 C 
ATOM      6  C   UNL     1       5.486   4.266  14.438  0.00  0.00    +0.000 A 
ATOM      7  C   UNL     1       5.086   3.511  13.348  0.00  0.00    +0.000 A 
ATOM      8  C   UNL     1       5.935   3.451  12.241  0.00  0.00    +0.000 A 
ATOM      9  C   UNL     1       7.165   4.132  12.241  0.00  0.00    +0.000 A 
ATOM     10  C   UNL     1       7.566   4.888  13.347  0.00  0.00    +0.000 A 
ATOM     11  C   UNL     1       6.708   4.941  14.430  0.00  0.00    +0.000 A 
ENDROOT
BRANCH   4  12
ATOM     12  C   UNL     1       4.168   5.745  18.415  0.00  0.00    +0.000 A 
ATOM     13  C   UNL     1       3.098   6.609  18.475  0.00  0.00    +0.000 A 
ATOM     14  N   UNL     1       2.112   5.997  19.205  0.00  0.00    +0.000 N 
ATOM     15  C   UNL     1       2.538   4.763  19.646  0.00  0.00    +0.000 A 
ATOM     16  C   UNL     1       1.870   3.790  20.400  0.00  0.00    +0.000 A 
ATOM     17  C   UNL     1       2.562   2.613  20.704  0.00  0.00    +0.000 A 
ATOM     18  C   UNL     1       3.874   2.421  20.274  0.00  0.00    +0.000 A 
ATOM     19  C   UNL     1       4.527   3.402  19.522  0.00  0.00    +0.000 A 
ATOM     20  C   UNL     1       3.847   4.592  19.188  0.00  0.00    +0.000 A 
ATOM     21  H   UNL     1       1.193   6.381  19.379  0.00  0.00    +0.000 HD
ENDBRANCH   4  12
TORSDOF 1
ENDMDL
MODEL 5
REMARK VINA RESULT:      -8.1      4.477      7.108
REMARK  Name = 
REMARK  1 active torsions:
REMARK  status: ('A' for Active; 'I' for Inactive)
REMARK    1  A    between atoms: C_4  and  C_5
REMARK                            x       y       z     vdW  Elec       q    Type
REMARK                         _______ _______ _______ _____ _____    ______ ____
ROOT
ATOM      1  O   UNL     1       7.608   6.397  16.409  0.00  0.00    +0.000 OA
ATOM      2  C   UNL     1       6.991   5.448  15.953  0.00  0.00    +0.000 C 
ATOM      3  C   UNL     1       6.064   4.538  16.692  0.00  0.00    +0.000 C 
ATOM      4  C   UNL     1       5.710   4.706  17.972  0.00  0.00    +0.000 C 
ATOM      5  C   UNL     1       5.569   3.483  15.737  0.00  0.00    +0.000 C 
ATOM      6  C   UNL     1       6.181   3.874  14.432  0.00  0.00    +0.000 A 
ATOM      7  C   UNL     1       6.011   3.253  13.207  0.00  0.00    +0.000 A 
ATOM      8  C   UNL     1       6.686   3.777  12.103  0.00  0.00    +0.000 A 
ATOM      9  C   UNL     1       7.523   4.898  12.238  0.00  0.00    +0.000 A 
ATOM     10  C   UNL     1       7.697   5.517  13.479  0.00  0.00    +0.000 A 
ATOM     11  C   UNL     1       7.013   4.988  14.559  0.00  0.00    +0.000 A 
ENDROOT
BRANCH   4  12
ATOM     12  C   UNL     1       4.807   3.841  18.657  0.00  0.00    +0.000 A 
ATOM     13  C   UNL     1       5.171   2.971  19.659  0.00  0.00    +0.000 A 
ATOM     14  N   UNL     1       4.027   2.380  20.131  0.00  0.00    +0.000 N 
ATOM     15  C   UNL     1       2.931   2.830  19.428  0.00  0.00    +0.000 A 
ATOM     16  C   UNL     1       1.572   2.520  19.572  0.00  0.00    +0.000 A 
ATOM     17  C   UNL     1       0.668   3.140  18.703  0.00  0.00    +0.000 A 
ATOM     18  C   UNL     1       1.107   4.031  17.726  0.00  0.00    +0.000 A 
ATOM     19  C   UNL     1       2.467   4.329  17.595  0.00  0.00    +0.000 A 
ATOM     20  C   UNL     1       3.399   3.731  18.468  0.00  0.00    +0.000 A 
ATOM     21  H   UNL     1       3.984   1.724  20.899  0.00  0.00    +0.000 HD
ENDBRANCH   4  12
TORSDOF 1
ENDMDL
MODEL 6
REMARK VINA RESULT:      -7.9      0.925      1.009
REMARK  Name = 
REMARK  1 active torsions:
REMARK  status: ('A' for Active; 'I' for Inactive)
REMARK    1  A    between atoms: C_4  and  C_5
REMARK                            x       y       z     vdW  Elec       q    Type
REMARK                         _______ _______ _______ _____ _____    ______ ____
ROOT
ATOM      1  O   UNL     1       0.896  10.332  17.869  0.00  0.00    +0.000 OA
ATOM      2  C   UNL     1       1.099   9.601  18.824  0.00  0.00    +0.000 C 
ATOM      3  C   UNL     1       1.902   8.340  18.837  0.00  0.00    +0.000 C 
ATOM      4  C   UNL     1       2.598   7.882  17.789  0.00  0.00    +0.000 C 
ATOM      5  C   UNL     1       1.839   7.748  20.221  0.00  0.00    +0.000 C 
ATOM      6  C   UNL     1       1.047   8.750  20.997  0.00  0.00    +0.000 A 
ATOM      7  C   UNL     1       0.731   8.708  22.343  0.00  0.00    +0.000 A 
ATOM      8  C   UNL     1      -0.033   9.749  22.874  0.00  0.00    +0.000 A 
ATOM      9  C   UNL     1      -0.476  10.804  22.057  0.00  0.00    +0.000 A 
ATOM     10  C   UNL     1      -0.159  10.838  20.696  0.00  0.00    +0.000 A 
ATOM     11  C   UNL     1       0.606   9.802  20.192  0.00  0.00    +0.000 A 
ENDROOT
BRANCH   4  12
ATOM     12  C   UNL     1       3.376   6.688  17.824  0.00  0.00    +0.000 A 
ATOM     13  C   UNL     1       4.751   6.655  17.806  0.00  0.00    +0.000 A 
ATOM     14  N   UNL     1       5.136   5.346  17.941  0.00  0.00    +0.000 N 
ATOM     15  C   UNL     1       4.030   4.527  18.014  0.00  0.00    +0.000 A 
ATOM     16  C   UNL     1       3.940   3.138  18.173  0.00  0.00    +0.000 A 
ATOM     17  C   UNL     1       2.662   2.569  18.214  0.00  0.00    +0.000 A 
ATOM     18  C   UNL     1       1.521   3.359  18.096  0.00  0.00    +0.000 A 
ATOM     19  C   UNL     1       1.628   4.745  17.939  0.00  0.00    +0.000 A 
ATOM     20  C   UNL     1       2.903   5.347  17.910  0.00  0.00    +0.000 A 
ATOM     21  H   UNL     1       6.092   5.022  18.003  0.00  0.00    +0.000 HD
ENDBRANCH   4  12
TORSDOF 1
ENDMDL
MODEL 7
REMARK VINA RESULT:      -7.6      3.430      5.449
REMARK  Name = 
REMARK  1 active torsions:
REMARK  status: ('A' for Active; 'I' for Inactive)
REMARK    1  A    between atoms: C_4  and  C_5
REMARK                            x       y       z     vdW  Elec       q    Type
REMARK                         _______ _______ _______ _____ _____    ______ ____
ROOT
ATOM      1  O   UNL     1       1.882   6.756  19.008  0.00  0.00    +0.000 OA
ATOM      2  C   UNL     1       2.622   5.787  19.052  0.00  0.00    +0.000 C 
ATOM      3  C   UNL     1       3.847   5.551  18.229  0.00  0.00    +0.000 C 
ATOM      4  C   UNL     1       4.358   6.441  17.370  0.00  0.00    +0.000 C 
ATOM      5  C   UNL     1       4.413   4.201  18.591  0.00  0.00    +0.000 C 
ATOM      6  C   UNL     1       3.518   3.728  19.691  0.00  0.00    +0.000 A 
ATOM      7  C   UNL     1       3.625   2.551  20.411  0.00  0.00    +0.000 A 
ATOM      8  C   UNL     1       2.672   2.293  21.398  0.00  0.00    +0.000 A 
ATOM      9  C   UNL     1       1.628   3.202  21.644  0.00  0.00    +0.000 A 
ATOM     10  C   UNL     1       1.521   4.386  20.909  0.00  0.00    +0.000 A 
ATOM     11  C   UNL     1       2.479   4.627  19.941  0.00  0.00    +0.000 A 
ENDROOT
BRANCH   4  12
ATOM     12  C   UNL     1       5.540   6.209  16.608  0.00  0.00    +0.000 A 
ATOM     13  C   UNL     1       6.779   6.720  16.917  0.00  0.00    +0.000 A 
ATOM     14  N   UNL     1       7.675   6.211  16.014  0.00  0.00    +0.000 N 
ATOM     15  C   UNL     1       7.030   5.402  15.103  0.00  0.00    +0.000 A 
ATOM     16  C   UNL     1       7.539   4.664  14.026  0.00  0.00    +0.000 A 
ATOM     17  C   UNL     1       6.633   3.921  13.262  0.00  0.00    +0.000 A 
ATOM     18  C   UNL     1       5.272   3.921  13.560  0.00  0.00    +0.000 A 
ATOM     19  C   UNL     1       4.781   4.664  14.638  0.00  0.00    +0.000 A 
ATOM     20  C   UNL     1       5.673   5.409  15.436  0.00  0.00    +0.000 A 
ATOM     21  H   UNL     1       8.672   6.381  16.022  0.00  0.00    +0.000 HD
ENDBRANCH   4  12
TORSDOF 1
ENDMDL
MODEL 8
REMARK VINA RESULT:      -7.6      2.216      6.508
REMARK  Name = 
REMARK  1 active torsions:
REMARK  status: ('A' for Active; 'I' for Inactive)
REMARK    1  A    between atoms: C_4  and  C_5
REMARK                            x       y       z     vdW  Elec       q    Type
REMARK                         _______ _______ _______ _____ _____    ______ ____
ROOT
ATOM      1  O   UNL     1       5.140   5.760  17.681  0.00  0.00    +0.000 OA
ATOM      2  C   UNL     1       3.985   5.501  17.976  0.00  0.00    +0.000 C 
ATOM      3  C   UNL     1       2.895   6.475  18.289  0.00  0.00    +0.000 C 
ATOM      4  C   UNL     1       3.027   7.804  18.195  0.00  0.00    +0.000 C 
ATOM      5  C   UNL     1       1.651   5.702  18.644  0.00  0.00    +0.000 C 
ATOM      6  C   UNL     1       2.053   4.277  18.445  0.00  0.00    +0.000 A 
ATOM      7  C   UNL     1       1.260   3.153  18.597  0.00  0.00    +0.000 A 
ATOM      8  C   UNL     1       1.838   1.903  18.370  0.00  0.00    +0.000 A 
ATOM      9  C   UNL     1       3.192   1.792  18.007  0.00  0.00    +0.000 A 
ATOM     10  C   UNL     1       3.990   2.930  17.861  0.00  0.00    +0.000 A 
ATOM     11  C   UNL     1       3.397   4.160  18.082  0.00  0.00    +0.000 A 
ENDROOT
BRANCH   4  12
ATOM     12  C   UNL     1       1.971   8.720  18.476  0.00  0.00    +0.000 A 
ATOM     13  C   UNL     1       1.342   9.496  17.531  0.00  0.00    +0.000 A 
ATOM     14  N   UNL     1       0.329  10.175  18.159  0.00  0.00    +0.000 N 
ATOM     15  C   UNL     1       0.313   9.874  19.504  0.00  0.00    +0.000 A 
ATOM     16  C   UNL     1      -0.546  10.312  20.520  0.00  0.00    +0.000 A 
ATOM     17  C   UNL     1      -0.321   9.831  21.814  0.00  0.00    +0.000 A 
ATOM     18  C   UNL     1       0.726   8.952  22.081  0.00  0.00    +0.000 A 
ATOM     19  C   UNL     1       1.575   8.525  21.055  0.00  0.00    +0.000 A 
ATOM     20  C   UNL     1       1.361   8.980  19.738  0.00  0.00    +0.000 A 
ATOM     21  H   UNL     1      -0.329  10.792  17.703  0.00  0.00    +0.000 HD
ENDBRANCH   4  12
TORSDOF 1
ENDMDL
MODEL 9
REMARK VINA RESULT:      -7.4      3.664      5.790
REMARK  Name = 
REMARK  1 active torsions:
REMARK  status: ('A' for Active; 'I' for Inactive)
REMARK    1  A    between atoms: C_4  and  C_5
REMARK                            x       y       z     vdW  Elec       q    Type
REMARK                         _______ _______ _______ _____ _____    ______ ____
ROOT
ATOM      1  O   UNL     1       2.346   6.862  18.311  0.00  0.00    +0.000 OA
ATOM      2  C   UNL     1       2.772   5.728  18.174  0.00  0.00    +0.000 C 
ATOM      3  C   UNL     1       3.900   5.289  17.296  0.00  0.00    +0.000 C 
ATOM      4  C   UNL     1       4.671   6.125  16.591  0.00  0.00    +0.000 C 
ATOM      5  C   UNL     1       4.040   3.793  17.411  0.00  0.00    +0.000 C 
ATOM      6  C   UNL     1       3.015   3.420  18.432  0.00  0.00    +0.000 A 
ATOM      7  C   UNL     1       2.757   2.158  18.938  0.00  0.00    +0.000 A 
ATOM      8  C   UNL     1       1.741   2.024  19.887  0.00  0.00    +0.000 A 
ATOM      9  C   UNL     1       0.998   3.142  20.307  0.00  0.00    +0.000 A 
ATOM     10  C   UNL     1       1.259   4.413  19.788  0.00  0.00    +0.000 A 
ATOM     11  C   UNL     1       2.275   4.526  18.855  0.00  0.00    +0.000 A 
ENDROOT
BRANCH   4  12
ATOM     12  C   UNL     1       5.757   5.693  15.775  0.00  0.00    +0.000 A 
ATOM     13  C   UNL     1       7.083   5.924  16.057  0.00  0.00    +0.000 A 
ATOM     14  N   UNL     1       7.829   5.286  15.099  0.00  0.00    +0.000 N 
ATOM     15  C   UNL     1       7.004   4.672  14.182  0.00  0.00    +0.000 A 
ATOM     16  C   UNL     1       7.318   3.898  13.057  0.00  0.00    +0.000 A 
ATOM     17  C   UNL     1       6.257   3.394  12.298  0.00  0.00    +0.000 A 
ATOM     18  C   UNL     1       4.935   3.658  12.647  0.00  0.00    +0.000 A 
ATOM     19  C   UNL     1       4.638   4.432  13.774  0.00  0.00    +0.000 A 
ATOM     20  C   UNL     1       5.688   4.940  14.567  0.00  0.00    +0.000 A 
ATOM     21  H   UNL     1       8.839   5.248  15.076  0.00  0.00    +0.000 HD
ENDBRANCH   4  12
TORSDOF 1
ENDMDL
