MODEL 1
REMARK VINA RESULT:      -7.5      0.000      0.000
REMARK  Name = 
REMARK  8 active torsions:
REMARK  status: ('A' for Active; 'I' for Inactive)
REMARK    1  A    between atoms: C_1  and  O_2
REMARK    2  A    between atoms: O_2  and  C_3
REMARK    3  A    between atoms: C_3  and  C_4
REMARK    4  A    between atoms: C_4  and  O_5
REMARK    5  A    between atoms: O_5  and  C_6
REMARK    6  A    between atoms: C_11  and  N_12
REMARK    7  A    between atoms: N_15  and  C_16
REMARK    8  A    between atoms: C_18  and  C_19
REMARK                            x       y       z     vdW  Elec       q    Type
REMARK                         _______ _______ _______ _____ _____    ______ ____
ROOT
ATOM      1  C   UNL     1       6.036   3.715  12.480  0.00  0.00    +0.000 A 
ATOM      2  N   UNL     1       7.004   4.389  11.859  0.00  0.00    +0.000 NA
ATOM      3  N   UNL     1       7.685   4.955  12.872  0.00  0.00    +0.000 N 
ATOM      4  C   UNL     1       7.190   4.663  14.116  0.00  0.00    +0.000 A 
ATOM      5  C   UNL     1       7.593   5.021  15.406  0.00  0.00    +0.000 A 
ATOM      6  C   UNL     1       6.802   4.505  16.434  0.00  0.00    +0.000 A 
ATOM      7  N   UNL     1       5.723   3.719  16.206  0.00  0.00    +0.000 NA
ATOM      8  C   UNL     1       5.350   3.385  14.950  0.00  0.00    +0.000 A 
ATOM      9  C   UNL     1       6.084   3.853  13.874  0.00  0.00    +0.000 A 
ATOM     10  H   UNL     1       8.487   5.535  12.642  0.00  0.00    +0.000 HD
ENDROOT
BRANCH   6  11
ATOM     11  N   UNL     1       7.139   4.798  17.768  0.00  0.00    +0.000 N 
ATOM     12  C   UNL     1       6.304   5.285  18.752  0.00  0.00    +0.000 C 
ATOM     13  O   UNL     1       6.725   5.435  19.896  0.00  0.00    +0.000 OA
ATOM     14  N   UNL     1       5.032   5.572  18.353  0.00  0.00    +0.000 N 
ATOM     15  H   UNL     1       8.077   4.614  18.090  0.00  0.00    +0.000 HD
ATOM     16  H   UNL     1       4.845   5.346  17.378  0.00  0.00    +0.000 HD
BRANCH  14  17
ATOM     17  C   UNL     1       3.919   5.945  19.157  0.00  0.00    +0.000 C 
ATOM     18  C   UNL     1       2.569   5.335  18.945  0.00  0.00    +0.000 C 
ATOM     19  C   UNL     1       2.815   6.752  18.489  0.00  0.00    +0.000 C 
BRANCH  19  20
ATOM     20  C   UNL     1       2.065   7.868  19.170  0.00  0.00    +0.000 A 
ATOM     21  C   UNL     1       1.706   9.056  18.518  0.00  0.00    +0.000 A 
ATOM     22  C   UNL     1       0.984  10.058  19.180  0.00  0.00    +0.000 A 
ATOM     23  C   UNL     1       0.601   9.883  20.508  0.00  0.00    +0.000 A 
ATOM     24  C   UNL     1       0.926   8.704  21.170  0.00  0.00    +0.000 A 
ATOM     25  C   UNL     1       1.644   7.711  20.503  0.00  0.00    +0.000 A 
ENDBRANCH  19  20
ENDBRANCH  14  17
ENDBRANCH   6  11
BRANCH   1  26
ATOM     26  O   UNL     1       5.108   3.023  11.779  0.00  0.00    +0.000 OA
BRANCH  26  27
ATOM     27  C   UNL     1       4.105   3.861  11.207  0.00  0.00    +0.000 C 
BRANCH  27  28
ATOM     28  C   UNL     1       3.191   3.036  10.307  0.00  0.00    +0.000 C 
BRANCH  28  30
ATOM     29  C   UNL     1       2.269   4.881   9.152  0.00  0.00    +0.000 C 
ATOM     30  O   UNL     1       3.069   3.712   9.056  0.00  0.00    +0.000 OA
ENDBRANCH  28  30
ENDBRANCH  27  28
ENDBRANCH  26  27
ENDBRANCH   1  26
TORSDOF 7
ENDMDL
MODEL 2
REMARK VINA RESULT:      -7.3      2.216      3.941
REMARK  Name = 
REMARK  8 active torsions:
REMARK  status: ('A' for Active; 'I' for Inactive)
REMARK    1  A    between atoms: C_1  and  O_2
REMARK    2  A    between atoms: O_2  and  C_3
REMARK    3  A    between atoms: C_3  and  C_4
REMARK    4  A    between atoms: C_4  and  O_5
REMARK    5  A    between atoms: O_5  and  C_6
REMARK    6  A    between atoms: C_11  and  N_12
REMARK    7  A    between atoms: N_15  and  C_16
REMARK    8  A    between atoms: C_18  and  C_19
REMARK                            x       y       z     vdW  Elec       q    Type
REMARK                         _______ _______ _______ _____ _____    ______ ____
ROOT
ATOM      1  C   UNL     1       6.616   4.168  15.879  0.00  0.00    +0.000 A 
ATOM      2  N   UNL     1       7.806   4.522  16.365  0.00  0.00    +0.000 NA
ATOM      3  N   UNL     1       7.502   5.068  17.557  0.00  0.00    +0.000 N 
ATOM      4  C   UNL     1       6.164   5.070  17.851  0.00  0.00    +0.000 A 
ATOM      5  C   UNL     1       5.436   5.514  18.959  0.00  0.00    +0.000 A 
ATOM      6  C   UNL     1       4.055   5.333  18.868  0.00  0.00    +0.000 A 
ATOM      7  N   UNL     1       3.459   4.772  17.789  0.00  0.00    +0.000 NA
ATOM      8  C   UNL     1       4.182   4.350  16.727  0.00  0.00    +0.000 A 
ATOM      9  C   UNL     1       5.558   4.491  16.740  0.00  0.00    +0.000 A 
ATOM     10  H   UNL     1       8.265   5.424  18.126  0.00  0.00    +0.000 HD
ENDROOT
BRANCH   6  11
ATOM     11  N   UNL     1       3.242   5.734  19.943  0.00  0.00    +0.000 N 
ATOM     12  C   UNL     1       2.341   6.779  19.963  0.00  0.00    +0.000 C 
ATOM     13  O   UNL     1       1.649   6.974  20.958  0.00  0.00    +0.000 OA
ATOM     14  N   UNL     1       2.298   7.538  18.830  0.00  0.00    +0.000 N 
ATOM     15  H   UNL     1       3.263   5.204  20.801  0.00  0.00    +0.000 HD
ATOM     16  H   UNL     1       2.911   7.206  18.088  0.00  0.00    +0.000 HD
BRANCH  14  17
ATOM     17  C   UNL     1       1.385   8.577  18.500  0.00  0.00    +0.000 C 
ATOM     18  C   UNL     1       1.827   9.783  17.730  0.00  0.00    +0.000 C 
ATOM     19  C   UNL     1       1.561   9.912  19.210  0.00  0.00    +0.000 C 
BRANCH  19  20
ATOM     20  C   UNL     1       0.412  10.778  19.662  0.00  0.00    +0.000 A 
ATOM     21  C   UNL     1      -0.090  10.756  20.971  0.00  0.00    +0.000 A 
ATOM     22  C   UNL     1      -1.141  11.597  21.358  0.00  0.00    +0.000 A 
ATOM     23  C   UNL     1      -1.704  12.482  20.441  0.00  0.00    +0.000 A 
ATOM     24  C   UNL     1      -1.209  12.538  19.143  0.00  0.00    +0.000 A 
ATOM     25  C   UNL     1      -0.160  11.698  18.765  0.00  0.00    +0.000 A 
ENDBRANCH  19  20
ENDBRANCH  14  17
ENDBRANCH   6  11
BRANCH   1  26
ATOM     26  O   UNL     1       6.504   3.598  14.656  0.00  0.00    +0.000 OA
BRANCH  26  27
ATOM     27  C   UNL     1       6.641   4.538  13.591  0.00  0.00    +0.000 C 
BRANCH  27  28
ATOM     28  C   UNL     1       6.819   3.800  12.268  0.00  0.00    +0.000 C 
BRANCH  28  30
ATOM     29  C   UNL     1       4.585   3.330  11.658  0.00  0.00    +0.000 C 
ATOM     30  O   UNL     1       5.799   2.806  12.172  0.00  0.00    +0.000 OA
ENDBRANCH  28  30
ENDBRANCH  27  28
ENDBRANCH  26  27
ENDBRANCH   1  26
TORSDOF 7
ENDMDL
MODEL 3
REMARK VINA RESULT:      -7.0      4.960      7.397
REMARK  Name = 
REMARK  8 active torsions:
REMARK  status: ('A' for Active; 'I' for Inactive)
REMARK    1  A    between atoms: C_1  and  O_2
REMARK    2  A    between atoms: O_2  and  C_3
REMARK    3  A    between atoms: C_3  and  C_4
REMARK    4  A    between atoms: C_4  and  O_5
REMARK    5  A    between atoms: O_5  and  C_6
REMARK    6  A    between atoms: C_11  and  N_12
REMARK    7  A    between atoms: N_15  and  C_16
REMARK    8  A    between atoms: C_18  and  C_19
REMARK                            x       y       z     vdW  Elec       q    Type
REMARK                         _______ _______ _______ _____ _____    ______ ____
ROOT
ATOM      1  C   UNL     1       1.733   3.264  18.439  0.00  0.00    +0.000 A 
ATOM      2  N   UNL     1       0.923   2.526  19.200  0.00  0.00    +0.000 NA
ATOM      3  N   UNL     1       0.619   3.351  20.218  0.00  0.00    +0.000 N 
ATOM      4  C   UNL     1       1.199   4.590  20.133  0.00  0.00    +0.000 A 
ATOM      5  C   UNL     1       1.138   5.725  20.946  0.00  0.00    +0.000 A 
ATOM      6  C   UNL     1       1.895   6.810  20.500  0.00  0.00    +0.000 A 
ATOM      7  N   UNL     1       2.635   6.772  19.367  0.00  0.00    +0.000 NA
ATOM      8  C   UNL     1       2.680   5.663  18.594  0.00  0.00    +0.000 A 
ATOM      9  C   UNL     1       1.956   4.545  18.965  0.00  0.00    +0.000 A 
ATOM     10  H   UNL     1       0.002   3.002  20.946  0.00  0.00    +0.000 HD
ENDROOT
BRANCH   6  11
ATOM     11  N   UNL     1       1.883   8.003  21.245  0.00  0.00    +0.000 N 
ATOM     12  C   UNL     1       1.320   9.209  20.882  0.00  0.00    +0.000 C 
ATOM     13  O   UNL     1       1.332  10.153  21.666  0.00  0.00    +0.000 OA
ATOM     14  N   UNL     1       0.779   9.250  19.630  0.00  0.00    +0.000 N 
ATOM     15  H   UNL     1       2.290   8.011  22.168  0.00  0.00    +0.000 HD
ATOM     16  H   UNL     1       0.821   8.361  19.134  0.00  0.00    +0.000 HD
BRANCH  14  17
ATOM     17  C   UNL     1       0.012  10.290  19.035  0.00  0.00    +0.000 C 
ATOM     18  C   UNL     1      -0.809  11.223  19.869  0.00  0.00    +0.000 C 
ATOM     19  C   UNL     1      -1.503  10.148  19.070  0.00  0.00    +0.000 C 
BRANCH  19  20
ATOM     20  C   UNL     1      -2.408  10.563  17.938  0.00  0.00    +0.000 A 
ATOM     21  C   UNL     1      -2.140  10.258  16.596  0.00  0.00    +0.000 A 
ATOM     22  C   UNL     1      -3.022  10.639  15.576  0.00  0.00    +0.000 A 
ATOM     23  C   UNL     1      -4.194  11.325  15.884  0.00  0.00    +0.000 A 
ATOM     24  C   UNL     1      -4.493  11.620  17.210  0.00  0.00    +0.000 A 
ATOM     25  C   UNL     1      -3.610  11.236  18.220  0.00  0.00    +0.000 A 
ENDBRANCH  19  20
ENDBRANCH  14  17
ENDBRANCH   6  11
BRANCH   1  26
ATOM     26  O   UNL     1       2.282   2.758  17.311  0.00  0.00    +0.000 OA
BRANCH  26  27
ATOM     27  C   UNL     1       3.683   2.515  17.437  0.00  0.00    +0.000 C 
BRANCH  27  28
ATOM     28  C   UNL     1       3.943   1.584  18.617  0.00  0.00    +0.000 C 
BRANCH  28  30
ATOM     29  C   UNL     1       4.216   2.132  20.900  0.00  0.00    +0.000 C 
ATOM     30  O   UNL     1       4.718   2.294  19.583  0.00  0.00    +0.000 OA
ENDBRANCH  28  30
ENDBRANCH  27  28
ENDBRANCH  26  27
ENDBRANCH   1  26
TORSDOF 7
ENDMDL
MODEL 4
REMARK VINA RESULT:      -7.0      3.647      6.118
REMARK  Name = 
REMARK  8 active torsions:
REMARK  status: ('A' for Active; 'I' for Inactive)
REMARK    1  A    between atoms: C_1  and  O_2
REMARK    2  A    between atoms: O_2  and  C_3
REMARK    3  A    between atoms: C_3  and  C_4
REMARK    4  A    between atoms: C_4  and  O_5
REMARK    5  A    between atoms: O_5  and  C_6
REMARK    6  A    between atoms: C_11  and  N_12
REMARK    7  A    between atoms: N_15  and  C_16
REMARK    8  A    between atoms: C_18  and  C_19
REMARK                            x       y       z     vdW  Elec       q    Type
REMARK                         _______ _______ _______ _____ _____    ______ ____
ROOT
ATOM      1  C   UNL     1       3.496   4.013  17.159  0.00  0.00    +0.000 A 
ATOM      2  N   UNL     1       2.926   2.835  17.414  0.00  0.00    +0.000 NA
ATOM      3  N   UNL     1       2.237   3.064  18.547  0.00  0.00    +0.000 N 
ATOM      4  C   UNL     1       2.342   4.345  19.022  0.00  0.00    +0.000 A 
ATOM      5  C   UNL     1       1.792   4.995  20.130  0.00  0.00    +0.000 A 
ATOM      6  C   UNL     1       2.154   6.336  20.266  0.00  0.00    +0.000 A 
ATOM      7  N   UNL     1       2.978   6.965  19.395  0.00  0.00    +0.000 NA
ATOM      8  C   UNL     1       3.500   6.318  18.330  0.00  0.00    +0.000 A 
ATOM      9  C   UNL     1       3.188   4.987  18.121  0.00  0.00    +0.000 A 
ATOM     10  H   UNL     1       1.711   2.293  18.948  0.00  0.00    +0.000 HD
ENDROOT
BRANCH   6  11
ATOM     11  N   UNL     1       1.635   7.077  21.343  0.00  0.00    +0.000 N 
ATOM     12  C   UNL     1       1.060   8.330  21.294  0.00  0.00    +0.000 C 
ATOM     13  O   UNL     1       0.592   8.832  22.312  0.00  0.00    +0.000 OA
ATOM     14  N   UNL     1       1.064   8.930  20.069  0.00  0.00    +0.000 N 
ATOM     15  H   UNL     1       1.633   6.669  22.266  0.00  0.00    +0.000 HD
ATOM     16  H   UNL     1       1.457   8.351  19.328  0.00  0.00    +0.000 HD
BRANCH  14  17
ATOM     17  C   UNL     1       0.428  10.140  19.677  0.00  0.00    +0.000 C 
ATOM     18  C   UNL     1      -0.098  10.326  18.288  0.00  0.00    +0.000 C 
ATOM     19  C   UNL     1       1.171  11.034  18.695  0.00  0.00    +0.000 C 
BRANCH  19  20
ATOM     20  C   UNL     1       1.164  12.540  18.765  0.00  0.00    +0.000 A 
ATOM     21  C   UNL     1       2.333  13.302  18.906  0.00  0.00    +0.000 A 
ATOM     22  C   UNL     1       2.285  14.702  18.939  0.00  0.00    +0.000 A 
ATOM     23  C   UNL     1       1.065  15.365  18.821  0.00  0.00    +0.000 A 
ATOM     24  C   UNL     1      -0.105  14.632  18.659  0.00  0.00    +0.000 A 
ATOM     25  C   UNL     1      -0.050  13.237  18.626  0.00  0.00    +0.000 A 
ENDBRANCH  19  20
ENDBRANCH  14  17
ENDBRANCH   6  11
BRANCH   1  26
ATOM     26  O   UNL     1       4.310   4.178  16.091  0.00  0.00    +0.000 OA
BRANCH  26  27
ATOM     27  C   UNL     1       5.693   4.189  16.443  0.00  0.00    +0.000 C 
BRANCH  27  28
ATOM     28  C   UNL     1       6.300   5.550  16.114  0.00  0.00    +0.000 C 
BRANCH  28  30
ATOM     29  C   UNL     1       7.050   4.807  13.999  0.00  0.00    +0.000 C 
ATOM     30  O   UNL     1       7.424   5.341  15.259  0.00  0.00    +0.000 OA
ENDBRANCH  28  30
ENDBRANCH  27  28
ENDBRANCH  26  27
ENDBRANCH   1  26
TORSDOF 7
ENDMDL
MODEL 5
REMARK VINA RESULT:      -7.0      4.890      7.970
REMARK  Name = 
REMARK  8 active torsions:
REMARK  status: ('A' for Active; 'I' for Inactive)
REMARK    1  A    between atoms: C_1  and  O_2
REMARK    2  A    between atoms: O_2  and  C_3
REMARK    3  A    between atoms: C_3  and  C_4
REMARK    4  A    between atoms: C_4  and  O_5
REMARK    5  A    between atoms: O_5  and  C_6
REMARK    6  A    between atoms: C_11  and  N_12
REMARK    7  A    between atoms: N_15  and  C_16
REMARK    8  A    between atoms: C_18  and  C_19
REMARK                            x       y       z     vdW  Elec       q    Type
REMARK                         _______ _______ _______ _____ _____    ______ ____
ROOT
ATOM      1  C   UNL     1       3.588   6.020  18.092  0.00  0.00    +0.000 A 
ATOM      2  N   UNL     1       3.620   5.162  19.112  0.00  0.00    +0.000 NA
ATOM      3  N   UNL     1       2.915   5.794  20.068  0.00  0.00    +0.000 N 
ATOM      4  C   UNL     1       2.431   7.020  19.694  0.00  0.00    +0.000 A 
ATOM      5  C   UNL     1       1.656   7.977  20.356  0.00  0.00    +0.000 A 
ATOM      6  C   UNL     1       1.370   9.121  19.610  0.00  0.00    +0.000 A 
ATOM      7  N   UNL     1       1.807   9.298  18.341  0.00  0.00    +0.000 NA
ATOM      8  C   UNL     1       2.556   8.359  17.719  0.00  0.00    +0.000 A 
ATOM      9  C   UNL     1       2.881   7.194  18.389  0.00  0.00    +0.000 A 
ATOM     10  H   UNL     1       2.802   5.327  20.963  0.00  0.00    +0.000 HD
ENDROOT
BRANCH   6  11
ATOM     11  N   UNL     1       0.582  10.134  20.187  0.00  0.00    +0.000 N 
ATOM     12  C   UNL     1      -0.661  10.563  19.772  0.00  0.00    +0.000 C 
ATOM     13  O   UNL     1      -1.262  11.419  20.416  0.00  0.00    +0.000 OA
ATOM     14  N   UNL     1      -1.135   9.976  18.635  0.00  0.00    +0.000 N 
ATOM     15  H   UNL     1       0.912  10.599  21.020  0.00  0.00    +0.000 HD
ATOM     16  H   UNL     1      -0.522   9.256  18.257  0.00  0.00    +0.000 HD
BRANCH  14  17
ATOM     17  C   UNL     1      -2.425  10.103  18.050  0.00  0.00    +0.000 C 
ATOM     18  C   UNL     1      -2.605  10.710  16.693  0.00  0.00    +0.000 C 
ATOM     19  C   UNL     1      -2.995  11.508  17.914  0.00  0.00    +0.000 C 
BRANCH  19  20
ATOM     20  C   UNL     1      -4.450  11.843  18.119  0.00  0.00    +0.000 A 
ATOM     21  C   UNL     1      -5.013  12.053  19.387  0.00  0.00    +0.000 A 
ATOM     22  C   UNL     1      -6.365  12.390  19.532  0.00  0.00    +0.000 A 
ATOM     23  C   UNL     1      -7.176  12.533  18.409  0.00  0.00    +0.000 A 
ATOM     24  C   UNL     1      -6.637  12.352  17.141  0.00  0.00    +0.000 A 
ATOM     25  C   UNL     1      -5.288  12.017  17.003  0.00  0.00    +0.000 A 
ENDBRANCH  19  20
ENDBRANCH  14  17
ENDBRANCH   6  11
BRANCH   1  26
ATOM     26  O   UNL     1       4.226   5.745  16.930  0.00  0.00    +0.000 OA
BRANCH  26  27
ATOM     27  C   UNL     1       5.497   5.127  17.128  0.00  0.00    +0.000 C 
BRANCH  27  28
ATOM     28  C   UNL     1       6.443   5.515  15.995  0.00  0.00    +0.000 C 
BRANCH  28  30
ATOM     29  C   UNL     1       7.512   6.343  17.934  0.00  0.00    +0.000 C 
ATOM     30  O   UNL     1       7.421   6.413  16.519  0.00  0.00    +0.000 OA
ENDBRANCH  28  30
ENDBRANCH  27  28
ENDBRANCH  26  27
ENDBRANCH   1  26
TORSDOF 7
ENDMDL
MODEL 6
REMARK VINA RESULT:      -7.0      3.519      8.730
REMARK  Name = 
REMARK  8 active torsions:
REMARK  status: ('A' for Active; 'I' for Inactive)
REMARK    1  A    between atoms: C_1  and  O_2
REMARK    2  A    between atoms: O_2  and  C_3
REMARK    3  A    between atoms: C_3  and  C_4
REMARK    4  A    between atoms: C_4  and  O_5
REMARK    5  A    between atoms: O_5  and  C_6
REMARK    6  A    between atoms: C_11  and  N_12
REMARK    7  A    between atoms: N_15  and  C_16
REMARK    8  A    between atoms: C_18  and  C_19
REMARK                            x       y       z     vdW  Elec       q    Type
REMARK                         _______ _______ _______ _____ _____    ______ ____
ROOT
ATOM      1  C   UNL     1       1.088   9.490  19.573  0.00  0.00    +0.000 A 
ATOM      2  N   UNL     1       0.693   9.667  20.834  0.00  0.00    +0.000 NA
ATOM      3  N   UNL     1       1.026   8.507  21.428  0.00  0.00    +0.000 N 
ATOM      4  C   UNL     1       1.624   7.598  20.594  0.00  0.00    +0.000 A 
ATOM      5  C   UNL     1       2.129   6.311  20.799  0.00  0.00    +0.000 A 
ATOM      6  C   UNL     1       2.671   5.704  19.665  0.00  0.00    +0.000 A 
ATOM      7  N   UNL     1       2.706   6.310  18.454  0.00  0.00    +0.000 NA
ATOM      8  C   UNL     1       2.212   7.556  18.278  0.00  0.00    +0.000 A 
ATOM      9  C   UNL     1       1.660   8.229  19.353  0.00  0.00    +0.000 A 
ATOM     10  H   UNL     1       0.815   8.399  22.416  0.00  0.00    +0.000 HD
ENDROOT
BRANCH   6  11
ATOM     11  N   UNL     1       3.219   4.414  19.776  0.00  0.00    +0.000 N 
ATOM     12  C   UNL     1       4.193   3.848  18.980  0.00  0.00    +0.000 C 
ATOM     13  O   UNL     1       4.621   2.726  19.236  0.00  0.00    +0.000 OA
ATOM     14  N   UNL     1       4.612   4.615  17.932  0.00  0.00    +0.000 N 
ATOM     15  H   UNL     1       2.917   3.815  20.531  0.00  0.00    +0.000 HD
ATOM     16  H   UNL     1       4.178   5.536  17.896  0.00  0.00    +0.000 HD
BRANCH  14  17
ATOM     17  C   UNL     1       5.688   4.369  17.035  0.00  0.00    +0.000 C 
ATOM     18  C   UNL     1       6.815   5.343  16.890  0.00  0.00    +0.000 C 
ATOM     19  C   UNL     1       5.779   5.249  15.797  0.00  0.00    +0.000 C 
BRANCH  19  20
ATOM     20  C   UNL     1       6.207   4.745  14.442  0.00  0.00    +0.000 A 
ATOM     21  C   UNL     1       5.461   3.814  13.704  0.00  0.00    +0.000 A 
ATOM     22  C   UNL     1       5.880   3.392  12.436  0.00  0.00    +0.000 A 
ATOM     23  C   UNL     1       7.050   3.902  11.879  0.00  0.00    +0.000 A 
ATOM     24  C   UNL     1       7.796   4.843  12.581  0.00  0.00    +0.000 A 
ATOM     25  C   UNL     1       7.372   5.259  13.844  0.00  0.00    +0.000 A 
ENDBRANCH  19  20
ENDBRANCH  14  17
ENDBRANCH   6  11
BRANCH   1  26
ATOM     26  O   UNL     1       0.893  10.451  18.640  0.00  0.00    +0.000 OA
BRANCH  26  27
ATOM     27  C   UNL     1      -0.399  10.385  18.038  0.00  0.00    +0.000 C 
BRANCH  27  28
ATOM     28  C   UNL     1      -1.308  11.450  18.644  0.00  0.00    +0.000 C 
BRANCH  28  30
ATOM     29  C   UNL     1      -2.753   9.988  17.477  0.00  0.00    +0.000 C 
ATOM     30  O   UNL     1      -2.641  11.206  18.197  0.00  0.00    +0.000 OA
ENDBRANCH  28  30
ENDBRANCH  27  28
ENDBRANCH  26  27
ENDBRANCH   1  26
TORSDOF 7
ENDMDL
MODEL 7
REMARK VINA RESULT:      -6.9      3.809      6.337
REMARK  Name = 
REMARK  8 active torsions:
REMARK  status: ('A' for Active; 'I' for Inactive)
REMARK    1  A    between atoms: C_1  and  O_2
REMARK    2  A    between atoms: O_2  and  C_3
REMARK    3  A    between atoms: C_3  and  C_4
REMARK    4  A    between atoms: C_4  and  O_5
REMARK    5  A    between atoms: O_5  and  C_6
REMARK    6  A    between atoms: C_11  and  N_12
REMARK    7  A    between atoms: N_15  and  C_16
REMARK    8  A    between atoms: C_18  and  C_19
REMARK                            x       y       z     vdW  Elec       q    Type
REMARK                         _______ _______ _______ _____ _____    ______ ____
ROOT
ATOM      1  C   UNL     1       3.512   3.538  17.357  0.00  0.00    +0.000 A 
ATOM      2  N   UNL     1       2.474   2.702  17.378  0.00  0.00    +0.000 NA
ATOM      3  N   UNL     1       1.645   3.261  18.278  0.00  0.00    +0.000 N 
ATOM      4  C   UNL     1       2.113   4.426  18.828  0.00  0.00    +0.000 A 
ATOM      5  C   UNL     1       1.579   5.315  19.765  0.00  0.00    +0.000 A 
ATOM      6  C   UNL     1       2.390   6.410  20.067  0.00  0.00    +0.000 A 
ATOM      7  N   UNL     1       3.605   6.601  19.500  0.00  0.00    +0.000 NA
ATOM      8  C   UNL     1       4.103   5.728  18.596  0.00  0.00    +0.000 A 
ATOM      9  C   UNL     1       3.360   4.618  18.239  0.00  0.00    +0.000 A 
ATOM     10  H   UNL     1       0.766   2.790  18.473  0.00  0.00    +0.000 HD
ENDROOT
BRANCH   6  11
ATOM     11  N   UNL     1       1.930   7.368  20.988  0.00  0.00    +0.000 N 
ATOM     12  C   UNL     1       1.279   8.552  20.706  0.00  0.00    +0.000 C 
ATOM     13  O   UNL     1       0.877   9.265  21.621  0.00  0.00    +0.000 OA
ATOM     14  N   UNL     1       1.136   8.841  19.380  0.00  0.00    +0.000 N 
ATOM     15  H   UNL     1       2.036   7.193  21.976  0.00  0.00    +0.000 HD
ATOM     16  H   UNL     1       1.492   8.116  18.760  0.00  0.00    +0.000 HD
BRANCH  14  17
ATOM     17  C   UNL     1       0.395   9.899  18.784  0.00  0.00    +0.000 C 
ATOM     18  C   UNL     1      -0.246  10.964  19.619  0.00  0.00    +0.000 C 
ATOM     19  C   UNL     1      -1.113   9.900  18.992  0.00  0.00    +0.000 C 
BRANCH  19  20
ATOM     20  C   UNL     1      -2.103  10.309  17.933  0.00  0.00    +0.000 A 
ATOM     21  C   UNL     1      -3.124  11.244  18.162  0.00  0.00    +0.000 A 
ATOM     22  C   UNL     1      -4.007  11.618  17.142  0.00  0.00    +0.000 A 
ATOM     23  C   UNL     1      -3.878  11.069  15.868  0.00  0.00    +0.000 A 
ATOM     24  C   UNL     1      -2.861  10.157  15.609  0.00  0.00    +0.000 A 
ATOM     25  C   UNL     1      -1.984   9.790  16.631  0.00  0.00    +0.000 A 
ENDBRANCH  19  20
ENDBRANCH  14  17
ENDBRANCH   6  11
BRANCH   1  26
ATOM     26  O   UNL     1       4.589   3.294  16.574  0.00  0.00    +0.000 OA
BRANCH  26  27
ATOM     27  C   UNL     1       5.098   4.472  15.949  0.00  0.00    +0.000 C 
BRANCH  27  28
ATOM     28  C   UNL     1       6.524   4.226  15.466  0.00  0.00    +0.000 C 
BRANCH  28  30
ATOM     29  C   UNL     1       7.553   4.593  17.562  0.00  0.00    +0.000 C 
ATOM     30  O   UNL     1       7.402   5.054  16.228  0.00  0.00    +0.000 OA
ENDBRANCH  28  30
ENDBRANCH  27  28
ENDBRANCH  26  27
ENDBRANCH   1  26
TORSDOF 7
ENDMDL
MODEL 8
REMARK VINA RESULT:      -6.8      3.695      6.404
REMARK  Name = 
REMARK  8 active torsions:
REMARK  status: ('A' for Active; 'I' for Inactive)
REMARK    1  A    between atoms: C_1  and  O_2
REMARK    2  A    between atoms: O_2  and  C_3
REMARK    3  A    between atoms: C_3  and  C_4
REMARK    4  A    between atoms: C_4  and  O_5
REMARK    5  A    between atoms: O_5  and  C_6
REMARK    6  A    between atoms: C_11  and  N_12
REMARK    7  A    between atoms: N_15  and  C_16
REMARK    8  A    between atoms: C_18  and  C_19
REMARK                            x       y       z     vdW  Elec       q    Type
REMARK                         _______ _______ _______ _____ _____    ______ ____
ROOT
ATOM      1  C   UNL     1       3.229   3.756  17.700  0.00  0.00    +0.000 A 
ATOM      2  N   UNL     1       2.689   2.690  18.290  0.00  0.00    +0.000 NA
ATOM      3  N   UNL     1       2.109   3.205  19.389  0.00  0.00    +0.000 N 
ATOM      4  C   UNL     1       2.255   4.562  19.520  0.00  0.00    +0.000 A 
ATOM      5  C   UNL     1       1.809   5.476  20.478  0.00  0.00    +0.000 A 
ATOM      6  C   UNL     1       2.179   6.802  20.243  0.00  0.00    +0.000 A 
ATOM      7  N   UNL     1       2.916   7.179  19.172  0.00  0.00    +0.000 NA
ATOM      8  C   UNL     1       3.338   6.278  18.257  0.00  0.00    +0.000 A 
ATOM      9  C   UNL     1       3.010   4.943  18.414  0.00  0.00    +0.000 A 
ATOM     10  H   UNL     1       1.625   2.569  20.015  0.00  0.00    +0.000 HD
ENDROOT
BRANCH   6  11
ATOM     11  N   UNL     1       1.762   7.797  21.146  0.00  0.00    +0.000 N 
ATOM     12  C   UNL     1       1.070   8.953  20.851  0.00  0.00    +0.000 C 
ATOM     13  O   UNL     1       0.716   9.704  21.756  0.00  0.00    +0.000 OA
ATOM     14  N   UNL     1       0.830   9.173  19.527  0.00  0.00    +0.000 N 
ATOM     15  H   UNL     1       1.939   7.673  22.131  0.00  0.00    +0.000 HD
ATOM     16  H   UNL     1       1.159   8.424  18.919  0.00  0.00    +0.000 HD
BRANCH  14  17
ATOM     17  C   UNL     1       0.029  10.186  18.932  0.00  0.00    +0.000 C 
ATOM     18  C   UNL     1      -0.798  11.113  19.768  0.00  0.00    +0.000 C 
ATOM     19  C   UNL     1      -1.482  10.010  18.997  0.00  0.00    +0.000 C 
BRANCH  19  20
ATOM     20  C   UNL     1      -2.417  10.389  17.877  0.00  0.00    +0.000 A 
ATOM     21  C   UNL     1      -3.527  11.225  18.060  0.00  0.00    +0.000 A 
ATOM     22  C   UNL     1      -4.356  11.574  16.986  0.00  0.00    +0.000 A 
ATOM     23  C   UNL     1      -4.082  11.099  15.706  0.00  0.00    +0.000 A 
ATOM     24  C   UNL     1      -2.974  10.286  15.494  0.00  0.00    +0.000 A 
ATOM     25  C   UNL     1      -2.152   9.943  16.569  0.00  0.00    +0.000 A 
ENDBRANCH  19  20
ENDBRANCH  14  17
ENDBRANCH   6  11
BRANCH   1  26
ATOM     26  O   UNL     1       3.939   3.635  16.554  0.00  0.00    +0.000 OA
BRANCH  26  27
ATOM     27  C   UNL     1       4.978   4.606  16.439  0.00  0.00    +0.000 C 
BRANCH  27  28
ATOM     28  C   UNL     1       6.249   3.945  15.917  0.00  0.00    +0.000 C 
BRANCH  28  30
ATOM     29  C   UNL     1       6.192   3.830  13.556  0.00  0.00    +0.000 C 
ATOM     30  O   UNL     1       6.609   4.577  14.688  0.00  0.00    +0.000 OA
ENDBRANCH  28  30
ENDBRANCH  27  28
ENDBRANCH  26  27
ENDBRANCH   1  26
TORSDOF 7
ENDMDL
MODEL 9
REMARK VINA RESULT:      -6.8      3.524      9.025
REMARK  Name = 
REMARK  8 active torsions:
REMARK  status: ('A' for Active; 'I' for Inactive)
REMARK    1  A    between atoms: C_1  and  O_2
REMARK    2  A    between atoms: O_2  and  C_3
REMARK    3  A    between atoms: C_3  and  C_4
REMARK    4  A    between atoms: C_4  and  O_5
REMARK    5  A    between atoms: O_5  and  C_6
REMARK    6  A    between atoms: C_11  and  N_12
REMARK    7  A    between atoms: N_15  and  C_16
REMARK    8  A    between atoms: C_18  and  C_19
REMARK                            x       y       z     vdW  Elec       q    Type
REMARK                         _______ _______ _______ _____ _____    ______ ____
ROOT
ATOM      1  C   UNL     1       1.211   9.532  18.882  0.00  0.00    +0.000 A 
ATOM      2  N   UNL     1       1.680   9.772  17.657  0.00  0.00    +0.000 NA
ATOM      3  N   UNL     1       2.431   8.686  17.396  0.00  0.00    +0.000 N 
ATOM      4  C   UNL     1       2.453   7.760  18.405  0.00  0.00    +0.000 A 
ATOM      5  C   UNL     1       3.075   6.516  18.539  0.00  0.00    +0.000 A 
ATOM      6  C   UNL     1       2.844   5.869  19.754  0.00  0.00    +0.000 A 
ATOM      7  N   UNL     1       2.076   6.402  20.734  0.00  0.00    +0.000 NA
ATOM      8  C   UNL     1       1.483   7.608  20.585  0.00  0.00    +0.000 A 
ATOM      9  C   UNL     1       1.660   8.313  19.408  0.00  0.00    +0.000 A 
ATOM     10  H   UNL     1       2.906   8.641  16.499  0.00  0.00    +0.000 HD
ENDROOT
BRANCH   6  11
ATOM     11  N   UNL     1       3.417   4.604  19.974  0.00  0.00    +0.000 N 
ATOM     12  C   UNL     1       4.360   3.968  19.194  0.00  0.00    +0.000 C 
ATOM     13  O   UNL     1       4.818   2.884  19.545  0.00  0.00    +0.000 OA
ATOM     14  N   UNL     1       4.715   4.623  18.052  0.00  0.00    +0.000 N 
ATOM     15  H   UNL     1       3.162   4.085  20.801  0.00  0.00    +0.000 HD
ATOM     16  H   UNL     1       4.266   5.530  17.941  0.00  0.00    +0.000 HD
BRANCH  14  17
ATOM     17  C   UNL     1       5.751   4.296  17.133  0.00  0.00    +0.000 C 
ATOM     18  C   UNL     1       6.996   5.121  17.040  0.00  0.00    +0.000 C 
ATOM     19  C   UNL     1       5.958   5.232  15.951  0.00  0.00    +0.000 C 
BRANCH  19  20
ATOM     20  C   UNL     1       6.316   4.763  14.564  0.00  0.00    +0.000 A 
ATOM     21  C   UNL     1       5.516   3.877  13.828  0.00  0.00    +0.000 A 
ATOM     22  C   UNL     1       5.872   3.487  12.531  0.00  0.00    +0.000 A 
ATOM     23  C   UNL     1       7.032   3.984  11.943  0.00  0.00    +0.000 A 
ATOM     24  C   UNL     1       7.831   4.881  12.644  0.00  0.00    +0.000 A 
ATOM     25  C   UNL     1       7.470   5.266  13.936  0.00  0.00    +0.000 A 
ENDBRANCH  19  20
ENDBRANCH  14  17
ENDBRANCH   6  11
BRANCH   1  26
ATOM     26  O   UNL     1       0.420  10.431  19.514  0.00  0.00    +0.000 OA
BRANCH  26  27
ATOM     27  C   UNL     1       0.767  10.605  20.887  0.00  0.00    +0.000 C 
BRANCH  27  28
ATOM     28  C   UNL     1      -0.452  11.078  21.673  0.00  0.00    +0.000 C 
BRANCH  28  30
ATOM     29  C   UNL     1       0.003   9.519  23.390  0.00  0.00    +0.000 C 
ATOM     30  O   UNL     1      -0.189  10.886  23.063  0.00  0.00    +0.000 OA
ENDBRANCH  28  30
ENDBRANCH  27  28
ENDBRANCH  26  27
ENDBRANCH   1  26
TORSDOF 7
ENDMDL
