MODEL 1
REMARK VINA RESULT:      -8.0      0.000      0.000
REMARK  Name = 
REMARK  11 active torsions:
REMARK  status: ('A' for Active; 'I' for Inactive)
REMARK    1  A    between atoms: C_1  and  C_2
REMARK    2  A    between atoms: C_2  and  C_3
REMARK    3  A    between atoms: C_2  and  N_4
REMARK    4  A    between atoms: C_8  and  C_9
REMARK    5  A    between atoms: C_14  and  O_15
REMARK    6  A    between atoms: O_15  and  C_16
REMARK    7  A    between atoms: C_16  and  C_17
REMARK    8  A    between atoms: C_17  and  O_19
REMARK    9  A    between atoms: N_22  and  C_23
REMARK   10  A    between atoms: C_27  and  C_28
REMARK   11  A    between atoms: C_28  and  O_30
REMARK                            x       y       z     vdW  Elec       q    Type
REMARK                         _______ _______ _______ _____ _____    ______ ____
ROOT
ATOM      1  N   UNL     1       2.104   4.270  19.792  0.00  0.00    +0.000 N 
ATOM      2  C   UNL     1       3.172   3.743  19.074  0.00  0.00    +0.000 C 
ATOM      3  O   UNL     1       3.407   2.560  18.861  0.00  0.00    +0.000 OA
ATOM      4  C   UNL     1       4.098   4.836  18.650  0.00  0.00    +0.000 C 
ATOM      5  C   UNL     1       5.305   4.623  18.100  0.00  0.00    +0.000 C 
ATOM      6  S   UNL     1       3.467   6.352  19.141  0.00  0.00    +0.000 S 
ATOM      7  C   UNL     1       2.066   5.642  19.916  0.00  0.00    +0.000 C 
ATOM      8  N   UNL     1       1.116   6.271  20.533  0.00  0.00    +0.000 NA
ENDROOT
BRANCH   5   9
ATOM      9  C   UNL     1       6.353   5.661  18.035  0.00  0.00    +0.000 A 
ATOM     10  C   UNL     1       7.244   5.676  19.130  0.00  0.00    +0.000 A 
ATOM     11  C   UNL     1       8.253   6.630  19.231  0.00  0.00    +0.000 A 
ATOM     12  C   UNL     1       8.375   7.600  18.249  0.00  0.00    +0.000 A 
ATOM     13  C   UNL     1       7.504   7.601  17.158  0.00  0.00    +0.000 A 
ATOM     14  C   UNL     1       6.509   6.616  17.012  0.00  0.00    +0.000 A 
BRANCH  14  15
ATOM     15  O   UNL     1       5.684   6.544  15.907  0.00  0.00    +0.000 OA
BRANCH  15  16
ATOM     16  C   UNL     1       5.543   5.221  15.358  0.00  0.00    +0.000 C 
BRANCH  16  17
ATOM     17  C   UNL     1       6.711   4.829  14.465  0.00  0.00    +0.000 C 
ATOM     18  O   UNL     1       7.645   5.578  14.212  0.00  0.00    +0.000 OA
BRANCH  17  19
ATOM     19  O   UNL     1       6.608   3.581  13.962  0.00  0.00    +0.000 OA
ATOM     20  H   UNL     1       7.226   3.473  13.208  0.00  0.00    +0.000 HD
ENDBRANCH  17  19
ENDBRANCH  16  17
ENDBRANCH  15  16
ENDBRANCH  14  15
ENDBRANCH   5   9
BRANCH   8  21
ATOM     21  C   UNL     1       1.076   7.673  20.648  0.00  0.00    +0.000 A 
ATOM     22  C   UNL     1       0.898   8.253  21.909  0.00  0.00    +0.000 A 
ATOM     23  C   UNL     1       0.851   9.645  22.065  0.00  0.00    +0.000 A 
ATOM     24  C   UNL     1       1.031  10.475  20.959  0.00  0.00    +0.000 A 
ATOM     25  C   UNL     1       1.211   9.907  19.698  0.00  0.00    +0.000 A 
ATOM     26  C   UNL     1       1.148   8.520  19.538  0.00  0.00    +0.000 A 
BRANCH  25  27
ATOM     27  C   UNL     1       1.471  10.786  18.537  0.00  0.00    +0.000 C 
ATOM     28  O   UNL     1       1.417  11.998  18.592  0.00  0.00    +0.000 OA
BRANCH  27  29
ATOM     29  O   UNL     1       1.845  10.099  17.432  0.00  0.00    +0.000 OA
ATOM     30  H   UNL     1       1.691  10.554  16.583  0.00  0.00    +0.000 HD
ENDBRANCH  27  29
ENDBRANCH  25  27
ENDBRANCH   8  21
BRANCH   1  32
ATOM     31  C   UNL     1       0.435   2.402  19.601  0.00  0.00    +0.000 C 
ATOM     32  C   UNL     1       1.148   3.405  20.509  0.00  0.00    +0.000 C 
ATOM     33  C   UNL     1       1.815   2.694  21.692  0.00  0.00    +0.000 C 
ENDBRANCH   1  32
TORSDOF 9
ENDMDL
MODEL 2
REMARK VINA RESULT:      -7.8      1.469      1.965
REMARK  Name = 
REMARK  11 active torsions:
REMARK  status: ('A' for Active; 'I' for Inactive)
REMARK    1  A    between atoms: C_1  and  C_2
REMARK    2  A    between atoms: C_2  and  C_3
REMARK    3  A    between atoms: C_2  and  N_4
REMARK    4  A    between atoms: C_8  and  C_9
REMARK    5  A    between atoms: C_14  and  O_15
REMARK    6  A    between atoms: O_15  and  C_16
REMARK    7  A    between atoms: C_16  and  C_17
REMARK    8  A    between atoms: C_17  and  O_19
REMARK    9  A    between atoms: N_22  and  C_23
REMARK   10  A    between atoms: C_27  and  C_28
REMARK   11  A    between atoms: C_28  and  O_30
REMARK                            x       y       z     vdW  Elec       q    Type
REMARK                         _______ _______ _______ _____ _____    ______ ____
ROOT
ATOM      1  N   UNL     1       2.145   4.128  19.693  0.00  0.00    +0.000 N 
ATOM      2  C   UNL     1       3.237   3.635  18.989  0.00  0.00    +0.000 C 
ATOM      3  O   UNL     1       3.506   2.461  18.768  0.00  0.00    +0.000 OA
ATOM      4  C   UNL     1       4.142   4.756  18.590  0.00  0.00    +0.000 C 
ATOM      5  C   UNL     1       5.362   4.579  18.058  0.00  0.00    +0.000 C 
ATOM      6  S   UNL     1       3.464   6.251  19.084  0.00  0.00    +0.000 S 
ATOM      7  C   UNL     1       2.069   5.497  19.829  0.00  0.00    +0.000 C 
ATOM      8  N   UNL     1       1.093   6.096  20.436  0.00  0.00    +0.000 NA
ENDROOT
BRANCH   5   9
ATOM      9  C   UNL     1       6.384   5.645  18.020  0.00  0.00    +0.000 A 
ATOM     10  C   UNL     1       7.259   5.669  19.127  0.00  0.00    +0.000 A 
ATOM     11  C   UNL     1       8.242   6.647  19.253  0.00  0.00    +0.000 A 
ATOM     12  C   UNL     1       8.353   7.632  18.284  0.00  0.00    +0.000 A 
ATOM     13  C   UNL     1       7.497   7.624  17.182  0.00  0.00    +0.000 A 
ATOM     14  C   UNL     1       6.529   6.616  17.011  0.00  0.00    +0.000 A 
BRANCH  14  15
ATOM     15  O   UNL     1       5.721   6.537  15.894  0.00  0.00    +0.000 OA
BRANCH  15  16
ATOM     16  C   UNL     1       5.579   5.208  15.358  0.00  0.00    +0.000 C 
BRANCH  16  17
ATOM     17  C   UNL     1       6.730   4.819  14.443  0.00  0.00    +0.000 C 
ATOM     18  O   UNL     1       7.668   5.562  14.188  0.00  0.00    +0.000 OA
BRANCH  17  19
ATOM     19  O   UNL     1       6.606   3.580  13.920  0.00  0.00    +0.000 OA
ATOM     20  H   UNL     1       7.282   2.985  14.310  0.00  0.00    +0.000 HD
ENDBRANCH  17  19
ENDBRANCH  16  17
ENDBRANCH  15  16
ENDBRANCH  14  15
ENDBRANCH   5   9
BRANCH   8  21
ATOM     21  C   UNL     1       1.015   7.495  20.564  0.00  0.00    +0.000 A 
ATOM     22  C   UNL     1       1.462   8.306  19.514  0.00  0.00    +0.000 A 
ATOM     23  C   UNL     1       1.403   9.702  19.604  0.00  0.00    +0.000 A 
ATOM     24  C   UNL     1       0.850  10.305  20.733  0.00  0.00    +0.000 A 
ATOM     25  C   UNL     1       0.400   9.506  21.784  0.00  0.00    +0.000 A 
ATOM     26  C   UNL     1       0.563   8.119  21.730  0.00  0.00    +0.000 A 
BRANCH  25  27
ATOM     27  C   UNL     1      -0.250  10.141  22.951  0.00  0.00    +0.000 C 
ATOM     28  O   UNL     1      -1.106  10.998  22.855  0.00  0.00    +0.000 OA
BRANCH  27  29
ATOM     29  O   UNL     1       0.157   9.614  24.130  0.00  0.00    +0.000 OA
ATOM     30  H   UNL     1       0.663   8.783  24.067  0.00  0.00    +0.000 HD
ENDBRANCH  27  29
ENDBRANCH  25  27
ENDBRANCH   8  21
BRANCH   1  32
ATOM     31  C   UNL     1       0.565   2.188  19.467  0.00  0.00    +0.000 C 
ATOM     32  C   UNL     1       1.200   3.231  20.387  0.00  0.00    +0.000 C 
ATOM     33  C   UNL     1       1.851   2.565  21.603  0.00  0.00    +0.000 C 
ENDBRANCH   1  32
TORSDOF 9
ENDMDL
MODEL 3
REMARK VINA RESULT:      -7.4      1.933      3.384
REMARK  Name = 
REMARK  11 active torsions:
REMARK  status: ('A' for Active; 'I' for Inactive)
REMARK    1  A    between atoms: C_1  and  C_2
REMARK    2  A    between atoms: C_2  and  C_3
REMARK    3  A    between atoms: C_2  and  N_4
REMARK    4  A    between atoms: C_8  and  C_9
REMARK    5  A    between atoms: C_14  and  O_15
REMARK    6  A    between atoms: O_15  and  C_16
REMARK    7  A    between atoms: C_16  and  C_17
REMARK    8  A    between atoms: C_17  and  O_19
REMARK    9  A    between atoms: N_22  and  C_23
REMARK   10  A    between atoms: C_27  and  C_28
REMARK   11  A    between atoms: C_28  and  O_30
REMARK                            x       y       z     vdW  Elec       q    Type
REMARK                         _______ _______ _______ _____ _____    ______ ____
ROOT
ATOM      1  N   UNL     1       2.750   3.772  19.554  0.00  0.00    +0.000 N 
ATOM      2  C   UNL     1       3.439   2.886  18.733  0.00  0.00    +0.000 C 
ATOM      3  O   UNL     1       3.635   1.694  18.933  0.00  0.00    +0.000 OA
ATOM      4  C   UNL     1       4.021   3.613  17.564  0.00  0.00    +0.000 C 
ATOM      5  C   UNL     1       4.885   3.063  16.697  0.00  0.00    +0.000 C 
ATOM      6  S   UNL     1       3.564   5.264  17.623  0.00  0.00    +0.000 S 
ATOM      7  C   UNL     1       2.680   5.080  19.124  0.00  0.00    +0.000 C 
ATOM      8  N   UNL     1       2.048   6.006  19.774  0.00  0.00    +0.000 NA
ENDROOT
BRANCH   5   9
ATOM      9  C   UNL     1       5.735   3.864  15.792  0.00  0.00    +0.000 A 
ATOM     10  C   UNL     1       5.219   4.037  14.490  0.00  0.00    +0.000 A 
ATOM     11  C   UNL     1       5.931   4.726  13.513  0.00  0.00    +0.000 A 
ATOM     12  C   UNL     1       7.183   5.237  13.815  0.00  0.00    +0.000 A 
ATOM     13  C   UNL     1       7.711   5.077  15.097  0.00  0.00    +0.000 A 
ATOM     14  C   UNL     1       6.985   4.426  16.113  0.00  0.00    +0.000 A 
BRANCH  14  15
ATOM     15  O   UNL     1       7.446   4.320  17.410  0.00  0.00    +0.000 OA
BRANCH  15  16
ATOM     16  C   UNL     1       7.558   5.576  18.104  0.00  0.00    +0.000 C 
BRANCH  16  17
ATOM     17  C   UNL     1       7.120   5.485  19.558  0.00  0.00    +0.000 C 
ATOM     18  O   UNL     1       5.950   5.384  19.902  0.00  0.00    +0.000 OA
BRANCH  17  19
ATOM     19  O   UNL     1       8.145   5.549  20.434  0.00  0.00    +0.000 OA
ATOM     20  H   UNL     1       8.820   4.873  20.206  0.00  0.00    +0.000 HD
ENDBRANCH  17  19
ENDBRANCH  16  17
ENDBRANCH  15  16
ENDBRANCH  14  15
ENDBRANCH   5   9
BRANCH   8  21
ATOM     21  C   UNL     1       1.971   7.338  19.325  0.00  0.00    +0.000 A 
ATOM     22  C   UNL     1       2.400   7.651  18.031  0.00  0.00    +0.000 A 
ATOM     23  C   UNL     1       2.342   8.965  17.548  0.00  0.00    +0.000 A 
ATOM     24  C   UNL     1       1.806   9.977  18.345  0.00  0.00    +0.000 A 
ATOM     25  C   UNL     1       1.374   9.673  19.637  0.00  0.00    +0.000 A 
ATOM     26  C   UNL     1       1.537   8.383  20.146  0.00  0.00    +0.000 A 
BRANCH  25  27
ATOM     27  C   UNL     1       0.743  10.730  20.457  0.00  0.00    +0.000 C 
ATOM     28  O   UNL     1       0.050  11.613  19.991  0.00  0.00    +0.000 OA
BRANCH  27  29
ATOM     29  O   UNL     1       0.959  10.566  21.783  0.00  0.00    +0.000 OA
ATOM     30  H   UNL     1       1.842  10.832  22.100  0.00  0.00    +0.000 HD
ENDBRANCH  27  29
ENDBRANCH  25  27
ENDBRANCH   8  21
BRANCH   1  32
ATOM     31  C   UNL     1       0.820   2.839  20.863  0.00  0.00    +0.000 C 
ATOM     32  C   UNL     1       2.252   3.371  20.884  0.00  0.00    +0.000 C 
ATOM     33  C   UNL     1       3.198   2.370  21.557  0.00  0.00    +0.000 C 
ENDBRANCH   1  32
TORSDOF 9
ENDMDL
MODEL 4
REMARK VINA RESULT:      -7.2      5.682     10.874
REMARK  Name = 
REMARK  11 active torsions:
REMARK  status: ('A' for Active; 'I' for Inactive)
REMARK    1  A    between atoms: C_1  and  C_2
REMARK    2  A    between atoms: C_2  and  C_3
REMARK    3  A    between atoms: C_2  and  N_4
REMARK    4  A    between atoms: C_8  and  C_9
REMARK    5  A    between atoms: C_14  and  O_15
REMARK    6  A    between atoms: O_15  and  C_16
REMARK    7  A    between atoms: C_16  and  C_17
REMARK    8  A    between atoms: C_17  and  O_19
REMARK    9  A    between atoms: N_22  and  C_23
REMARK   10  A    between atoms: C_27  and  C_28
REMARK   11  A    between atoms: C_28  and  O_30
REMARK                            x       y       z     vdW  Elec       q    Type
REMARK                         _______ _______ _______ _____ _____    ______ ____
ROOT
ATOM      1  N   UNL     1      -1.600  14.325  21.956  0.00  0.00    +0.000 N 
ATOM      2  C   UNL     1      -2.838  14.783  21.520  0.00  0.00    +0.000 C 
ATOM      3  O   UNL     1      -3.331  15.886  21.721  0.00  0.00    +0.000 OA
ATOM      4  C   UNL     1      -3.575  13.687  20.821  0.00  0.00    +0.000 C 
ATOM      5  C   UNL     1      -4.863  13.771  20.448  0.00  0.00    +0.000 C 
ATOM      6  S   UNL     1      -2.594  12.284  20.747  0.00  0.00    +0.000 S 
ATOM      7  C   UNL     1      -1.271  13.030  21.622  0.00  0.00    +0.000 C 
ATOM      8  N   UNL     1      -0.141  12.481  21.937  0.00  0.00    +0.000 NA
ENDROOT
BRANCH   5   9
ATOM      9  C   UNL     1      -5.681  12.588  20.113  0.00  0.00    +0.000 A 
ATOM     10  C   UNL     1      -6.609  12.206  21.106  0.00  0.00    +0.000 A 
ATOM     11  C   UNL     1      -7.414  11.081  20.952  0.00  0.00    +0.000 A 
ATOM     12  C   UNL     1      -7.290  10.306  19.810  0.00  0.00    +0.000 A 
ATOM     13  C   UNL     1      -6.380  10.668  18.816  0.00  0.00    +0.000 A 
ATOM     14  C   UNL     1      -5.592  11.829  18.931  0.00  0.00    +0.000 A 
BRANCH  14  15
ATOM     15  O   UNL     1      -4.739  12.255  17.932  0.00  0.00    +0.000 OA
BRANCH  15  16
ATOM     16  C   UNL     1      -4.721  11.409  16.767  0.00  0.00    +0.000 C 
BRANCH  16  17
ATOM     17  C   UNL     1      -3.378  10.725  16.560  0.00  0.00    +0.000 C 
ATOM     18  O   UNL     1      -2.619  10.997  15.640  0.00  0.00    +0.000 OA
BRANCH  17  19
ATOM     19  O   UNL     1      -3.114   9.771  17.479  0.00  0.00    +0.000 OA
ATOM     20  H   UNL     1      -3.733   9.019  17.366  0.00  0.00    +0.000 HD
ENDBRANCH  17  19
ENDBRANCH  16  17
ENDBRANCH  15  16
ENDBRANCH  14  15
ENDBRANCH   5   9
BRANCH   8  21
ATOM     21  C   UNL     1       0.194  11.161  21.585  0.00  0.00    +0.000 A 
ATOM     22  C   UNL     1      -0.035  10.127  22.500  0.00  0.00    +0.000 A 
ATOM     23  C   UNL     1       0.287   8.800  22.187  0.00  0.00    +0.000 A 
ATOM     24  C   UNL     1       0.799   8.486  20.928  0.00  0.00    +0.000 A 
ATOM     25  C   UNL     1       1.028   9.509  20.008  0.00  0.00    +0.000 A 
ATOM     26  C   UNL     1       0.806  10.840  20.369  0.00  0.00    +0.000 A 
BRANCH  25  27
ATOM     27  C   UNL     1       1.505   9.169  18.650  0.00  0.00    +0.000 C 
ATOM     28  O   UNL     1       2.133   8.160  18.396  0.00  0.00    +0.000 OA
BRANCH  27  29
ATOM     29  O   UNL     1       1.106  10.062  17.714  0.00  0.00    +0.000 OA
ATOM     30  H   UNL     1       0.232  10.466  17.864  0.00  0.00    +0.000 HD
ENDBRANCH  27  29
ENDBRANCH  25  27
ENDBRANCH   8  21
BRANCH   1  32
ATOM     31  C   UNL     1      -0.399  16.505  22.293  0.00  0.00    +0.000 C 
ATOM     32  C   UNL     1      -0.749  15.128  22.856  0.00  0.00    +0.000 C 
ATOM     33  C   UNL     1      -1.368  15.248  24.253  0.00  0.00    +0.000 C 
ENDBRANCH   1  32
TORSDOF 9
ENDMDL
MODEL 5
REMARK VINA RESULT:      -7.1      6.348     11.751
REMARK  Name = 
REMARK  11 active torsions:
REMARK  status: ('A' for Active; 'I' for Inactive)
REMARK    1  A    between atoms: C_1  and  C_2
REMARK    2  A    between atoms: C_2  and  C_3
REMARK    3  A    between atoms: C_2  and  N_4
REMARK    4  A    between atoms: C_8  and  C_9
REMARK    5  A    between atoms: C_14  and  O_15
REMARK    6  A    between atoms: O_15  and  C_16
REMARK    7  A    between atoms: C_16  and  C_17
REMARK    8  A    between atoms: C_17  and  O_19
REMARK    9  A    between atoms: N_22  and  C_23
REMARK   10  A    between atoms: C_27  and  C_28
REMARK   11  A    between atoms: C_28  and  O_30
REMARK                            x       y       z     vdW  Elec       q    Type
REMARK                         _______ _______ _______ _____ _____    ______ ____
ROOT
ATOM      1  N   UNL     1      -1.814  14.511  23.118  0.00  0.00    +0.000 N 
ATOM      2  C   UNL     1      -3.074  15.051  22.888  0.00  0.00    +0.000 C 
ATOM      3  O   UNL     1      -3.484  16.148  23.245  0.00  0.00    +0.000 OA
ATOM      4  C   UNL     1      -3.946  14.051  22.200  0.00  0.00    +0.000 C 
ATOM      5  C   UNL     1      -5.265  14.216  22.008  0.00  0.00    +0.000 C 
ATOM      6  S   UNL     1      -3.050  12.626  21.879  0.00  0.00    +0.000 S 
ATOM      7  C   UNL     1      -1.593  13.240  22.633  0.00  0.00    +0.000 C 
ATOM      8  N   UNL     1      -0.459  12.624  22.751  0.00  0.00    +0.000 NA
ENDROOT
BRANCH   5   9
ATOM      9  C   UNL     1      -6.175  13.099  21.683  0.00  0.00    +0.000 A 
ATOM     10  C   UNL     1      -6.982  12.658  22.753  0.00  0.00    +0.000 A 
ATOM     11  C   UNL     1      -7.852  11.582  22.610  0.00  0.00    +0.000 A 
ATOM     12  C   UNL     1      -7.916  10.913  21.398  0.00  0.00    +0.000 A 
ATOM     13  C   UNL     1      -7.127  11.334  20.327  0.00  0.00    +0.000 A 
ATOM     14  C   UNL     1      -6.277  12.451  20.437  0.00  0.00    +0.000 A 
BRANCH  14  15
ATOM     15  O   UNL     1      -5.543  12.939  19.374  0.00  0.00    +0.000 OA
BRANCH  15  16
ATOM     16  C   UNL     1      -4.962  11.922  18.538  0.00  0.00    +0.000 C 
BRANCH  16  17
ATOM     17  C   UNL     1      -5.392  12.040  17.083  0.00  0.00    +0.000 C 
ATOM     18  O   UNL     1      -6.195  12.874  16.685  0.00  0.00    +0.000 OA
BRANCH  17  19
ATOM     19  O   UNL     1      -4.818  11.123  16.276  0.00  0.00    +0.000 OA
ATOM     20  H   UNL     1      -4.800  10.250  16.724  0.00  0.00    +0.000 HD
ENDBRANCH  17  19
ENDBRANCH  16  17
ENDBRANCH  15  16
ENDBRANCH  14  15
ENDBRANCH   5   9
BRANCH   8  21
ATOM     21  C   UNL     1      -0.237  11.330  22.246  0.00  0.00    +0.000 A 
ATOM     22  C   UNL     1      -0.448  10.223  23.076  0.00  0.00    +0.000 A 
ATOM     23  C   UNL     1      -0.235   8.919  22.611  0.00  0.00    +0.000 A 
ATOM     24  C   UNL     1       0.149   8.706  21.287  0.00  0.00    +0.000 A 
ATOM     25  C   UNL     1       0.360   9.802  20.451  0.00  0.00    +0.000 A 
ATOM     26  C   UNL     1       0.250  11.101  20.955  0.00  0.00    +0.000 A 
BRANCH  25  27
ATOM     27  C   UNL     1       0.699   9.575  19.029  0.00  0.00    +0.000 C 
ATOM     28  O   UNL     1       0.099  10.093  18.108  0.00  0.00    +0.000 OA
BRANCH  27  29
ATOM     29  O   UNL     1       1.790   8.789  18.868  0.00  0.00    +0.000 OA
ATOM     30  H   UNL     1       1.744   8.152  18.132  0.00  0.00    +0.000 HD
ENDBRANCH  27  29
ENDBRANCH  25  27
ENDBRANCH   8  21
BRANCH   1  32
ATOM     31  C   UNL     1      -0.252  16.467  23.329  0.00  0.00    +0.000 C 
ATOM     32  C   UNL     1      -0.818  15.197  23.964  0.00  0.00    +0.000 C 
ATOM     33  C   UNL     1      -1.375  15.485  25.362  0.00  0.00    +0.000 C 
ENDBRANCH   1  32
TORSDOF 9
ENDMDL
MODEL 6
REMARK VINA RESULT:      -7.1      2.120      7.576
REMARK  Name = 
REMARK  11 active torsions:
REMARK  status: ('A' for Active; 'I' for Inactive)
REMARK    1  A    between atoms: C_1  and  C_2
REMARK    2  A    between atoms: C_2  and  C_3
REMARK    3  A    between atoms: C_2  and  N_4
REMARK    4  A    between atoms: C_8  and  C_9
REMARK    5  A    between atoms: C_14  and  O_15
REMARK    6  A    between atoms: O_15  and  C_16
REMARK    7  A    between atoms: C_16  and  C_17
REMARK    8  A    between atoms: C_17  and  O_19
REMARK    9  A    between atoms: N_22  and  C_23
REMARK   10  A    between atoms: C_27  and  C_28
REMARK   11  A    between atoms: C_28  and  O_30
REMARK                            x       y       z     vdW  Elec       q    Type
REMARK                         _______ _______ _______ _____ _____    ______ ____
ROOT
ATOM      1  N   UNL     1       2.429   4.330  19.825  0.00  0.00    +0.000 N 
ATOM      2  C   UNL     1       1.562   5.226  20.441  0.00  0.00    +0.000 C 
ATOM      3  O   UNL     1       0.574   4.955  21.110  0.00  0.00    +0.000 OA
ATOM      4  C   UNL     1       1.942   6.629  20.098  0.00  0.00    +0.000 C 
ATOM      5  C   UNL     1       1.191   7.702  20.395  0.00  0.00    +0.000 C 
ATOM      6  S   UNL     1       3.356   6.626  19.128  0.00  0.00    +0.000 S 
ATOM      7  C   UNL     1       3.467   4.878  19.102  0.00  0.00    +0.000 C 
ATOM      8  N   UNL     1       4.365   4.164  18.499  0.00  0.00    +0.000 NA
ENDROOT
BRANCH   5   9
ATOM      9  C   UNL     1       1.368   9.014  19.740  0.00  0.00    +0.000 A 
ATOM     10  C   UNL     1       1.691   8.955  18.368  0.00  0.00    +0.000 A 
ATOM     11  C   UNL     1       1.937  10.109  17.630  0.00  0.00    +0.000 A 
ATOM     12  C   UNL     1       1.883  11.344  18.257  0.00  0.00    +0.000 A 
ATOM     13  C   UNL     1       1.564  11.423  19.614  0.00  0.00    +0.000 A 
ATOM     14  C   UNL     1       1.265  10.271  20.366  0.00  0.00    +0.000 A 
BRANCH  14  15
ATOM     15  O   UNL     1       0.871  10.323  21.688  0.00  0.00    +0.000 OA
BRANCH  15  16
ATOM     16  C   UNL     1      -0.254  11.187  21.938  0.00  0.00    +0.000 C 
BRANCH  16  17
ATOM     17  C   UNL     1      -1.162  10.664  23.040  0.00  0.00    +0.000 C 
ATOM     18  O   UNL     1      -2.086  11.313  23.514  0.00  0.00    +0.000 OA
BRANCH  17  19
ATOM     19  O   UNL     1      -0.838   9.424  23.461  0.00  0.00    +0.000 OA
ATOM     20  H   UNL     1      -0.616   9.444  24.417  0.00  0.00    +0.000 HD
ENDBRANCH  17  19
ENDBRANCH  16  17
ENDBRANCH  15  16
ENDBRANCH  14  15
ENDBRANCH   5   9
BRANCH   8  21
ATOM     21  C   UNL     1       5.427   4.729  17.770  0.00  0.00    +0.000 A 
ATOM     22  C   UNL     1       6.365   5.529  18.432  0.00  0.00    +0.000 A 
ATOM     23  C   UNL     1       7.436   6.111  17.741  0.00  0.00    +0.000 A 
ATOM     24  C   UNL     1       7.606   5.858  16.380  0.00  0.00    +0.000 A 
ATOM     25  C   UNL     1       6.677   5.060  15.712  0.00  0.00    +0.000 A 
ATOM     26  C   UNL     1       5.555   4.574  16.386  0.00  0.00    +0.000 A 
BRANCH  25  27
ATOM     27  C   UNL     1       6.895   4.734  14.285  0.00  0.00    +0.000 C 
ATOM     28  O   UNL     1       6.246   3.903  13.682  0.00  0.00    +0.000 OA
BRANCH  27  29
ATOM     29  O   UNL     1       7.843   5.510  13.708  0.00  0.00    +0.000 OA
ATOM     30  H   UNL     1       7.559   6.000  12.914  0.00  0.00    +0.000 HD
ENDBRANCH  27  29
ENDBRANCH  25  27
ENDBRANCH   8  21
BRANCH   1  32
ATOM     31  C   UNL     1       1.926   2.297  21.211  0.00  0.00    +0.000 C 
ATOM     32  C   UNL     1       2.169   2.877  19.819  0.00  0.00    +0.000 C 
ATOM     33  C   UNL     1       1.021   2.519  18.868  0.00  0.00    +0.000 C 
ENDBRANCH   1  32
TORSDOF 9
ENDMDL
MODEL 7
REMARK VINA RESULT:      -7.1      2.234      7.438
REMARK  Name = 
REMARK  11 active torsions:
REMARK  status: ('A' for Active; 'I' for Inactive)
REMARK    1  A    between atoms: C_1  and  C_2
REMARK    2  A    between atoms: C_2  and  C_3
REMARK    3  A    between atoms: C_2  and  N_4
REMARK    4  A    between atoms: C_8  and  C_9
REMARK    5  A    between atoms: C_14  and  O_15
REMARK    6  A    between atoms: O_15  and  C_16
REMARK    7  A    between atoms: C_16  and  C_17
REMARK    8  A    between atoms: C_17  and  O_19
REMARK    9  A    between atoms: N_22  and  C_23
REMARK   10  A    between atoms: C_27  and  C_28
REMARK   11  A    between atoms: C_28  and  O_30
REMARK                            x       y       z     vdW  Elec       q    Type
REMARK                         _______ _______ _______ _____ _____    ______ ____
ROOT
ATOM      1  N   UNL     1       2.473   4.186  19.765  0.00  0.00    +0.000 N 
ATOM      2  C   UNL     1       1.622   5.020  20.481  0.00  0.00    +0.000 C 
ATOM      3  O   UNL     1       0.684   4.685  21.192  0.00  0.00    +0.000 OA
ATOM      4  C   UNL     1       1.943   6.452  20.195  0.00  0.00    +0.000 C 
ATOM      5  C   UNL     1       1.183   7.483  20.596  0.00  0.00    +0.000 C 
ATOM      6  S   UNL     1       3.294   6.543  19.143  0.00  0.00    +0.000 S 
ATOM      7  C   UNL     1       3.449   4.803  19.013  0.00  0.00    +0.000 C 
ATOM      8  N   UNL     1       4.327   4.150  18.318  0.00  0.00    +0.000 NA
ENDROOT
BRANCH   5   9
ATOM      9  C   UNL     1       1.285   8.834  20.006  0.00  0.00    +0.000 A 
ATOM     10  C   UNL     1       1.534   8.859  18.617  0.00  0.00    +0.000 A 
ATOM     11  C   UNL     1       1.704  10.058  17.932  0.00  0.00    +0.000 A 
ATOM     12  C   UNL     1       1.649  11.255  18.629  0.00  0.00    +0.000 A 
ATOM     13  C   UNL     1       1.403  11.251  20.003  0.00  0.00    +0.000 A 
ATOM     14  C   UNL     1       1.180  10.051  20.705  0.00  0.00    +0.000 A 
BRANCH  14  15
ATOM     15  O   UNL     1       0.858  10.020  22.047  0.00  0.00    +0.000 OA
BRANCH  15  16
ATOM     16  C   UNL     1      -0.556  10.053  22.319  0.00  0.00    +0.000 C 
BRANCH  16  17
ATOM     17  C   UNL     1      -1.022  11.404  22.838  0.00  0.00    +0.000 C 
ATOM     18  O   UNL     1      -0.313  12.402  22.850  0.00  0.00    +0.000 OA
BRANCH  17  19
ATOM     19  O   UNL     1      -2.289  11.394  23.304  0.00  0.00    +0.000 OA
ATOM     20  H   UNL     1      -2.378  10.719  24.011  0.00  0.00    +0.000 HD
ENDBRANCH  17  19
ENDBRANCH  16  17
ENDBRANCH  15  16
ENDBRANCH  14  15
ENDBRANCH   5   9
BRANCH   8  21
ATOM     21  C   UNL     1       5.328   4.785  17.560  0.00  0.00    +0.000 A 
ATOM     22  C   UNL     1       5.528   4.400  16.229  0.00  0.00    +0.000 A 
ATOM     23  C   UNL     1       6.516   5.007  15.442  0.00  0.00    +0.000 A 
ATOM     24  C   UNL     1       7.285   6.044  15.968  0.00  0.00    +0.000 A 
ATOM     25  C   UNL     1       7.091   6.437  17.292  0.00  0.00    +0.000 A 
ATOM     26  C   UNL     1       6.180   5.753  18.101  0.00  0.00    +0.000 A 
BRANCH  25  27
ATOM     27  C   UNL     1       7.858   7.583  17.828  0.00  0.00    +0.000 C 
ATOM     28  O   UNL     1       7.847   8.688  17.324  0.00  0.00    +0.000 OA
BRANCH  27  29
ATOM     29  O   UNL     1       8.511   7.287  18.977  0.00  0.00    +0.000 OA
ATOM     30  H   UNL     1       8.593   6.337  19.181  0.00  0.00    +0.000 HD
ENDBRANCH  27  29
ENDBRANCH  25  27
ENDBRANCH   8  21
BRANCH   1  32
ATOM     31  C   UNL     1       2.087   2.070  21.062  0.00  0.00    +0.000 C 
ATOM     32  C   UNL     1       2.251   2.729  19.693  0.00  0.00    +0.000 C 
ATOM     33  C   UNL     1       1.072   2.387  18.776  0.00  0.00    +0.000 C 
ENDBRANCH   1  32
TORSDOF 9
ENDMDL
MODEL 8
REMARK VINA RESULT:      -7.0      6.683     10.127
REMARK  Name = 
REMARK  11 active torsions:
REMARK  status: ('A' for Active; 'I' for Inactive)
REMARK    1  A    between atoms: C_1  and  C_2
REMARK    2  A    between atoms: C_2  and  C_3
REMARK    3  A    between atoms: C_2  and  N_4
REMARK    4  A    between atoms: C_8  and  C_9
REMARK    5  A    between atoms: C_14  and  O_15
REMARK    6  A    between atoms: O_15  and  C_16
REMARK    7  A    between atoms: C_16  and  C_17
REMARK    8  A    between atoms: C_17  and  O_19
REMARK    9  A    between atoms: N_22  and  C_23
REMARK   10  A    between atoms: C_27  and  C_28
REMARK   11  A    between atoms: C_28  and  O_30
REMARK                            x       y       z     vdW  Elec       q    Type
REMARK                         _______ _______ _______ _____ _____    ______ ____
ROOT
ATOM      1  N   UNL     1       0.121  11.107  20.356  0.00  0.00    +0.000 N 
ATOM      2  C   UNL     1       1.027  12.127  20.623  0.00  0.00    +0.000 C 
ATOM      3  O   UNL     1       1.873  12.151  21.507  0.00  0.00    +0.000 OA
ATOM      4  C   UNL     1       0.776  13.289  19.718  0.00  0.00    +0.000 C 
ATOM      5  C   UNL     1       1.369  14.486  19.856  0.00  0.00    +0.000 C 
ATOM      6  S   UNL     1      -0.493  12.912  18.629  0.00  0.00    +0.000 S 
ATOM      7  C   UNL     1      -0.755  11.321  19.314  0.00  0.00    +0.000 C 
ATOM      8  N   UNL     1      -1.634  10.447  18.936  0.00  0.00    +0.000 NA
ENDROOT
BRANCH   5   9
ATOM      9  C   UNL     1       0.854  15.717  19.221  0.00  0.00    +0.000 A 
ATOM     10  C   UNL     1       1.728  16.315  18.289  0.00  0.00    +0.000 A 
ATOM     11  C   UNL     1       1.400  17.506  17.647  0.00  0.00    +0.000 A 
ATOM     12  C   UNL     1       0.199  18.131  17.944  0.00  0.00    +0.000 A 
ATOM     13  C   UNL     1      -0.679  17.555  18.863  0.00  0.00    +0.000 A 
ATOM     14  C   UNL     1      -0.387  16.326  19.485  0.00  0.00    +0.000 A 
BRANCH  14  15
ATOM     15  O   UNL     1      -1.269  15.692  20.338  0.00  0.00    +0.000 OA
BRANCH  15  16
ATOM     16  C   UNL     1      -1.139  16.079  21.719  0.00  0.00    +0.000 C 
BRANCH  16  17
ATOM     17  C   UNL     1      -1.023  14.885  22.654  0.00  0.00    +0.000 C 
ATOM     18  O   UNL     1      -0.381  14.906  23.696  0.00  0.00    +0.000 OA
BRANCH  17  19
ATOM     19  O   UNL     1      -1.681  13.791  22.214  0.00  0.00    +0.000 OA
ATOM     20  H   UNL     1      -2.473  14.062  21.703  0.00  0.00    +0.000 HD
ENDBRANCH  17  19
ENDBRANCH  16  17
ENDBRANCH  15  16
ENDBRANCH  14  15
ENDBRANCH   5   9
BRANCH   8  21
ATOM     21  C   UNL     1      -2.520  10.668  17.865  0.00  0.00    +0.000 A 
ATOM     22  C   UNL     1      -2.187  10.193  16.591  0.00  0.00    +0.000 A 
ATOM     23  C   UNL     1      -3.041  10.395  15.499  0.00  0.00    +0.000 A 
ATOM     24  C   UNL     1      -4.267  11.035  15.682  0.00  0.00    +0.000 A 
ATOM     25  C   UNL     1      -4.608  11.509  16.948  0.00  0.00    +0.000 A 
ATOM     26  C   UNL     1      -3.703  11.400  18.007  0.00  0.00    +0.000 A 
BRANCH  25  27
ATOM     27  C   UNL     1      -5.936  12.126  17.158  0.00  0.00    +0.000 C 
ATOM     28  O   UNL     1      -6.205  13.263  16.825  0.00  0.00    +0.000 OA
BRANCH  27  29
ATOM     29  O   UNL     1      -6.837  11.266  17.690  0.00  0.00    +0.000 OA
ATOM     30  H   UNL     1      -7.079  11.434  18.620  0.00  0.00    +0.000 HD
ENDBRANCH  27  29
ENDBRANCH  25  27
ENDBRANCH   8  21
BRANCH   1  32
ATOM     31  C   UNL     1       1.253   9.050  21.248  0.00  0.00    +0.000 C 
ATOM     32  C   UNL     1       0.001   9.926  21.233  0.00  0.00    +0.000 C 
ATOM     33  C   UNL     1      -0.407  10.325  22.655  0.00  0.00    +0.000 C 
ENDBRANCH   1  32
TORSDOF 9
ENDMDL
MODEL 9
REMARK VINA RESULT:      -7.0      2.106      7.640
REMARK  Name = 
REMARK  11 active torsions:
REMARK  status: ('A' for Active; 'I' for Inactive)
REMARK    1  A    between atoms: C_1  and  C_2
REMARK    2  A    between atoms: C_2  and  C_3
REMARK    3  A    between atoms: C_2  and  N_4
REMARK    4  A    between atoms: C_8  and  C_9
REMARK    5  A    between atoms: C_14  and  O_15
REMARK    6  A    between atoms: O_15  and  C_16
REMARK    7  A    between atoms: C_16  and  C_17
REMARK    8  A    between atoms: C_17  and  O_19
REMARK    9  A    between atoms: N_22  and  C_23
REMARK   10  A    between atoms: C_27  and  C_28
REMARK   11  A    between atoms: C_28  and  O_30
REMARK                            x       y       z     vdW  Elec       q    Type
REMARK                         _______ _______ _______ _____ _____    ______ ____
ROOT
ATOM      1  N   UNL     1       3.197   3.764  19.883  0.00  0.00    +0.000 N 
ATOM      2  C   UNL     1       2.259   4.496  20.602  0.00  0.00    +0.000 C 
ATOM      3  O   UNL     1       1.432   4.061  21.394  0.00  0.00    +0.000 OA
ATOM      4  C   UNL     1       2.316   5.936  20.208  0.00  0.00    +0.000 C 
ATOM      5  C   UNL     1       1.416   6.854  20.596  0.00  0.00    +0.000 C 
ATOM      6  S   UNL     1       3.571   6.174  19.065  0.00  0.00    +0.000 S 
ATOM      7  C   UNL     1       4.011   4.479  19.031  0.00  0.00    +0.000 C 
ATOM      8  N   UNL     1       4.947   3.932  18.321  0.00  0.00    +0.000 NA
ENDROOT
BRANCH   5   9
ATOM      9  C   UNL     1       1.254   8.157  19.919  0.00  0.00    +0.000 A 
ATOM     10  C   UNL     1       1.987   8.300  18.722  0.00  0.00    +0.000 A 
ATOM     11  C   UNL     1       1.972   9.490  18.000  0.00  0.00    +0.000 A 
ATOM     12  C   UNL     1       1.241  10.567  18.476  0.00  0.00    +0.000 A 
ATOM     13  C   UNL     1       0.509  10.445  19.658  0.00  0.00    +0.000 A 
ATOM     14  C   UNL     1       0.471   9.234  20.376  0.00  0.00    +0.000 A 
BRANCH  14  15
ATOM     15  O   UNL     1      -0.304   9.059  21.505  0.00  0.00    +0.000 OA
BRANCH  15  16
ATOM     16  C   UNL     1       0.131   9.821  22.647  0.00  0.00    +0.000 C 
BRANCH  16  17
ATOM     17  C   UNL     1      -0.763  11.019  22.928  0.00  0.00    +0.000 C 
ATOM     18  O   UNL     1      -1.907  10.920  23.352  0.00  0.00    +0.000 OA
BRANCH  17  19
ATOM     19  O   UNL     1      -0.180  12.203  22.644  0.00  0.00    +0.000 OA
ATOM     20  H   UNL     1       0.758  12.061  22.393  0.00  0.00    +0.000 HD
ENDBRANCH  17  19
ENDBRANCH  16  17
ENDBRANCH  15  16
ENDBRANCH  14  15
ENDBRANCH   5   9
BRANCH   8  21
ATOM     21  C   UNL     1       5.782   4.668  17.459  0.00  0.00    +0.000 A 
ATOM     22  C   UNL     1       6.544   5.722  17.977  0.00  0.00    +0.000 A 
ATOM     23  C   UNL     1       7.384   6.480  17.151  0.00  0.00    +0.000 A 
ATOM     24  C   UNL     1       7.508   6.158  15.800  0.00  0.00    +0.000 A 
ATOM     25  C   UNL     1       6.754   5.108  15.275  0.00  0.00    +0.000 A 
ATOM     26  C   UNL     1       5.838   4.429  16.083  0.00  0.00    +0.000 A 
BRANCH  25  27
ATOM     27  C   UNL     1       6.937   4.722  13.859  0.00  0.00    +0.000 C 
ATOM     28  O   UNL     1       6.299   3.839  13.320  0.00  0.00    +0.000 OA
BRANCH  27  29
ATOM     29  O   UNL     1       7.834   5.503  13.213  0.00  0.00    +0.000 OA
ATOM     30  H   UNL     1       8.526   5.027  12.719  0.00  0.00    +0.000 HD
ENDBRANCH  27  29
ENDBRANCH  25  27
ENDBRANCH   8  21
BRANCH   1  32
ATOM     31  C   UNL     1       2.932   1.646  18.559  0.00  0.00    +0.000 C 
ATOM     32  C   UNL     1       3.222   2.289  19.915  0.00  0.00    +0.000 C 
ATOM     33  C   UNL     1       4.537   1.764  20.500  0.00  0.00    +0.000 C 
ENDBRANCH   1  32
TORSDOF 9
ENDMDL
