MODEL 1
REMARK VINA RESULT:      -5.4      0.000      0.000
REMARK  Name = 
REMARK  6 active torsions:
REMARK  status: ('A' for Active; 'I' for Inactive)
REMARK    1  A    between atoms: N_1  and  C_2
REMARK    2  A    between atoms: C_2  and  C_3
REMARK    3  A    between atoms: C_3  and  S_4
REMARK    4  A    between atoms: S_4  and  C_7
REMARK    5  A    between atoms: C_10  and  C_11
REMARK    6  A    between atoms: C_11  and  N_12
REMARK                            x       y       z     vdW  Elec       q    Type
REMARK                         _______ _______ _______ _____ _____    ______ ____
ROOT
ATOM      1  C   UNL     1       3.851   3.837  18.382  0.00  0.00    +0.000 A 
ATOM      2  C   UNL     1       4.906   4.062  19.256  0.00  0.00    +0.000 A 
ATOM      3  N   UNL     1       6.081   4.375  18.647  0.00  0.00    +0.000 NA
ATOM      4  C   UNL     1       5.960   4.405  17.300  0.00  0.00    +0.000 A 
ATOM      5  S   UNL     1       4.392   4.043  16.805  0.00  0.00    +0.000 S 
ENDROOT
BRANCH   1   6
ATOM      6  S   UNL     1       2.176   3.408  18.832  0.00  0.00    +0.000 S 
ATOM      7  O   UNL     1       2.051   1.877  18.789  0.00  0.00    +0.000 OA
ATOM      8  O   UNL     1       1.290   3.749  17.624  0.00  0.00    +0.000 OA
BRANCH   6   9
ATOM      9  C   UNL     1       1.326   4.010  20.325  0.00  0.00    +0.000 C 
BRANCH   9  10
ATOM     10  C   UNL     1       1.296   2.941  21.418  0.00  0.00    +0.000 C 
BRANCH  10  11
ATOM     11  N   UNL     1       2.646   2.631  21.880  0.00  0.00    +0.000 NA
ATOM     12  H   UNL     1       2.585   2.242  22.848  0.00  0.00    +0.000 HD
ATOM     13  H   UNL     1       3.212   3.509  21.918  0.00  0.00    +0.000 HD
ENDBRANCH  10  11
ENDBRANCH   9  10
ENDBRANCH   6   9
ENDBRANCH   1   6
BRANCH   4  14
ATOM     14  C   UNL     1       7.098   4.708  16.378  0.00  0.00    +0.000 C 
BRANCH  14  15
ATOM     15  N   UNL     1       7.352   6.142  16.339  0.00  0.00    +0.000 NA
ATOM     16  H   UNL     1       6.869   6.555  15.508  0.00  0.00    +0.000 HD
ATOM     17  H   UNL     1       8.380   6.294  16.221  0.00  0.00    +0.000 HD
ENDBRANCH  14  15
ENDBRANCH   4  14
TORSDOF 6
ENDMDL
MODEL 2
REMARK VINA RESULT:      -5.3      1.041      1.059
REMARK  Name = 
REMARK  6 active torsions:
REMARK  status: ('A' for Active; 'I' for Inactive)
REMARK    1  A    between atoms: N_1  and  C_2
REMARK    2  A    between atoms: C_2  and  C_3
REMARK    3  A    between atoms: C_3  and  S_4
REMARK    4  A    between atoms: S_4  and  C_7
REMARK    5  A    between atoms: C_10  and  C_11
REMARK    6  A    between atoms: C_11  and  N_12
REMARK                            x       y       z     vdW  Elec       q    Type
REMARK                         _______ _______ _______ _____ _____    ______ ____
ROOT
ATOM      1  C   UNL     1       3.717   4.143  18.372  0.00  0.00    +0.000 A 
ATOM      2  C   UNL     1       4.790   3.667  19.114  0.00  0.00    +0.000 A 
ATOM      3  N   UNL     1       5.935   4.384  18.966  0.00  0.00    +0.000 NA
ATOM      4  C   UNL     1       5.773   5.427  18.120  0.00  0.00    +0.000 A 
ATOM      5  S   UNL     1       4.202   5.504  17.516  0.00  0.00    +0.000 S 
ENDROOT
BRANCH   1   6
ATOM      6  S   UNL     1       2.070   3.449  18.326  0.00  0.00    +0.000 S 
ATOM      7  O   UNL     1       2.123   2.158  17.495  0.00  0.00    +0.000 OA
ATOM      8  O   UNL     1       1.250   4.317  17.359  0.00  0.00    +0.000 OA
BRANCH   6   9
ATOM      9  C   UNL     1       1.042   3.142  19.797  0.00  0.00    +0.000 C 
BRANCH   9  10
ATOM     10  C   UNL     1       1.605   3.856  21.027  0.00  0.00    +0.000 C 
BRANCH  10  11
ATOM     11  N   UNL     1       2.125   2.894  21.994  0.00  0.00    +0.000 NA
ATOM     12  H   UNL     1       1.776   1.942  21.739  0.00  0.00    +0.000 HD
ATOM     13  H   UNL     1       1.763   3.126  22.947  0.00  0.00    +0.000 HD
ENDBRANCH  10  11
ENDBRANCH   9  10
ENDBRANCH   6   9
ENDBRANCH   1   6
BRANCH   4  14
ATOM     14  C   UNL     1       6.872   6.376  17.763  0.00  0.00    +0.000 C 
BRANCH  14  15
ATOM     15  N   UNL     1       7.332   6.132  16.402  0.00  0.00    +0.000 NA
ATOM     16  H   UNL     1       7.183   6.994  15.828  0.00  0.00    +0.000 HD
ATOM     17  H   UNL     1       6.752   5.367  15.989  0.00  0.00    +0.000 HD
ENDBRANCH  14  15
ENDBRANCH   4  14
TORSDOF 6
ENDMDL
MODEL 3
REMARK VINA RESULT:      -5.3      1.588      1.841
REMARK  Name = 
REMARK  6 active torsions:
REMARK  status: ('A' for Active; 'I' for Inactive)
REMARK    1  A    between atoms: N_1  and  C_2
REMARK    2  A    between atoms: C_2  and  C_3
REMARK    3  A    between atoms: C_3  and  S_4
REMARK    4  A    between atoms: S_4  and  C_7
REMARK    5  A    between atoms: C_10  and  C_11
REMARK    6  A    between atoms: C_11  and  N_12
REMARK                            x       y       z     vdW  Elec       q    Type
REMARK                         _______ _______ _______ _____ _____    ______ ____
ROOT
ATOM      1  C   UNL     1       3.629   4.525  18.408  0.00  0.00    +0.000 A 
ATOM      2  C   UNL     1       3.803   5.734  17.748  0.00  0.00    +0.000 A 
ATOM      3  N   UNL     1       5.070   6.224  17.800  0.00  0.00    +0.000 NA
ATOM      4  C   UNL     1       5.900   5.407  18.489  0.00  0.00    +0.000 A 
ATOM      5  S   UNL     1       5.097   4.043  19.066  0.00  0.00    +0.000 S 
ENDROOT
BRANCH   1   6
ATOM      6  S   UNL     1       2.105   3.601  18.542  0.00  0.00    +0.000 S 
ATOM      7  O   UNL     1       2.362   2.184  18.008  0.00  0.00    +0.000 OA
ATOM      8  O   UNL     1       1.180   4.107  17.425  0.00  0.00    +0.000 OA
BRANCH   6   9
ATOM      9  C   UNL     1       1.113   3.470  20.062  0.00  0.00    +0.000 C 
BRANCH   9  10
ATOM     10  C   UNL     1       1.934   3.844  21.296  0.00  0.00    +0.000 C 
BRANCH  10  11
ATOM     11  N   UNL     1       2.584   2.667  21.866  0.00  0.00    +0.000 NA
ATOM     12  H   UNL     1       3.601   2.876  21.991  0.00  0.00    +0.000 HD
ATOM     13  H   UNL     1       2.497   1.865  21.201  0.00  0.00    +0.000 HD
ENDBRANCH  10  11
ENDBRANCH   9  10
ENDBRANCH   6   9
ENDBRANCH   1   6
BRANCH   4  14
ATOM     14  C   UNL     1       7.348   5.705  18.715  0.00  0.00    +0.000 C 
BRANCH  14  15
ATOM     15  N   UNL     1       7.697   5.498  20.114  0.00  0.00    +0.000 NA
ATOM     16  H   UNL     1       8.035   4.516  20.244  0.00  0.00    +0.000 HD
ATOM     17  H   UNL     1       6.834   5.619  20.692  0.00  0.00    +0.000 HD
ENDBRANCH  14  15
ENDBRANCH   4  14
TORSDOF 6
ENDMDL
MODEL 4
REMARK VINA RESULT:      -5.2      1.980      2.239
REMARK  Name = 
REMARK  6 active torsions:
REMARK  status: ('A' for Active; 'I' for Inactive)
REMARK    1  A    between atoms: N_1  and  C_2
REMARK    2  A    between atoms: C_2  and  C_3
REMARK    3  A    between atoms: C_3  and  S_4
REMARK    4  A    between atoms: S_4  and  C_7
REMARK    5  A    between atoms: C_10  and  C_11
REMARK    6  A    between atoms: C_11  and  N_12
REMARK                            x       y       z     vdW  Elec       q    Type
REMARK                         _______ _______ _______ _____ _____    ______ ____
ROOT
ATOM      1  C   UNL     1       4.373   3.977  18.782  0.00  0.00    +0.000 A 
ATOM      2  C   UNL     1       3.851   4.359  17.553  0.00  0.00    +0.000 A 
ATOM      3  N   UNL     1       4.515   5.384  16.956  0.00  0.00    +0.000 NA
ATOM      4  C   UNL     1       5.562   5.809  17.701  0.00  0.00    +0.000 A 
ATOM      5  S   UNL     1       5.708   4.934  19.132  0.00  0.00    +0.000 S 
ENDROOT
BRANCH   1   6
ATOM      6  S   UNL     1       3.754   2.673  19.837  0.00  0.00    +0.000 S 
ATOM      7  O   UNL     1       4.957   1.860  20.340  0.00  0.00    +0.000 OA
ATOM      8  O   UNL     1       3.127   1.617  18.915  0.00  0.00    +0.000 OA
BRANCH   6   9
ATOM      9  C   UNL     1       2.615   2.934  21.232  0.00  0.00    +0.000 C 
BRANCH   9  10
ATOM     10  C   UNL     1       1.431   3.814  20.827  0.00  0.00    +0.000 C 
BRANCH  10  11
ATOM     11  N   UNL     1       0.524   3.090  19.941  0.00  0.00    +0.000 NA
ATOM     12  H   UNL     1      -0.457   3.377  20.162  0.00  0.00    +0.000 HD
ATOM     13  H   UNL     1       0.608   2.063  20.119  0.00  0.00    +0.000 HD
ENDBRANCH  10  11
ENDBRANCH   9  10
ENDBRANCH   6   9
ENDBRANCH   1   6
BRANCH   4  14
ATOM     14  C   UNL     1       6.460   6.934  17.292  0.00  0.00    +0.000 C 
BRANCH  14  15
ATOM     15  N   UNL     1       7.416   6.482  16.290  0.00  0.00    +0.000 NA
ATOM     16  H   UNL     1       7.494   7.204  15.537  0.00  0.00    +0.000 HD
ATOM     17  H   UNL     1       7.051   5.604  15.856  0.00  0.00    +0.000 HD
ENDBRANCH  14  15
ENDBRANCH   4  14
TORSDOF 6
ENDMDL
MODEL 5
REMARK VINA RESULT:      -5.1      3.753      6.122
REMARK  Name = 
REMARK  6 active torsions:
REMARK  status: ('A' for Active; 'I' for Inactive)
REMARK    1  A    between atoms: N_1  and  C_2
REMARK    2  A    between atoms: C_2  and  C_3
REMARK    3  A    between atoms: C_3  and  S_4
REMARK    4  A    between atoms: S_4  and  C_7
REMARK    5  A    between atoms: C_10  and  C_11
REMARK    6  A    between atoms: C_11  and  N_12
REMARK                            x       y       z     vdW  Elec       q    Type
REMARK                         _______ _______ _______ _____ _____    ______ ____
ROOT
ATOM      1  C   UNL     1       5.355   5.344  16.934  0.00  0.00    +0.000 A 
ATOM      2  C   UNL     1       4.760   6.491  17.442  0.00  0.00    +0.000 A 
ATOM      3  N   UNL     1       3.559   6.280  18.042  0.00  0.00    +0.000 NA
ATOM      4  C   UNL     1       3.204   4.975  18.019  0.00  0.00    +0.000 A 
ATOM      5  S   UNL     1       4.365   4.025  17.251  0.00  0.00    +0.000 S 
ENDROOT
BRANCH   1   6
ATOM      6  S   UNL     1       6.927   5.251  16.088  0.00  0.00    +0.000 S 
ATOM      7  O   UNL     1       7.871   4.383  16.934  0.00  0.00    +0.000 OA
ATOM      8  O   UNL     1       7.618   6.609  16.285  0.00  0.00    +0.000 OA
BRANCH   6   9
ATOM      9  C   UNL     1       7.127   4.780  14.341  0.00  0.00    +0.000 C 
BRANCH   9  10
ATOM     10  C   UNL     1       5.934   3.963  13.845  0.00  0.00    +0.000 C 
BRANCH  10  11
ATOM     11  N   UNL     1       6.307   3.141  12.698  0.00  0.00    +0.000 NA
ATOM     12  H   UNL     1       5.732   2.268  12.713  0.00  0.00    +0.000 HD
ATOM     13  H   UNL     1       7.313   2.869  12.776  0.00  0.00    +0.000 HD
ENDBRANCH  10  11
ENDBRANCH   9  10
ENDBRANCH   6   9
ENDBRANCH   1   6
BRANCH   4  14
ATOM     14  C   UNL     1       1.924   4.459  18.596  0.00  0.00    +0.000 C 
BRANCH  14  15
ATOM     15  N   UNL     1       1.146   3.773  17.572  0.00  0.00    +0.000 NA
ATOM     16  H   UNL     1       0.754   2.889  17.972  0.00  0.00    +0.000 HD
ATOM     17  H   UNL     1       1.786   3.515  16.787  0.00  0.00    +0.000 HD
ENDBRANCH  14  15
ENDBRANCH   4  14
TORSDOF 6
ENDMDL
MODEL 6
REMARK VINA RESULT:      -5.1      1.604      1.902
REMARK  Name = 
REMARK  6 active torsions:
REMARK  status: ('A' for Active; 'I' for Inactive)
REMARK    1  A    between atoms: N_1  and  C_2
REMARK    2  A    between atoms: C_2  and  C_3
REMARK    3  A    between atoms: C_3  and  S_4
REMARK    4  A    between atoms: S_4  and  C_7
REMARK    5  A    between atoms: C_10  and  C_11
REMARK    6  A    between atoms: C_11  and  N_12
REMARK                            x       y       z     vdW  Elec       q    Type
REMARK                         _______ _______ _______ _____ _____    ______ ____
ROOT
ATOM      1  C   UNL     1       4.258   4.034  18.215  0.00  0.00    +0.000 A 
ATOM      2  C   UNL     1       5.072   3.948  17.094  0.00  0.00    +0.000 A 
ATOM      3  N   UNL     1       6.283   4.551  17.232  0.00  0.00    +0.000 NA
ATOM      4  C   UNL     1       6.433   5.107  18.456  0.00  0.00    +0.000 A 
ATOM      5  S   UNL     1       5.072   4.875  19.420  0.00  0.00    +0.000 S 
ENDROOT
BRANCH   1   6
ATOM      6  S   UNL     1       2.612   3.358  18.384  0.00  0.00    +0.000 S 
ATOM      7  O   UNL     1       2.746   1.863  18.713  0.00  0.00    +0.000 OA
ATOM      8  O   UNL     1       2.036   3.235  16.966  0.00  0.00    +0.000 OA
BRANCH   6   9
ATOM      9  C   UNL     1       1.315   4.064  19.447  0.00  0.00    +0.000 C 
BRANCH   9  10
ATOM     10  C   UNL     1       1.691   3.962  20.926  0.00  0.00    +0.000 C 
BRANCH  10  11
ATOM     11  N   UNL     1       1.471   2.608  21.426  0.00  0.00    +0.000 NA
ATOM     12  H   UNL     1       0.529   2.568  21.876  0.00  0.00    +0.000 HD
ATOM     13  H   UNL     1       2.187   2.385  22.154  0.00  0.00    +0.000 HD
ENDBRANCH  10  11
ENDBRANCH   9  10
ENDBRANCH   6   9
ENDBRANCH   1   6
BRANCH   4  14
ATOM     14  C   UNL     1       7.662   5.848  18.879  0.00  0.00    +0.000 C 
BRANCH  14  15
ATOM     15  N   UNL     1       8.023   5.495  20.246  0.00  0.00    +0.000 NA
ATOM     16  H   UNL     1       7.204   5.040  20.712  0.00  0.00    +0.000 HD
ATOM     17  H   UNL     1       8.242   6.375  20.768  0.00  0.00    +0.000 HD
ENDBRANCH  14  15
ENDBRANCH   4  14
TORSDOF 6
ENDMDL
MODEL 7
REMARK VINA RESULT:      -5.1      1.583      1.912
REMARK  Name = 
REMARK  6 active torsions:
REMARK  status: ('A' for Active; 'I' for Inactive)
REMARK    1  A    between atoms: N_1  and  C_2
REMARK    2  A    between atoms: C_2  and  C_3
REMARK    3  A    between atoms: C_3  and  S_4
REMARK    4  A    between atoms: S_4  and  C_7
REMARK    5  A    between atoms: C_10  and  C_11
REMARK    6  A    between atoms: C_11  and  N_12
REMARK                            x       y       z     vdW  Elec       q    Type
REMARK                         _______ _______ _______ _____ _____    ______ ____
ROOT
ATOM      1  C   UNL     1       3.897   4.137  18.305  0.00  0.00    +0.000 A 
ATOM      2  C   UNL     1       4.432   3.906  17.045  0.00  0.00    +0.000 A 
ATOM      3  N   UNL     1       5.743   4.245  16.921  0.00  0.00    +0.000 NA
ATOM      4  C   UNL     1       6.249   4.734  18.077  0.00  0.00    +0.000 A 
ATOM      5  S   UNL     1       5.093   4.769  19.301  0.00  0.00    +0.000 S 
ENDROOT
BRANCH   1   6
ATOM      6  S   UNL     1       2.217   3.811  18.819  0.00  0.00    +0.000 S 
ATOM      7  O   UNL     1       1.311   3.936  17.585  0.00  0.00    +0.000 OA
ATOM      8  O   UNL     1       1.739   5.053  19.587  0.00  0.00    +0.000 OA
BRANCH   6   9
ATOM      9  C   UNL     1       1.697   2.345  19.765  0.00  0.00    +0.000 C 
BRANCH   9  10
ATOM     10  C   UNL     1       1.294   2.718  21.192  0.00  0.00    +0.000 C 
BRANCH  10  11
ATOM     11  N   UNL     1       2.470   3.014  22.005  0.00  0.00    +0.000 NA
ATOM     12  H   UNL     1       3.287   3.156  21.369  0.00  0.00    +0.000 HD
ATOM     13  H   UNL     1       2.679   2.198  22.625  0.00  0.00    +0.000 HD
ENDBRANCH  10  11
ENDBRANCH   9  10
ENDBRANCH   6   9
ENDBRANCH   1   6
BRANCH   4  14
ATOM     14  C   UNL     1       7.664   5.197  18.224  0.00  0.00    +0.000 C 
BRANCH  14  15
ATOM     15  N   UNL     1       7.950   5.518  19.616  0.00  0.00    +0.000 NA
ATOM     16  H   UNL     1       8.337   6.489  19.673  0.00  0.00    +0.000 HD
ATOM     17  H   UNL     1       8.685   4.860  19.964  0.00  0.00    +0.000 HD
ENDBRANCH  14  15
ENDBRANCH   4  14
TORSDOF 6
ENDMDL
MODEL 8
REMARK VINA RESULT:      -5.0      2.519      5.446
REMARK  Name = 
REMARK  6 active torsions:
REMARK  status: ('A' for Active; 'I' for Inactive)
REMARK    1  A    between atoms: N_1  and  C_2
REMARK    2  A    between atoms: C_2  and  C_3
REMARK    3  A    between atoms: C_3  and  S_4
REMARK    4  A    between atoms: S_4  and  C_7
REMARK    5  A    between atoms: C_10  and  C_11
REMARK    6  A    between atoms: C_11  and  N_12
REMARK                            x       y       z     vdW  Elec       q    Type
REMARK                         _______ _______ _______ _____ _____    ______ ____
ROOT
ATOM      1  C   UNL     1       4.568   4.055  18.778  0.00  0.00    +0.000 A 
ATOM      2  C   UNL     1       4.676   2.866  19.487  0.00  0.00    +0.000 A 
ATOM      3  N   UNL     1       3.625   2.608  20.310  0.00  0.00    +0.000 NA
ATOM      4  C   UNL     1       2.686   3.579  20.251  0.00  0.00    +0.000 A 
ATOM      5  S   UNL     1       3.118   4.802  19.177  0.00  0.00    +0.000 S 
ENDROOT
BRANCH   1   6
ATOM      6  S   UNL     1       5.758   4.705  17.613  0.00  0.00    +0.000 S 
ATOM      7  O   UNL     1       5.233   6.056  17.104  0.00  0.00    +0.000 OA
ATOM      8  O   UNL     1       5.602   3.892  16.319  0.00  0.00    +0.000 OA
BRANCH   6   9
ATOM      9  C   UNL     1       7.539   4.872  17.948  0.00  0.00    +0.000 C 
BRANCH   9  10
ATOM     10  C   UNL     1       7.812   5.977  18.969  0.00  0.00    +0.000 C 
BRANCH  10  11
ATOM     11  N   UNL     1       7.955   5.421  20.312  0.00  0.00    +0.000 NA
ATOM     12  H   UNL     1       7.142   5.733  20.890  0.00  0.00    +0.000 HD
ATOM     13  H   UNL     1       8.828   5.792  20.752  0.00  0.00    +0.000 HD
ENDBRANCH  10  11
ENDBRANCH   9  10
ENDBRANCH   6   9
ENDBRANCH   1   6
BRANCH   4  14
ATOM     14  C   UNL     1       1.429   3.560  21.062  0.00  0.00    +0.000 C 
BRANCH  14  15
ATOM     15  N   UNL     1       1.521   2.559  22.117  0.00  0.00    +0.000 NA
ATOM     16  H   UNL     1       1.253   2.994  23.030  0.00  0.00    +0.000 HD
ATOM     17  H   UNL     1       2.516   2.246  22.191  0.00  0.00    +0.000 HD
ENDBRANCH  14  15
ENDBRANCH   4  14
TORSDOF 6
ENDMDL
MODEL 9
REMARK VINA RESULT:      -5.0      2.631      5.846
REMARK  Name = 
REMARK  6 active torsions:
REMARK  status: ('A' for Active; 'I' for Inactive)
REMARK    1  A    between atoms: N_1  and  C_2
REMARK    2  A    between atoms: C_2  and  C_3
REMARK    3  A    between atoms: C_3  and  S_4
REMARK    4  A    between atoms: S_4  and  C_7
REMARK    5  A    between atoms: C_10  and  C_11
REMARK    6  A    between atoms: C_11  and  N_12
REMARK                            x       y       z     vdW  Elec       q    Type
REMARK                         _______ _______ _______ _____ _____    ______ ____
ROOT
ATOM      1  C   UNL     1       4.402   4.255  18.160  0.00  0.00    +0.000 A 
ATOM      2  C   UNL     1       4.558   3.398  19.241  0.00  0.00    +0.000 A 
ATOM      3  N   UNL     1       3.445   3.255  20.008  0.00  0.00    +0.000 NA
ATOM      4  C   UNL     1       2.409   3.988  19.537  0.00  0.00    +0.000 A 
ATOM      5  S   UNL     1       2.830   4.845  18.150  0.00  0.00    +0.000 S 
ENDROOT
BRANCH   1   6
ATOM      6  S   UNL     1       5.651   4.672  16.951  0.00  0.00    +0.000 S 
ATOM      7  O   UNL     1       6.981   4.874  17.693  0.00  0.00    +0.000 OA
ATOM      8  O   UNL     1       5.393   6.128  16.532  0.00  0.00    +0.000 OA
BRANCH   6   9
ATOM      9  C   UNL     1       5.978   3.713  15.439  0.00  0.00    +0.000 C 
BRANCH   9  10
ATOM     10  C   UNL     1       6.546   4.600  14.330  0.00  0.00    +0.000 C 
BRANCH  10  11
ATOM     11  N   UNL     1       7.676   5.384  14.819  0.00  0.00    +0.000 NA
ATOM     12  H   UNL     1       7.307   6.221  15.325  0.00  0.00    +0.000 HD
ATOM     13  H   UNL     1       8.244   5.720  14.008  0.00  0.00    +0.000 HD
ENDBRANCH  10  11
ENDBRANCH   9  10
ENDBRANCH   6   9
ENDBRANCH   1   6
BRANCH   4  14
ATOM     14  C   UNL     1       1.066   4.031  20.193  0.00  0.00    +0.000 C 
BRANCH  14  15
ATOM     15  N   UNL     1       0.903   2.896  21.093  0.00  0.00    +0.000 NA
ATOM     16  H   UNL     1       1.217   3.170  22.053  0.00  0.00    +0.000 HD
ATOM     17  H   UNL     1       1.522   2.120  20.763  0.00  0.00    +0.000 HD
ENDBRANCH  14  15
ENDBRANCH   4  14
TORSDOF 6
ENDMDL
