MODEL 1
REMARK VINA RESULT:      -7.9      0.000      0.000
REMARK  Name = 
REMARK  5 active torsions:
REMARK  status: ('A' for Active; 'I' for Inactive)
REMARK    1  A    between atoms: C_1  and  S_2
REMARK    2  A    between atoms: S_2  and  C_3
REMARK    3  A    between atoms: C_5  and  C_6
REMARK    4  A    between atoms: C_13  and  C_15
REMARK    5  A    between atoms: C_15  and  C_16
REMARK                            x       y       z     vdW  Elec       q    Type
REMARK                         _______ _______ _______ _____ _____    ______ ____
ROOT
ATOM      1  C   UNL     1       6.884   5.421  17.503  0.00  0.00    +0.000 A 
ATOM      2  N   UNL     1       7.470   4.945  16.427  0.00  0.00    +0.000 NA
ATOM      3  C   UNL     1       6.520   5.102  15.455  0.00  0.00    +0.000 A 
ATOM      4  N   UNL     1       5.388   5.669  15.877  0.00  0.00    +0.000 NA
ATOM      5  N   UNL     1       5.569   5.750  17.225  0.00  0.00    +0.000 N 
ATOM      6  C   UNL     1       4.449   6.074  18.007  0.00  0.00    +0.000 C 
ATOM      7  O   UNL     1       3.518   6.690  17.489  0.00  0.00    +0.000 OA
ENDROOT
BRANCH   3   8
ATOM      8  C   UNL     1       6.687   4.676  14.033  0.00  0.00    +0.000 A 
ATOM      9  C   UNL     1       5.996   3.638  13.434  0.00  0.00    +0.000 A 
ATOM     10  C   UNL     1       6.466   3.538  12.105  0.00  0.00    +0.000 A 
ATOM     11  C   UNL     1       7.418   4.520  11.968  0.00  0.00    +0.000 A 
ATOM     12  O   UNL     1       7.554   5.223  13.125  0.00  0.00    +0.000 OA
ENDBRANCH   3   8
BRANCH   1  14
ATOM     13  C   UNL     1       8.302   7.430  18.732  0.00  0.00    +0.000 C 
ATOM     14  S   UNL     1       7.692   5.752  19.000  0.00  0.00    +0.000 S 
ENDBRANCH   1  14
BRANCH   6  15
ATOM     15  C   UNL     1       4.379   5.479  19.393  0.00  0.00    +0.000 C 
BRANCH  15  16
ATOM     16  C   UNL     1       3.206   4.551  19.592  0.00  0.00    +0.000 A 
ATOM     17  C   UNL     1       3.141   3.324  18.913  0.00  0.00    +0.000 A 
ATOM     18  C   UNL     1       2.041   2.480  19.070  0.00  0.00    +0.000 A 
ATOM     19  C   UNL     1       0.998   2.847  19.917  0.00  0.00    +0.000 A 
ATOM     20  C   UNL     1       1.067   4.044  20.624  0.00  0.00    +0.000 A 
ATOM     21  C   UNL     1       2.168   4.889  20.470  0.00  0.00    +0.000 A 
ENDBRANCH  15  16
ENDBRANCH   6  15
TORSDOF 4
ENDMDL
MODEL 2
REMARK VINA RESULT:      -7.9      0.231      1.052
REMARK  Name = 
REMARK  5 active torsions:
REMARK  status: ('A' for Active; 'I' for Inactive)
REMARK    1  A    between atoms: C_1  and  S_2
REMARK    2  A    between atoms: S_2  and  C_3
REMARK    3  A    between atoms: C_5  and  C_6
REMARK    4  A    between atoms: C_13  and  C_15
REMARK    5  A    between atoms: C_15  and  C_16
REMARK                            x       y       z     vdW  Elec       q    Type
REMARK                         _______ _______ _______ _____ _____    ______ ____
ROOT
ATOM      1  C   UNL     1       6.851   5.340  17.494  0.00  0.00    +0.000 A 
ATOM      2  N   UNL     1       7.431   4.845  16.423  0.00  0.00    +0.000 NA
ATOM      3  C   UNL     1       6.521   5.086  15.431  0.00  0.00    +0.000 A 
ATOM      4  N   UNL     1       5.420   5.723  15.836  0.00  0.00    +0.000 NA
ATOM      5  N   UNL     1       5.570   5.765  17.190  0.00  0.00    +0.000 N 
ATOM      6  C   UNL     1       4.455   6.152  17.949  0.00  0.00    +0.000 C 
ATOM      7  O   UNL     1       3.582   6.841  17.421  0.00  0.00    +0.000 OA
ENDROOT
BRANCH   3   8
ATOM      8  C   UNL     1       6.697   4.677  14.005  0.00  0.00    +0.000 A 
ATOM      9  C   UNL     1       6.049   3.611  13.405  0.00  0.00    +0.000 A 
ATOM     10  C   UNL     1       6.513   3.542  12.072  0.00  0.00    +0.000 A 
ATOM     11  C   UNL     1       7.418   4.567  11.934  0.00  0.00    +0.000 A 
ATOM     12  O   UNL     1       7.530   5.268  13.094  0.00  0.00    +0.000 OA
ENDBRANCH   3   8
BRANCH   1  14
ATOM     13  C   UNL     1       8.303   7.254  18.830  0.00  0.00    +0.000 C 
ATOM     14  S   UNL     1       7.640   5.585  19.018  0.00  0.00    +0.000 S 
ENDBRANCH   1  14
BRANCH   6  15
ATOM     15  C   UNL     1       4.306   5.537  19.320  0.00  0.00    +0.000 C 
BRANCH  15  16
ATOM     16  C   UNL     1       3.094   4.649  19.455  0.00  0.00    +0.000 A 
ATOM     17  C   UNL     1       2.217   4.797  20.541  0.00  0.00    +0.000 A 
ATOM     18  C   UNL     1       1.114   3.954  20.686  0.00  0.00    +0.000 A 
ATOM     19  C   UNL     1       0.868   2.961  19.741  0.00  0.00    +0.000 A 
ATOM     20  C   UNL     1       1.710   2.828  18.640  0.00  0.00    +0.000 A 
ATOM     21  C   UNL     1       2.813   3.671  18.493  0.00  0.00    +0.000 A 
ENDBRANCH  15  16
ENDBRANCH   6  15
TORSDOF 4
ENDMDL
MODEL 3
REMARK VINA RESULT:      -7.3      2.387      4.511
REMARK  Name = 
REMARK  5 active torsions:
REMARK  status: ('A' for Active; 'I' for Inactive)
REMARK    1  A    between atoms: C_1  and  S_2
REMARK    2  A    between atoms: S_2  and  C_3
REMARK    3  A    between atoms: C_5  and  C_6
REMARK    4  A    between atoms: C_13  and  C_15
REMARK    5  A    between atoms: C_15  and  C_16
REMARK                            x       y       z     vdW  Elec       q    Type
REMARK                         _______ _______ _______ _____ _____    ______ ____
ROOT
ATOM      1  C   UNL     1       6.694   5.340  16.348  0.00  0.00    +0.000 A 
ATOM      2  N   UNL     1       7.328   6.489  16.281  0.00  0.00    +0.000 NA
ATOM      3  C   UNL     1       7.409   6.882  17.589  0.00  0.00    +0.000 A 
ATOM      4  N   UNL     1       6.873   6.022  18.457  0.00  0.00    +0.000 NA
ATOM      5  N   UNL     1       6.290   5.093  17.648  0.00  0.00    +0.000 N 
ATOM      6  C   UNL     1       5.417   4.173  18.250  0.00  0.00    +0.000 C 
ATOM      7  O   UNL     1       5.540   3.930  19.451  0.00  0.00    +0.000 OA
ENDROOT
BRANCH   3   8
ATOM      8  C   UNL     1       8.022   8.163  18.050  0.00  0.00    +0.000 A 
ATOM      9  C   UNL     1       7.804   9.399  17.464  0.00  0.00    +0.000 A 
ATOM     10  C   UNL     1       8.589  10.337  18.171  0.00  0.00    +0.000 A 
ATOM     11  C   UNL     1       9.243   9.623  19.146  0.00  0.00    +0.000 A 
ATOM     12  O   UNL     1       8.901   8.308  19.090  0.00  0.00    +0.000 OA
ENDBRANCH   3   8
BRANCH   1  14
ATOM     13  C   UNL     1       7.424   5.074  13.711  0.00  0.00    +0.000 C 
ATOM     14  S   UNL     1       6.542   4.220  15.035  0.00  0.00    +0.000 S 
ENDBRANCH   1  14
BRANCH   6  15
ATOM     15  C   UNL     1       4.257   3.678  17.420  0.00  0.00    +0.000 C 
BRANCH  15  16
ATOM     16  C   UNL     1       2.984   3.496  18.209  0.00  0.00    +0.000 A 
ATOM     17  C   UNL     1       2.501   4.523  19.035  0.00  0.00    +0.000 A 
ATOM     18  C   UNL     1       1.344   4.344  19.793  0.00  0.00    +0.000 A 
ATOM     19  C   UNL     1       0.647   3.140  19.725  0.00  0.00    +0.000 A 
ATOM     20  C   UNL     1       1.095   2.126  18.882  0.00  0.00    +0.000 A 
ATOM     21  C   UNL     1       2.253   2.305  18.122  0.00  0.00    +0.000 A 
ENDBRANCH  15  16
ENDBRANCH   6  15
TORSDOF 4
ENDMDL
MODEL 4
REMARK VINA RESULT:      -7.2      1.016      1.299
REMARK  Name = 
REMARK  5 active torsions:
REMARK  status: ('A' for Active; 'I' for Inactive)
REMARK    1  A    between atoms: C_1  and  S_2
REMARK    2  A    between atoms: S_2  and  C_3
REMARK    3  A    between atoms: C_5  and  C_6
REMARK    4  A    between atoms: C_13  and  C_15
REMARK    5  A    between atoms: C_15  and  C_16
REMARK                            x       y       z     vdW  Elec       q    Type
REMARK                         _______ _______ _______ _____ _____    ______ ____
ROOT
ATOM      1  C   UNL     1       6.772   5.324  17.307  0.00  0.00    +0.000 A 
ATOM      2  N   UNL     1       7.324   4.696  16.294  0.00  0.00    +0.000 NA
ATOM      3  C   UNL     1       6.514   5.024  15.241  0.00  0.00    +0.000 A 
ATOM      4  N   UNL     1       5.504   5.838  15.554  0.00  0.00    +0.000 NA
ATOM      5  N   UNL     1       5.588   5.923  16.912  0.00  0.00    +0.000 N 
ATOM      6  C   UNL     1       4.508   6.510  17.588  0.00  0.00    +0.000 C 
ATOM      7  O   UNL     1       3.780   7.297  16.982  0.00  0.00    +0.000 OA
ENDROOT
BRANCH   3   8
ATOM      8  C   UNL     1       6.700   4.525  13.845  0.00  0.00    +0.000 A 
ATOM      9  C   UNL     1       7.573   5.072  12.921  0.00  0.00    +0.000 A 
ATOM     10  C   UNL     1       7.423   4.338  11.723  0.00  0.00    +0.000 A 
ATOM     11  C   UNL     1       6.466   3.386  11.982  0.00  0.00    +0.000 A 
ATOM     12  O   UNL     1       6.027   3.482  13.266  0.00  0.00    +0.000 OA
ENDBRANCH   3   8
BRANCH   1  14
ATOM     13  C   UNL     1       8.227   7.171  18.731  0.00  0.00    +0.000 C 
ATOM     14  S   UNL     1       7.507   5.521  18.864  0.00  0.00    +0.000 S 
ENDBRANCH   1  14
BRANCH   6  15
ATOM     15  C   UNL     1       4.195   5.991  18.971  0.00  0.00    +0.000 C 
BRANCH  15  16
ATOM     16  C   UNL     1       3.350   4.741  18.970  0.00  0.00    +0.000 A 
ATOM     17  C   UNL     1       2.158   4.685  18.231  0.00  0.00    +0.000 A 
ATOM     18  C   UNL     1       1.357   3.542  18.256  0.00  0.00    +0.000 A 
ATOM     19  C   UNL     1       1.744   2.438  19.011  0.00  0.00    +0.000 A 
ATOM     20  C   UNL     1       2.942   2.468  19.720  0.00  0.00    +0.000 A 
ATOM     21  C   UNL     1       3.745   3.610  19.694  0.00  0.00    +0.000 A 
ENDBRANCH  15  16
ENDBRANCH   6  15
TORSDOF 4
ENDMDL
MODEL 5
REMARK VINA RESULT:      -7.1      2.407      4.425
REMARK  Name = 
REMARK  5 active torsions:
REMARK  status: ('A' for Active; 'I' for Inactive)
REMARK    1  A    between atoms: C_1  and  S_2
REMARK    2  A    between atoms: S_2  and  C_3
REMARK    3  A    between atoms: C_5  and  C_6
REMARK    4  A    between atoms: C_13  and  C_15
REMARK    5  A    between atoms: C_15  and  C_16
REMARK                            x       y       z     vdW  Elec       q    Type
REMARK                         _______ _______ _______ _____ _____    ______ ____
ROOT
ATOM      1  C   UNL     1       6.716   5.393  16.487  0.00  0.00    +0.000 A 
ATOM      2  N   UNL     1       7.321   6.554  16.372  0.00  0.00    +0.000 NA
ATOM      3  C   UNL     1       7.439   6.978  17.667  0.00  0.00    +0.000 A 
ATOM      4  N   UNL     1       6.955   6.126  18.573  0.00  0.00    +0.000 NA
ATOM      5  N   UNL     1       6.366   5.166  17.806  0.00  0.00    +0.000 N 
ATOM      6  C   UNL     1       5.537   4.240  18.459  0.00  0.00    +0.000 C 
ATOM      7  O   UNL     1       5.708   4.027  19.659  0.00  0.00    +0.000 OA
ENDROOT
BRANCH   3   8
ATOM      8  C   UNL     1       8.038   8.283  18.078  0.00  0.00    +0.000 A 
ATOM      9  C   UNL     1       7.771   9.500  17.472  0.00  0.00    +0.000 A 
ATOM     10  C   UNL     1       8.558  10.472  18.130  0.00  0.00    +0.000 A 
ATOM     11  C   UNL     1       9.261   9.795  19.098  0.00  0.00    +0.000 A 
ATOM     12  O   UNL     1       8.948   8.472  19.084  0.00  0.00    +0.000 OA
ENDBRANCH   3   8
BRANCH   1  14
ATOM     13  C   UNL     1       7.424   5.052  13.852  0.00  0.00    +0.000 C 
ATOM     14  S   UNL     1       6.544   4.241  15.204  0.00  0.00    +0.000 S 
ENDBRANCH   1  14
BRANCH   6  15
ATOM     15  C   UNL     1       4.360   3.700  17.682  0.00  0.00    +0.000 C 
BRANCH  15  16
ATOM     16  C   UNL     1       3.120   3.510  18.520  0.00  0.00    +0.000 A 
ATOM     17  C   UNL     1       2.608   2.225  18.759  0.00  0.00    +0.000 A 
ATOM     18  C   UNL     1       1.441   2.050  19.505  0.00  0.00    +0.000 A 
ATOM     19  C   UNL     1       0.780   3.156  20.032  0.00  0.00    +0.000 A 
ATOM     20  C   UNL     1       1.297   4.433  19.833  0.00  0.00    +0.000 A 
ATOM     21  C   UNL     1       2.465   4.610  19.088  0.00  0.00    +0.000 A 
ENDBRANCH  15  16
ENDBRANCH   6  15
TORSDOF 4
ENDMDL
MODEL 6
REMARK VINA RESULT:      -7.1      2.472      3.715
REMARK  Name = 
REMARK  5 active torsions:
REMARK  status: ('A' for Active; 'I' for Inactive)
REMARK    1  A    between atoms: C_1  and  S_2
REMARK    2  A    between atoms: S_2  and  C_3
REMARK    3  A    between atoms: C_5  and  C_6
REMARK    4  A    between atoms: C_13  and  C_15
REMARK    5  A    between atoms: C_15  and  C_16
REMARK                            x       y       z     vdW  Elec       q    Type
REMARK                         _______ _______ _______ _____ _____    ______ ____
ROOT
ATOM      1  C   UNL     1       4.028   3.545  17.261  0.00  0.00    +0.000 A 
ATOM      2  N   UNL     1       4.413   3.446  16.008  0.00  0.00    +0.000 NA
ATOM      3  C   UNL     1       5.527   4.239  15.957  0.00  0.00    +0.000 A 
ATOM      4  N   UNL     1       5.857   4.803  17.121  0.00  0.00    +0.000 NA
ATOM      5  N   UNL     1       4.814   4.467  17.931  0.00  0.00    +0.000 N 
ATOM      6  C   UNL     1       4.725   5.120  19.170  0.00  0.00    +0.000 C 
ATOM      7  O   UNL     1       5.746   5.590  19.672  0.00  0.00    +0.000 OA
ENDROOT
BRANCH   3   8
ATOM      8  C   UNL     1       6.329   4.491  14.722  0.00  0.00    +0.000 A 
ATOM      9  C   UNL     1       6.102   3.887  13.497  0.00  0.00    +0.000 A 
ATOM     10  C   UNL     1       7.091   4.365  12.609  0.00  0.00    +0.000 A 
ATOM     11  C   UNL     1       7.866   5.232  13.341  0.00  0.00    +0.000 A 
ATOM     12  O   UNL     1       7.409   5.325  14.619  0.00  0.00    +0.000 OA
ENDBRANCH   3   8
BRANCH   1  14
ATOM     13  C   UNL     1       3.825   1.550  19.142  0.00  0.00    +0.000 C 
ATOM     14  S   UNL     1       2.829   2.540  18.006  0.00  0.00    +0.000 S 
ENDBRANCH   1  14
BRANCH   6  15
ATOM     15  C   UNL     1       3.342   5.367  19.723  0.00  0.00    +0.000 C 
BRANCH  15  16
ATOM     16  C   UNL     1       2.759   6.697  19.317  0.00  0.00    +0.000 A 
ATOM     17  C   UNL     1       1.991   7.448  20.221  0.00  0.00    +0.000 A 
ATOM     18  C   UNL     1       1.422   8.663  19.836  0.00  0.00    +0.000 A 
ATOM     19  C   UNL     1       1.623   9.147  18.546  0.00  0.00    +0.000 A 
ATOM     20  C   UNL     1       2.413   8.430  17.651  0.00  0.00    +0.000 A 
ATOM     21  C   UNL     1       2.984   7.216  18.035  0.00  0.00    +0.000 A 
ENDBRANCH  15  16
ENDBRANCH   6  15
TORSDOF 4
ENDMDL
MODEL 7
REMARK VINA RESULT:      -7.0      2.453      3.606
REMARK  Name = 
REMARK  5 active torsions:
REMARK  status: ('A' for Active; 'I' for Inactive)
REMARK    1  A    between atoms: C_1  and  S_2
REMARK    2  A    between atoms: S_2  and  C_3
REMARK    3  A    between atoms: C_5  and  C_6
REMARK    4  A    between atoms: C_13  and  C_15
REMARK    5  A    between atoms: C_15  and  C_16
REMARK                            x       y       z     vdW  Elec       q    Type
REMARK                         _______ _______ _______ _____ _____    ______ ____
ROOT
ATOM      1  C   UNL     1       4.015   3.549  17.203  0.00  0.00    +0.000 A 
ATOM      2  N   UNL     1       4.393   3.486  15.946  0.00  0.00    +0.000 NA
ATOM      3  C   UNL     1       5.539   4.233  15.923  0.00  0.00    +0.000 A 
ATOM      4  N   UNL     1       5.894   4.734  17.109  0.00  0.00    +0.000 NA
ATOM      5  N   UNL     1       4.840   4.408  17.908  0.00  0.00    +0.000 N 
ATOM      6  C   UNL     1       4.781   5.011  19.174  0.00  0.00    +0.000 C 
ATOM      7  O   UNL     1       5.822   5.417  19.690  0.00  0.00    +0.000 OA
ENDROOT
BRANCH   3   8
ATOM      8  C   UNL     1       6.348   4.503  14.697  0.00  0.00    +0.000 A 
ATOM      9  C   UNL     1       6.158   3.882  13.474  0.00  0.00    +0.000 A 
ATOM     10  C   UNL     1       7.142   4.388  12.595  0.00  0.00    +0.000 A 
ATOM     11  C   UNL     1       7.877   5.287  13.330  0.00  0.00    +0.000 A 
ATOM     12  O   UNL     1       7.400   5.373  14.601  0.00  0.00    +0.000 OA
ENDBRANCH   3   8
BRANCH   1  14
ATOM     13  C   UNL     1       3.746   1.327  18.801  0.00  0.00    +0.000 C 
ATOM     14  S   UNL     1       2.777   2.563  17.910  0.00  0.00    +0.000 S 
ENDBRANCH   1  14
BRANCH   6  15
ATOM     15  C   UNL     1       3.410   5.292  19.741  0.00  0.00    +0.000 C 
BRANCH  15  16
ATOM     16  C   UNL     1       2.830   6.611  19.293  0.00  0.00    +0.000 A 
ATOM     17  C   UNL     1       3.090   7.106  18.006  0.00  0.00    +0.000 A 
ATOM     18  C   UNL     1       2.583   8.341  17.601  0.00  0.00    +0.000 A 
ATOM     19  C   UNL     1       1.801   9.091  18.475  0.00  0.00    +0.000 A 
ATOM     20  C   UNL     1       1.505   8.596  19.742  0.00  0.00    +0.000 A 
ATOM     21  C   UNL     1       2.011   7.359  20.147  0.00  0.00    +0.000 A 
ENDBRANCH  15  16
ENDBRANCH   6  15
TORSDOF 4
ENDMDL
MODEL 8
REMARK VINA RESULT:      -6.7      2.525      7.228
REMARK  Name = 
REMARK  5 active torsions:
REMARK  status: ('A' for Active; 'I' for Inactive)
REMARK    1  A    between atoms: C_1  and  S_2
REMARK    2  A    between atoms: S_2  and  C_3
REMARK    3  A    between atoms: C_5  and  C_6
REMARK    4  A    between atoms: C_13  and  C_15
REMARK    5  A    between atoms: C_15  and  C_16
REMARK                            x       y       z     vdW  Elec       q    Type
REMARK                         _______ _______ _______ _____ _____    ______ ____
ROOT
ATOM      1  C   UNL     1       3.445   4.988  17.786  0.00  0.00    +0.000 A 
ATOM      2  N   UNL     1       2.727   5.389  18.811  0.00  0.00    +0.000 NA
ATOM      3  C   UNL     1       2.705   6.749  18.668  0.00  0.00    +0.000 A 
ATOM      4  N   UNL     1       3.356   7.201  17.594  0.00  0.00    +0.000 NA
ATOM      5  N   UNL     1       3.949   6.078  17.100  0.00  0.00    +0.000 N 
ATOM      6  C   UNL     1       4.923   6.250  16.103  0.00  0.00    +0.000 C 
ATOM      7  O   UNL     1       4.896   7.268  15.412  0.00  0.00    +0.000 OA
ENDROOT
BRANCH   3   8
ATOM      8  C   UNL     1       2.034   7.688  19.615  0.00  0.00    +0.000 A 
ATOM      9  C   UNL     1       1.725   7.394  20.933  0.00  0.00    +0.000 A 
ATOM     10  C   UNL     1       1.071   8.526  21.469  0.00  0.00    +0.000 A 
ATOM     11  C   UNL     1       1.016   9.446  20.450  0.00  0.00    +0.000 A 
ATOM     12  O   UNL     1       1.604   8.956  19.326  0.00  0.00    +0.000 OA
ENDBRANCH   3   8
BRANCH   1  14
ATOM     13  C   UNL     1       3.910   2.486  18.828  0.00  0.00    +0.000 C 
ATOM     14  S   UNL     1       3.589   3.340  17.269  0.00  0.00    +0.000 S 
ENDBRANCH   1  14
BRANCH   6  15
ATOM     15  C   UNL     1       6.058   5.255  16.069  0.00  0.00    +0.000 C 
BRANCH  15  16
ATOM     16  C   UNL     1       6.433   4.815  14.676  0.00  0.00    +0.000 A 
ATOM     17  C   UNL     1       7.529   5.391  14.015  0.00  0.00    +0.000 A 
ATOM     18  C   UNL     1       7.857   5.011  12.713  0.00  0.00    +0.000 A 
ATOM     19  C   UNL     1       7.100   4.041  12.060  0.00  0.00    +0.000 A 
ATOM     20  C   UNL     1       6.033   3.435  12.718  0.00  0.00    +0.000 A 
ATOM     21  C   UNL     1       5.705   3.814  14.021  0.00  0.00    +0.000 A 
ENDBRANCH  15  16
ENDBRANCH   6  15
TORSDOF 4
ENDMDL
MODEL 9
REMARK VINA RESULT:      -6.7      2.436      7.251
REMARK  Name = 
REMARK  5 active torsions:
REMARK  status: ('A' for Active; 'I' for Inactive)
REMARK    1  A    between atoms: C_1  and  S_2
REMARK    2  A    between atoms: S_2  and  C_3
REMARK    3  A    between atoms: C_5  and  C_6
REMARK    4  A    between atoms: C_13  and  C_15
REMARK    5  A    between atoms: C_15  and  C_16
REMARK                            x       y       z     vdW  Elec       q    Type
REMARK                         _______ _______ _______ _____ _____    ______ ____
ROOT
ATOM      1  C   UNL     1       3.669   4.947  17.807  0.00  0.00    +0.000 A 
ATOM      2  N   UNL     1       2.961   5.316  18.851  0.00  0.00    +0.000 NA
ATOM      3  C   UNL     1       2.811   6.663  18.670  0.00  0.00    +0.000 A 
ATOM      4  N   UNL     1       3.374   7.137  17.556  0.00  0.00    +0.000 NA
ATOM      5  N   UNL     1       4.045   6.055  17.069  0.00  0.00    +0.000 N 
ATOM      6  C   UNL     1       4.957   6.281  16.026  0.00  0.00    +0.000 C 
ATOM      7  O   UNL     1       4.810   7.270  15.308  0.00  0.00    +0.000 OA
ENDROOT
BRANCH   3   8
ATOM      8  C   UNL     1       2.098   7.569  19.620  0.00  0.00    +0.000 A 
ATOM      9  C   UNL     1       1.732   7.228  20.911  0.00  0.00    +0.000 A 
ATOM     10  C   UNL     1       1.054   8.341  21.458  0.00  0.00    +0.000 A 
ATOM     11  C   UNL     1       1.043   9.297  20.470  0.00  0.00    +0.000 A 
ATOM     12  O   UNL     1       1.681   8.846  19.357  0.00  0.00    +0.000 OA
ENDBRANCH   3   8
BRANCH   1  14
ATOM     13  C   UNL     1       2.362   2.529  17.746  0.00  0.00    +0.000 C 
ATOM     14  S   UNL     1       3.940   3.303  17.331  0.00  0.00    +0.000 S 
ENDBRANCH   1  14
BRANCH   6  15
ATOM     15  C   UNL     1       6.175   5.390  15.970  0.00  0.00    +0.000 C 
BRANCH  15  16
ATOM     16  C   UNL     1       6.494   4.892  14.582  0.00  0.00    +0.000 A 
ATOM     17  C   UNL     1       5.696   3.911  13.973  0.00  0.00    +0.000 A 
ATOM     18  C   UNL     1       6.010   3.424  12.703  0.00  0.00    +0.000 A 
ATOM     19  C   UNL     1       7.119   3.920  12.023  0.00  0.00    +0.000 A 
ATOM     20  C   UNL     1       7.898   4.919  12.601  0.00  0.00    +0.000 A 
ATOM     21  C   UNL     1       7.584   5.408  13.870  0.00  0.00    +0.000 A 
ENDBRANCH  15  16
ENDBRANCH   6  15
TORSDOF 4
ENDMDL
