MODEL 1
REMARK VINA RESULT:      -7.5      0.000      0.000
REMARK  Name = 
REMARK  7 active torsions:
REMARK  status: ('A' for Active; 'I' for Inactive)
REMARK    1  A    between atoms: C_1  and  C_2
REMARK    2  A    between atoms: C_2  and  N_3
REMARK    3  A    between atoms: N_3  and  C_4
REMARK    4  A    between atoms: N_3  and  C_14
REMARK    5  A    between atoms: C_4  and  C_5
REMARK    6  A    between atoms: C_18  and  C_19
REMARK    7  A    between atoms: C_18  and  C_20
REMARK                            x       y       z     vdW  Elec       q    Type
REMARK                         _______ _______ _______ _____ _____    ______ ____
ROOT
ATOM      1  N   UNL     1       3.044   6.410  18.273  0.00  0.00    +0.000 NA
ENDROOT
BRANCH   1   2
ATOM      2  C   UNL     1       3.236   5.605  19.516  0.00  0.00    +0.000 C 
ATOM      3  C   UNL     1       2.010   5.365  20.422  0.00  0.00    +0.000 C 
ATOM      4  C   UNL     1       1.093   4.264  19.927  0.00  0.00    +0.000 C 
ATOM      5  O   UNL     1       1.795   3.042  19.705  0.00  0.00    +0.000 OA
ATOM      6  C   UNL     1       2.893   3.140  18.788  0.00  0.00    +0.000 C 
ATOM      7  C   UNL     1       3.606   1.779  18.830  0.00  0.00    +0.000 C 
ATOM      8  C   UNL     1       2.392   3.366  17.356  0.00  0.00    +0.000 C 
ATOM      9  C   UNL     1       3.874   4.213  19.281  0.00  0.00    +0.000 C 
ENDBRANCH   1   2
BRANCH   1  11
ATOM     10  C   UNL     1       2.202   8.766  17.776  0.00  0.00    +0.000 C 
ATOM     11  C   UNL     1       1.947   7.398  18.415  0.00  0.00    +0.000 C 
ENDBRANCH   1  11
BRANCH   1  12
ATOM     12  C   UNL     1       4.301   7.062  17.781  0.00  0.00    +0.000 C 
BRANCH  12  13
ATOM     13  C   UNL     1       5.280   6.183  17.014  0.00  0.00    +0.000 A 
ATOM     14  C   UNL     1       5.088   5.883  15.646  0.00  0.00    +0.000 A 
ATOM     15  C   UNL     1       5.797   4.891  14.981  0.00  0.00    +0.000 A 
ATOM     16  C   UNL     1       6.835   4.224  15.618  0.00  0.00    +0.000 A 
ATOM     17  C   UNL     1       7.168   4.660  16.904  0.00  0.00    +0.000 A 
ATOM     18  N   UNL     1       8.206   4.262  17.712  0.00  0.00    +0.000 N 
ATOM     19  C   UNL     1       8.197   4.971  18.875  0.00  0.00    +0.000 A 
ATOM     20  C   UNL     1       7.104   5.804  18.851  0.00  0.00    +0.000 A 
ATOM     21  C   UNL     1       6.443   5.621  17.605  0.00  0.00    +0.000 A 
ATOM     22  H   UNL     1       8.894   3.563  17.459  0.00  0.00    +0.000 HD
ENDBRANCH  12  13
ENDBRANCH   1  12
TORSDOF 4
ENDMDL
MODEL 2
REMARK VINA RESULT:      -7.3      2.488      5.914
REMARK  Name = 
REMARK  7 active torsions:
REMARK  status: ('A' for Active; 'I' for Inactive)
REMARK    1  A    between atoms: C_1  and  C_2
REMARK    2  A    between atoms: C_2  and  N_3
REMARK    3  A    between atoms: N_3  and  C_4
REMARK    4  A    between atoms: N_3  and  C_14
REMARK    5  A    between atoms: C_4  and  C_5
REMARK    6  A    between atoms: C_18  and  C_19
REMARK    7  A    between atoms: C_18  and  C_20
REMARK                            x       y       z     vdW  Elec       q    Type
REMARK                         _______ _______ _______ _____ _____    ______ ____
ROOT
ATOM      1  N   UNL     1       2.859   5.352  18.904  0.00  0.00    +0.000 NA
ENDROOT
BRANCH   1   2
ATOM      2  C   UNL     1       4.115   4.566  19.091  0.00  0.00    +0.000 C 
ATOM      3  C   UNL     1       4.341   3.335  18.188  0.00  0.00    +0.000 C 
ATOM      4  C   UNL     1       4.841   3.681  16.799  0.00  0.00    +0.000 C 
ATOM      5  O   UNL     1       6.014   4.492  16.839  0.00  0.00    +0.000 OA
ATOM      6  C   UNL     1       5.870   5.717  17.569  0.00  0.00    +0.000 C 
ATOM      7  C   UNL     1       7.275   6.341  17.635  0.00  0.00    +0.000 C 
ATOM      8  C   UNL     1       4.956   6.696  16.822  0.00  0.00    +0.000 C 
ATOM      9  C   UNL     1       5.413   5.406  19.002  0.00  0.00    +0.000 C 
ENDBRANCH   1   2
BRANCH   1  11
ATOM     10  C   UNL     1       1.030   4.048  20.110  0.00  0.00    +0.000 C 
ATOM     11  C   UNL     1       1.668   4.477  18.787  0.00  0.00    +0.000 C 
ENDBRANCH   1  11
BRANCH   1  12
ATOM     12  C   UNL     1       2.655   6.410  19.947  0.00  0.00    +0.000 C 
BRANCH  12  13
ATOM     13  C   UNL     1       2.020   7.717  19.489  0.00  0.00    +0.000 A 
ATOM     14  C   UNL     1       2.139   8.168  18.154  0.00  0.00    +0.000 A 
ATOM     15  C   UNL     1       1.807   9.457  17.759  0.00  0.00    +0.000 A 
ATOM     16  C   UNL     1       1.214  10.336  18.656  0.00  0.00    +0.000 A 
ATOM     17  C   UNL     1       0.903   9.829  19.920  0.00  0.00    +0.000 A 
ATOM     18  N   UNL     1       0.224  10.432  20.953  0.00  0.00    +0.000 N 
ATOM     19  C   UNL     1       0.097   9.571  22.000  0.00  0.00    +0.000 A 
ATOM     20  C   UNL     1       0.752   8.408  21.671  0.00  0.00    +0.000 A 
ATOM     21  C   UNL     1       1.265   8.555  20.352  0.00  0.00    +0.000 A 
ATOM     22  H   UNL     1      -0.153  11.372  20.919  0.00  0.00    +0.000 HD
ENDBRANCH  12  13
ENDBRANCH   1  12
TORSDOF 4
ENDMDL
MODEL 3
REMARK VINA RESULT:      -7.0      1.897      3.840
REMARK  Name = 
REMARK  7 active torsions:
REMARK  status: ('A' for Active; 'I' for Inactive)
REMARK    1  A    between atoms: C_1  and  C_2
REMARK    2  A    between atoms: C_2  and  N_3
REMARK    3  A    between atoms: N_3  and  C_4
REMARK    4  A    between atoms: N_3  and  C_14
REMARK    5  A    between atoms: C_4  and  C_5
REMARK    6  A    between atoms: C_18  and  C_19
REMARK    7  A    between atoms: C_18  and  C_20
REMARK                            x       y       z     vdW  Elec       q    Type
REMARK                         _______ _______ _______ _____ _____    ______ ____
ROOT
ATOM      1  N   UNL     1       3.244   2.971  18.009  0.00  0.00    +0.000 NA
ENDROOT
BRANCH   1   2
ATOM      2  C   UNL     1       1.839   3.463  18.127  0.00  0.00    +0.000 C 
ATOM      3  C   UNL     1       0.849   2.637  18.974  0.00  0.00    +0.000 C 
ATOM      4  C   UNL     1       0.985   2.866  20.467  0.00  0.00    +0.000 C 
ATOM      5  O   UNL     1       0.899   4.249  20.806  0.00  0.00    +0.000 OA
ATOM      6  C   UNL     1       1.855   5.089  20.147  0.00  0.00    +0.000 C 
ATOM      7  C   UNL     1       1.478   6.534  20.513  0.00  0.00    +0.000 C 
ATOM      8  C   UNL     1       3.272   4.824  20.674  0.00  0.00    +0.000 C 
ATOM      9  C   UNL     1       1.715   4.925  18.627  0.00  0.00    +0.000 C 
ENDBRANCH   1   2
BRANCH   1  11
ATOM     10  C   UNL     1       4.344   1.073  19.311  0.00  0.00    +0.000 C 
ATOM     11  C   UNL     1       3.341   1.509  18.240  0.00  0.00    +0.000 C 
ENDBRANCH   1  11
BRANCH   1  12
ATOM     12  C   UNL     1       3.911   3.363  16.725  0.00  0.00    +0.000 C 
BRANCH  12  13
ATOM     13  C   UNL     1       5.180   4.198  16.834  0.00  0.00    +0.000 A 
ATOM     14  C   UNL     1       5.607   4.736  18.070  0.00  0.00    +0.000 A 
ATOM     15  C   UNL     1       6.596   5.705  18.172  0.00  0.00    +0.000 A 
ATOM     16  C   UNL     1       7.309   6.102  17.049  0.00  0.00    +0.000 A 
ATOM     17  C   UNL     1       7.035   5.424  15.858  0.00  0.00    +0.000 A 
ATOM     18  N   UNL     1       7.657   5.530  14.637  0.00  0.00    +0.000 N 
ATOM     19  C   UNL     1       7.108   4.655  13.749  0.00  0.00    +0.000 A 
ATOM     20  C   UNL     1       6.075   4.007  14.382  0.00  0.00    +0.000 A 
ATOM     21  C   UNL     1       6.018   4.481  15.723  0.00  0.00    +0.000 A 
ATOM     22  H   UNL     1       8.434   6.151  14.441  0.00  0.00    +0.000 HD
ENDBRANCH  12  13
ENDBRANCH   1  12
TORSDOF 4
ENDMDL
MODEL 4
REMARK VINA RESULT:      -7.0      2.226      5.537
REMARK  Name = 
REMARK  7 active torsions:
REMARK  status: ('A' for Active; 'I' for Inactive)
REMARK    1  A    between atoms: C_1  and  C_2
REMARK    2  A    between atoms: C_2  and  N_3
REMARK    3  A    between atoms: N_3  and  C_4
REMARK    4  A    between atoms: N_3  and  C_14
REMARK    5  A    between atoms: C_4  and  C_5
REMARK    6  A    between atoms: C_18  and  C_19
REMARK    7  A    between atoms: C_18  and  C_20
REMARK                            x       y       z     vdW  Elec       q    Type
REMARK                         _______ _______ _______ _____ _____    ______ ____
ROOT
ATOM      1  N   UNL     1       5.548   4.339  18.472  0.00  0.00    +0.000 NA
ENDROOT
BRANCH   1   2
ATOM      2  C   UNL     1       4.535   4.744  17.451  0.00  0.00    +0.000 C 
ATOM      3  C   UNL     1       4.337   6.251  17.185  0.00  0.00    +0.000 C 
ATOM      4  C   UNL     1       5.394   6.854  16.280  0.00  0.00    +0.000 C 
ATOM      5  O   UNL     1       5.516   6.141  15.050  0.00  0.00    +0.000 OA
ATOM      6  C   UNL     1       5.809   4.745  15.193  0.00  0.00    +0.000 C 
ATOM      7  C   UNL     1       5.723   4.145  13.780  0.00  0.00    +0.000 C 
ATOM      8  C   UNL     1       7.238   4.535  15.708  0.00  0.00    +0.000 C 
ATOM      9  C   UNL     1       4.729   4.085  16.063  0.00  0.00    +0.000 C 
ENDBRANCH   1   2
BRANCH   1  11
ATOM     10  C   UNL     1       7.567   5.712  19.209  0.00  0.00    +0.000 C 
ATOM     11  C   UNL     1       6.051   5.499  19.246  0.00  0.00    +0.000 C 
ENDBRANCH   1  11
BRANCH   1  12
ATOM     12  C   UNL     1       5.077   3.243  19.380  0.00  0.00    +0.000 C 
BRANCH  12  13
ATOM     13  C   UNL     1       3.587   2.931  19.371  0.00  0.00    +0.000 A 
ATOM     14  C   UNL     1       3.087   1.730  18.817  0.00  0.00    +0.000 A 
ATOM     15  C   UNL     1       1.740   1.521  18.553  0.00  0.00    +0.000 A 
ATOM     16  C   UNL     1       0.794   2.458  18.948  0.00  0.00    +0.000 A 
ATOM     17  C   UNL     1       1.260   3.552  19.682  0.00  0.00    +0.000 A 
ATOM     18  N   UNL     1       0.545   4.558  20.287  0.00  0.00    +0.000 N 
ATOM     19  C   UNL     1       1.385   5.407  20.941  0.00  0.00    +0.000 A 
ATOM     20  C   UNL     1       2.672   4.982  20.714  0.00  0.00    +0.000 A 
ATOM     21  C   UNL     1       2.610   3.803  19.920  0.00  0.00    +0.000 A 
ATOM     22  H   UNL     1      -0.466   4.633  20.270  0.00  0.00    +0.000 HD
ENDBRANCH  12  13
ENDBRANCH   1  12
TORSDOF 4
ENDMDL
MODEL 5
REMARK VINA RESULT:      -6.9      0.943      1.145
REMARK  Name = 
REMARK  7 active torsions:
REMARK  status: ('A' for Active; 'I' for Inactive)
REMARK    1  A    between atoms: C_1  and  C_2
REMARK    2  A    between atoms: C_2  and  N_3
REMARK    3  A    between atoms: N_3  and  C_4
REMARK    4  A    between atoms: N_3  and  C_14
REMARK    5  A    between atoms: C_4  and  C_5
REMARK    6  A    between atoms: C_18  and  C_19
REMARK    7  A    between atoms: C_18  and  C_20
REMARK                            x       y       z     vdW  Elec       q    Type
REMARK                         _______ _______ _______ _____ _____    ______ ____
ROOT
ATOM      1  N   UNL     1       2.921   5.935  19.390  0.00  0.00    +0.000 NA
ENDROOT
BRANCH   1   2
ATOM      2  C   UNL     1       2.827   4.732  20.270  0.00  0.00    +0.000 C 
ATOM      3  C   UNL     1       1.422   4.222  20.655  0.00  0.00    +0.000 C 
ATOM      4  C   UNL     1       0.754   3.400  19.570  0.00  0.00    +0.000 C 
ATOM      5  O   UNL     1       1.576   2.318  19.135  0.00  0.00    +0.000 OA
ATOM      6  C   UNL     1       2.870   2.704  18.655  0.00  0.00    +0.000 C 
ATOM      7  C   UNL     1       3.641   1.396  18.410  0.00  0.00    +0.000 C 
ATOM      8  C   UNL     1       2.760   3.443  17.316  0.00  0.00    +0.000 C 
ATOM      9  C   UNL     1       3.603   3.497  19.747  0.00  0.00    +0.000 C 
ENDBRANCH   1   2
BRANCH   1  11
ATOM     10  C   UNL     1       1.923   8.228  18.893  0.00  0.00    +0.000 C 
ATOM     11  C   UNL     1       1.985   7.005  19.811  0.00  0.00    +0.000 C 
ENDBRANCH   1  11
BRANCH   1  12
ATOM     12  C   UNL     1       4.316   6.461  19.242  0.00  0.00    +0.000 C 
BRANCH  12  13
ATOM     13  C   UNL     1       4.995   6.247  17.895  0.00  0.00    +0.000 A 
ATOM     14  C   UNL     1       4.453   6.778  16.702  0.00  0.00    +0.000 A 
ATOM     15  C   UNL     1       4.886   6.397  15.439  0.00  0.00    +0.000 A 
ATOM     16  C   UNL     1       5.978   5.552  15.296  0.00  0.00    +0.000 A 
ATOM     17  C   UNL     1       6.649   5.188  16.467  0.00  0.00    +0.000 A 
ATOM     18  N   UNL     1       7.809   4.464  16.612  0.00  0.00    +0.000 N 
ATOM     19  C   UNL     1       8.146   4.373  17.929  0.00  0.00    +0.000 A 
ATOM     20  C   UNL     1       7.163   4.997  18.659  0.00  0.00    +0.000 A 
ATOM     21  C   UNL     1       6.208   5.523  17.746  0.00  0.00    +0.000 A 
ATOM     22  H   UNL     1       8.347   4.084  15.843  0.00  0.00    +0.000 HD
ENDBRANCH  12  13
ENDBRANCH   1  12
TORSDOF 4
ENDMDL
MODEL 6
REMARK VINA RESULT:      -6.8      2.390      5.129
REMARK  Name = 
REMARK  7 active torsions:
REMARK  status: ('A' for Active; 'I' for Inactive)
REMARK    1  A    between atoms: C_1  and  C_2
REMARK    2  A    between atoms: C_2  and  N_3
REMARK    3  A    between atoms: N_3  and  C_4
REMARK    4  A    between atoms: N_3  and  C_14
REMARK    5  A    between atoms: C_4  and  C_5
REMARK    6  A    between atoms: C_18  and  C_19
REMARK    7  A    between atoms: C_18  and  C_20
REMARK                            x       y       z     vdW  Elec       q    Type
REMARK                         _______ _______ _______ _____ _____    ______ ____
ROOT
ATOM      1  N   UNL     1       4.201   5.946  17.835  0.00  0.00    +0.000 NA
ENDROOT
BRANCH   1   2
ATOM      2  C   UNL     1       4.854   6.776  16.780  0.00  0.00    +0.000 C 
ATOM      3  C   UNL     1       6.100   7.598  17.171  0.00  0.00    +0.000 C 
ATOM      4  C   UNL     1       7.376   6.781  17.226  0.00  0.00    +0.000 C 
ATOM      5  O   UNL     1       7.608   6.069  16.011  0.00  0.00    +0.000 OA
ATOM      6  C   UNL     1       6.545   5.192  15.618  0.00  0.00    +0.000 C 
ATOM      7  C   UNL     1       6.918   4.671  14.220  0.00  0.00    +0.000 C 
ATOM      8  C   UNL     1       6.453   3.986  16.561  0.00  0.00    +0.000 C 
ATOM      9  C   UNL     1       5.240   5.993  15.500  0.00  0.00    +0.000 C 
ENDBRANCH   1   2
BRANCH   1  11
ATOM     10  C   UNL     1       2.456   7.786  18.105  0.00  0.00    +0.000 C 
ATOM     11  C   UNL     1       3.388   6.767  18.765  0.00  0.00    +0.000 C 
ENDBRANCH   1  11
BRANCH   1  12
ATOM     12  C   UNL     1       3.406   4.799  17.288  0.00  0.00    +0.000 C 
BRANCH  12  13
ATOM     13  C   UNL     1       2.646   3.943  18.293  0.00  0.00    +0.000 A 
ATOM     14  C   UNL     1       1.237   3.831  18.252  0.00  0.00    +0.000 A 
ATOM     15  C   UNL     1       0.490   3.284  19.287  0.00  0.00    +0.000 A 
ATOM     16  C   UNL     1       1.123   2.699  20.375  0.00  0.00    +0.000 A 
ATOM     17  C   UNL     1       2.518   2.619  20.325  0.00  0.00    +0.000 A 
ATOM     18  N   UNL     1       3.383   2.002  21.197  0.00  0.00    +0.000 N 
ATOM     19  C   UNL     1       4.665   2.124  20.754  0.00  0.00    +0.000 A 
ATOM     20  C   UNL     1       4.644   2.881  19.606  0.00  0.00    +0.000 A 
ATOM     21  C   UNL     1       3.288   3.199  19.319  0.00  0.00    +0.000 A 
ATOM     22  H   UNL     1       3.098   1.503  22.030  0.00  0.00    +0.000 HD
ENDBRANCH  12  13
ENDBRANCH   1  12
TORSDOF 4
ENDMDL
MODEL 7
REMARK VINA RESULT:      -6.7      2.135      5.621
REMARK  Name = 
REMARK  7 active torsions:
REMARK  status: ('A' for Active; 'I' for Inactive)
REMARK    1  A    between atoms: C_1  and  C_2
REMARK    2  A    between atoms: C_2  and  N_3
REMARK    3  A    between atoms: N_3  and  C_4
REMARK    4  A    between atoms: N_3  and  C_14
REMARK    5  A    between atoms: C_4  and  C_5
REMARK    6  A    between atoms: C_18  and  C_19
REMARK    7  A    between atoms: C_18  and  C_20
REMARK                            x       y       z     vdW  Elec       q    Type
REMARK                         _______ _______ _______ _____ _____    ______ ____
ROOT
ATOM      1  N   UNL     1       3.589   5.769  18.290  0.00  0.00    +0.000 NA
ENDROOT
BRANCH   1   2
ATOM      2  C   UNL     1       3.214   4.608  17.428  0.00  0.00    +0.000 C 
ATOM      3  C   UNL     1       4.189   3.414  17.356  0.00  0.00    +0.000 C 
ATOM      4  C   UNL     1       4.096   2.479  18.546  0.00  0.00    +0.000 C 
ATOM      5  O   UNL     1       2.762   2.021  18.765  0.00  0.00    +0.000 OA
ATOM      6  C   UNL     1       1.795   3.063  18.951  0.00  0.00    +0.000 C 
ATOM      7  C   UNL     1       0.424   2.368  18.992  0.00  0.00    +0.000 C 
ATOM      8  C   UNL     1       2.004   3.770  20.296  0.00  0.00    +0.000 C 
ATOM      9  C   UNL     1       1.821   4.006  17.740  0.00  0.00    +0.000 C 
ENDBRANCH   1   2
BRANCH   1  11
ATOM     10  C   UNL     1       5.609   6.845  17.165  0.00  0.00    +0.000 C 
ATOM     11  C   UNL     1       5.054   5.995  18.311  0.00  0.00    +0.000 C 
ENDBRANCH   1  11
BRANCH   1  12
ATOM     12  C   UNL     1       2.850   7.029  17.950  0.00  0.00    +0.000 C 
BRANCH  12  13
ATOM     13  C   UNL     1       2.148   7.747  19.095  0.00  0.00    +0.000 A 
ATOM     14  C   UNL     1       1.943   7.119  20.346  0.00  0.00    +0.000 A 
ATOM     15  C   UNL     1       1.091   7.629  21.318  0.00  0.00    +0.000 A 
ATOM     16  C   UNL     1       0.491   8.868  21.144  0.00  0.00    +0.000 A 
ATOM     17  C   UNL     1       0.853   9.590  20.004  0.00  0.00    +0.000 A 
ATOM     18  N   UNL     1       0.506  10.869  19.640  0.00  0.00    +0.000 N 
ATOM     19  C   UNL     1       1.112  11.208  18.468  0.00  0.00    +0.000 A 
ATOM     20  C   UNL     1       1.821  10.115  18.030  0.00  0.00    +0.000 A 
ATOM     21  C   UNL     1       1.670   9.081  18.996  0.00  0.00    +0.000 A 
ATOM     22  H   UNL     1      -0.091  11.478  20.187  0.00  0.00    +0.000 HD
ENDBRANCH  12  13
ENDBRANCH   1  12
TORSDOF 4
ENDMDL
MODEL 8
REMARK VINA RESULT:      -6.7      2.158      5.347
REMARK  Name = 
REMARK  7 active torsions:
REMARK  status: ('A' for Active; 'I' for Inactive)
REMARK    1  A    between atoms: C_1  and  C_2
REMARK    2  A    between atoms: C_2  and  N_3
REMARK    3  A    between atoms: N_3  and  C_4
REMARK    4  A    between atoms: N_3  and  C_14
REMARK    5  A    between atoms: C_4  and  C_5
REMARK    6  A    between atoms: C_18  and  C_19
REMARK    7  A    between atoms: C_18  and  C_20
REMARK                            x       y       z     vdW  Elec       q    Type
REMARK                         _______ _______ _______ _____ _____    ______ ____
ROOT
ATOM      1  N   UNL     1       3.275   5.324  18.749  0.00  0.00    +0.000 NA
ENDROOT
BRANCH   1   2
ATOM      2  C   UNL     1       1.871   4.821  18.844  0.00  0.00    +0.000 C 
ATOM      3  C   UNL     1       1.416   3.746  17.836  0.00  0.00    +0.000 C 
ATOM      4  C   UNL     1       1.873   2.344  18.193  0.00  0.00    +0.000 C 
ATOM      5  O   UNL     1       1.493   1.979  19.519  0.00  0.00    +0.000 OA
ATOM      6  C   UNL     1       1.964   2.865  20.542  0.00  0.00    +0.000 C 
ATOM      7  C   UNL     1       1.306   2.393  21.850  0.00  0.00    +0.000 C 
ATOM      8  C   UNL     1       3.484   2.748  20.712  0.00  0.00    +0.000 C 
ATOM      9  C   UNL     1       1.478   4.291  20.245  0.00  0.00    +0.000 C 
ENDBRANCH   1   2
BRANCH   1  11
ATOM     10  C   UNL     1       4.975   4.479  17.046  0.00  0.00    +0.000 C 
ATOM     11  C   UNL     1       3.758   5.358  17.348  0.00  0.00    +0.000 C 
ENDBRANCH   1  11
BRANCH   1  12
ATOM     12  C   UNL     1       3.486   6.643  19.428  0.00  0.00    +0.000 C 
BRANCH  12  13
ATOM     13  C   UNL     1       2.496   7.754  19.101  0.00  0.00    +0.000 A 
ATOM     14  C   UNL     1       2.458   8.357  17.823  0.00  0.00    +0.000 A 
ATOM     15  C   UNL     1       1.764   9.531  17.561  0.00  0.00    +0.000 A 
ATOM     16  C   UNL     1       0.959  10.104  18.537  0.00  0.00    +0.000 A 
ATOM     17  C   UNL     1       0.827   9.400  19.737  0.00  0.00    +0.000 A 
ATOM     18  N   UNL     1       0.021   9.670  20.817  0.00  0.00    +0.000 N 
ATOM     19  C   UNL     1       0.164   8.704  21.766  0.00  0.00    +0.000 A 
ATOM     20  C   UNL     1       1.119   7.819  21.326  0.00  0.00    +0.000 A 
ATOM     21  C   UNL     1       1.546   8.245  20.037  0.00  0.00    +0.000 A 
ATOM     22  H   UNL     1      -0.611  10.460  20.877  0.00  0.00    +0.000 HD
ENDBRANCH  12  13
ENDBRANCH   1  12
TORSDOF 4
ENDMDL
MODEL 9
REMARK VINA RESULT:      -6.6      2.360      5.701
REMARK  Name = 
REMARK  7 active torsions:
REMARK  status: ('A' for Active; 'I' for Inactive)
REMARK    1  A    between atoms: C_1  and  C_2
REMARK    2  A    between atoms: C_2  and  N_3
REMARK    3  A    between atoms: N_3  and  C_4
REMARK    4  A    between atoms: N_3  and  C_14
REMARK    5  A    between atoms: C_4  and  C_5
REMARK    6  A    between atoms: C_18  and  C_19
REMARK    7  A    between atoms: C_18  and  C_20
REMARK                            x       y       z     vdW  Elec       q    Type
REMARK                         _______ _______ _______ _____ _____    ______ ____
ROOT
ATOM      1  N   UNL     1       4.511   5.833  17.831  0.00  0.00    +0.000 NA
ENDROOT
BRANCH   1   2
ATOM      2  C   UNL     1       5.151   6.741  16.832  0.00  0.00    +0.000 C 
ATOM      3  C   UNL     1       6.533   7.335  17.173  0.00  0.00    +0.000 C 
ATOM      4  C   UNL     1       7.684   6.375  16.940  0.00  0.00    +0.000 C 
ATOM      5  O   UNL     1       7.681   5.847  15.615  0.00  0.00    +0.000 OA
ATOM      6  C   UNL     1       6.471   5.177  15.240  0.00  0.00    +0.000 C 
ATOM      7  C   UNL     1       6.612   4.848  13.745  0.00  0.00    +0.000 C 
ATOM      8  C   UNL     1       6.319   3.854  16.001  0.00  0.00    +0.000 C 
ATOM      9  C   UNL     1       5.283   6.135  15.413  0.00  0.00    +0.000 C 
ENDBRANCH   1   2
BRANCH   1  11
ATOM     10  C   UNL     1       5.775   4.378  19.501  0.00  0.00    +0.000 C 
ATOM     11  C   UNL     1       5.281   5.769  19.097  0.00  0.00    +0.000 C 
ENDBRANCH   1  11
BRANCH   1  12
ATOM     12  C   UNL     1       3.069   6.148  18.089  0.00  0.00    +0.000 C 
BRANCH  12  13
ATOM     13  C   UNL     1       2.270   5.123  18.884  0.00  0.00    +0.000 A 
ATOM     14  C   UNL     1       1.520   5.494  20.024  0.00  0.00    +0.000 A 
ATOM     15  C   UNL     1       0.997   4.571  20.920  0.00  0.00    +0.000 A 
ATOM     16  C   UNL     1       1.086   3.211  20.657  0.00  0.00    +0.000 A 
ATOM     17  C   UNL     1       1.642   2.841  19.429  0.00  0.00    +0.000 A 
ATOM     18  N   UNL     1       1.751   1.592  18.867  0.00  0.00    +0.000 N 
ATOM     19  C   UNL     1       2.320   1.677  17.633  0.00  0.00    +0.000 A 
ATOM     20  C   UNL     1       2.639   2.995  17.407  0.00  0.00    +0.000 A 
ATOM     21  C   UNL     1       2.212   3.747  18.536  0.00  0.00    +0.000 A 
ATOM     22  H   UNL     1       1.424   0.737  19.302  0.00  0.00    +0.000 HD
ENDBRANCH  12  13
ENDBRANCH   1  12
TORSDOF 4
ENDMDL
