MODEL 1
REMARK VINA RESULT:      -8.5      0.000      0.000
REMARK  Name = 
REMARK  5 active torsions:
REMARK  status: ('A' for Active; 'I' for Inactive)
REMARK    1  A    between atoms: C_2  and  OXT_3
REMARK    2  A    between atoms: C_2  and  CA_4
REMARK    3  A    between atoms: C_8  and  N_9
REMARK    4  A    between atoms: C_12  and  O_13
REMARK    5  A    between atoms: O_13  and  C_14
REMARK                            x       y       z     vdW  Elec       q    Type
REMARK                         _______ _______ _______ _____ _____    ______ ____
ROOT
ATOM      1  N   UNL     1       6.133   4.523  15.915  0.00  0.00    +0.000 N 
ATOM      2  C   UNL     1       4.720   4.434  16.266  0.00  0.00    +0.000 C 
ATOM      3  C   UNL     1       4.355   5.640  17.114  0.00  0.00    +0.000 C 
ATOM      4  C   UNL     1       5.231   5.722  18.373  0.00  0.00    +0.000 C 
ATOM      5  C   UNL     1       6.714   5.715  17.967  0.00  0.00    +0.000 C 
ATOM      6  C   UNL     1       7.065   4.546  17.040  0.00  0.00    +0.000 C 
ENDROOT
BRANCH   1  11
ATOM      7  CA  UNL     1       6.190   3.526  12.476  0.00  0.00    +0.000 A 
ATOM      8  C   UNL     1       7.190   4.281  11.894  0.00  0.00    +0.000 A 
ATOM      9  C   UNL     1       7.872   5.160  12.717  0.00  0.00    +0.000 A 
ATOM     10  C   UNL     1       7.521   5.249  14.065  0.00  0.00    +0.000 A 
ATOM     11  C   UNL     1       6.502   4.453  14.593  0.00  0.00    +0.000 A 
ATOM     12  N   UNL     1       5.836   3.586  13.792  0.00  0.00    +0.000 NA
BRANCH   7  14
ATOM     13  O   UNL     1       4.293   2.799  11.178  0.00  0.00    +0.000 OA
ATOM     14  C   UNL     1       5.391   2.570  11.649  0.00  0.00    +0.000 C 
BRANCH  14  15
ATOM     15  OXT UNL     1       6.062   1.400  11.505  0.00  0.00    +0.000 OA
ATOM     16  HXT UNL     1       5.817   0.815  12.262  0.00  0.00    +0.000 HD
ENDBRANCH  14  15
ENDBRANCH   7  14
ENDBRANCH   1  11
BRANCH   4  17
ATOM     17  O   UNL     1       5.016   4.608  19.257  0.00  0.00    +0.000 OA
BRANCH  17  18
ATOM     18  C   UNL     1       3.732   4.345  19.653  0.00  0.00    +0.000 A 
ATOM     19  C   UNL     1       2.866   5.266  20.247  0.00  0.00    +0.000 A 
ATOM     20  C   UNL     1       1.548   4.916  20.555  0.00  0.00    +0.000 A 
ATOM     21  C   UNL     1       1.096   3.628  20.294  0.00  0.00    +0.000 A 
ATOM     22  C   UNL     1       1.962   2.707  19.718  0.00  0.00    +0.000 A 
ATOM     23  F   UNL     1       1.529   1.462  19.481  0.00  0.00    +0.000 F 
ATOM     24  C   UNL     1       3.267   3.055  19.383  0.00  0.00    +0.000 A 
ENDBRANCH  17  18
ENDBRANCH   4  17
TORSDOF 5
ENDMDL
MODEL 2
REMARK VINA RESULT:      -8.3      1.020      1.423
REMARK  Name = 
REMARK  5 active torsions:
REMARK  status: ('A' for Active; 'I' for Inactive)
REMARK    1  A    between atoms: C_2  and  OXT_3
REMARK    2  A    between atoms: C_2  and  CA_4
REMARK    3  A    between atoms: C_8  and  N_9
REMARK    4  A    between atoms: C_12  and  O_13
REMARK    5  A    between atoms: O_13  and  C_14
REMARK                            x       y       z     vdW  Elec       q    Type
REMARK                         _______ _______ _______ _____ _____    ______ ____
ROOT
ATOM      1  N   UNL     1       6.146   4.474  15.913  0.00  0.00    +0.000 N 
ATOM      2  C   UNL     1       4.741   4.319  16.272  0.00  0.00    +0.000 C 
ATOM      3  C   UNL     1       4.324   5.508  17.121  0.00  0.00    +0.000 C 
ATOM      4  C   UNL     1       5.203   5.633  18.375  0.00  0.00    +0.000 C 
ATOM      5  C   UNL     1       6.681   5.696  17.960  0.00  0.00    +0.000 C 
ATOM      6  C   UNL     1       7.082   4.543  17.032  0.00  0.00    +0.000 C 
ENDROOT
BRANCH   1  11
ATOM      7  CA  UNL     1       6.208   3.501  12.467  0.00  0.00    +0.000 A 
ATOM      8  C   UNL     1       7.190   4.280  11.886  0.00  0.00    +0.000 A 
ATOM      9  C   UNL     1       7.858   5.167  12.712  0.00  0.00    +0.000 A 
ATOM     10  C   UNL     1       7.512   5.240  14.062  0.00  0.00    +0.000 A 
ATOM     11  C   UNL     1       6.510   4.421  14.589  0.00  0.00    +0.000 A 
ATOM     12  N   UNL     1       5.859   3.546  13.786  0.00  0.00    +0.000 NA
BRANCH   7  14
ATOM     13  O   UNL     1       4.327   2.751  11.159  0.00  0.00    +0.000 OA
ATOM     14  C   UNL     1       5.425   2.535  11.638  0.00  0.00    +0.000 C 
BRANCH  14  15
ATOM     15  OXT UNL     1       6.109   1.371  11.501  0.00  0.00    +0.000 OA
ATOM     16  HXT UNL     1       5.566   0.764  10.942  0.00  0.00    +0.000 HD
ENDBRANCH  14  15
ENDBRANCH   7  14
ENDBRANCH   1  11
BRANCH   4  17
ATOM     17  O   UNL     1       5.045   4.511  19.261  0.00  0.00    +0.000 OA
BRANCH  17  18
ATOM     18  C   UNL     1       3.776   4.181  19.655  0.00  0.00    +0.000 A 
ATOM     19  C   UNL     1       3.250   2.887  19.682  0.00  0.00    +0.000 A 
ATOM     20  C   UNL     1       1.960   2.647  20.166  0.00  0.00    +0.000 A 
ATOM     21  C   UNL     1       1.177   3.709  20.601  0.00  0.00    +0.000 A 
ATOM     22  C   UNL     1       1.695   4.998  20.560  0.00  0.00    +0.000 A 
ATOM     23  F   UNL     1       0.932   6.022  20.966  0.00  0.00    +0.000 F 
ATOM     24  C   UNL     1       2.987   5.243  20.105  0.00  0.00    +0.000 A 
ENDBRANCH  17  18
ENDBRANCH   4  17
TORSDOF 5
ENDMDL
MODEL 3
REMARK VINA RESULT:      -8.2      1.109      1.275
REMARK  Name = 
REMARK  5 active torsions:
REMARK  status: ('A' for Active; 'I' for Inactive)
REMARK    1  A    between atoms: C_2  and  OXT_3
REMARK    2  A    between atoms: C_2  and  CA_4
REMARK    3  A    between atoms: C_8  and  N_9
REMARK    4  A    between atoms: C_12  and  O_13
REMARK    5  A    between atoms: O_13  and  C_14
REMARK                            x       y       z     vdW  Elec       q    Type
REMARK                         _______ _______ _______ _____ _____    ______ ____
ROOT
ATOM      1  N   UNL     1       5.216   4.879  15.771  0.00  0.00    +0.000 N 
ATOM      2  C   UNL     1       4.948   6.258  16.161  0.00  0.00    +0.000 C 
ATOM      3  C   UNL     1       5.485   6.476  17.566  0.00  0.00    +0.000 C 
ATOM      4  C   UNL     1       4.858   5.490  18.562  0.00  0.00    +0.000 C 
ATOM      5  C   UNL     1       5.076   4.052  18.065  0.00  0.00    +0.000 C 
ATOM      6  C   UNL     1       4.614   3.852  16.617  0.00  0.00    +0.000 C 
ENDROOT
BRANCH   1  11
ATOM      7  CA  UNL     1       5.988   3.533  12.543  0.00  0.00    +0.000 A 
ATOM      8  C   UNL     1       7.195   4.105  12.189  0.00  0.00    +0.000 A 
ATOM      9  C   UNL     1       7.765   4.981  13.097  0.00  0.00    +0.000 A 
ATOM     10  C   UNL     1       7.106   5.247  14.298  0.00  0.00    +0.000 A 
ATOM     11  C   UNL     1       5.889   4.632  14.597  0.00  0.00    +0.000 A 
ATOM     12  N   UNL     1       5.330   3.769  13.715  0.00  0.00    +0.000 NA
BRANCH   7  14
ATOM     13  O   UNL     1       4.227   2.806  11.067  0.00  0.00    +0.000 OA
ATOM     14  C   UNL     1       5.297   2.595  11.607  0.00  0.00    +0.000 C 
BRANCH  14  15
ATOM     15  OXT UNL     1       6.030   1.465  11.449  0.00  0.00    +0.000 OA
ATOM     16  HXT UNL     1       6.985   1.711  11.511  0.00  0.00    +0.000 HD
ENDBRANCH  14  15
ENDBRANCH   7  14
ENDBRANCH   1  11
BRANCH   4  17
ATOM     17  O   UNL     1       3.441   5.691  18.705  0.00  0.00    +0.000 OA
BRANCH  17  18
ATOM     18  C   UNL     1       2.737   4.776  19.440  0.00  0.00    +0.000 A 
ATOM     19  C   UNL     1       2.843   4.595  20.822  0.00  0.00    +0.000 A 
ATOM     20  C   UNL     1       2.028   3.677  21.490  0.00  0.00    +0.000 A 
ATOM     21  C   UNL     1       1.119   2.909  20.772  0.00  0.00    +0.000 A 
ATOM     22  C   UNL     1       1.024   3.077  19.396  0.00  0.00    +0.000 A 
ATOM     23  F   UNL     1       0.158   2.326  18.704  0.00  0.00    +0.000 F 
ATOM     24  C   UNL     1       1.812   4.008  18.727  0.00  0.00    +0.000 A 
ENDBRANCH  17  18
ENDBRANCH   4  17
TORSDOF 5
ENDMDL
MODEL 4
REMARK VINA RESULT:      -8.1      2.991      7.610
REMARK  Name = 
REMARK  5 active torsions:
REMARK  status: ('A' for Active; 'I' for Inactive)
REMARK    1  A    between atoms: C_2  and  OXT_3
REMARK    2  A    between atoms: C_2  and  CA_4
REMARK    3  A    between atoms: C_8  and  N_9
REMARK    4  A    between atoms: C_12  and  O_13
REMARK    5  A    between atoms: O_13  and  C_14
REMARK                            x       y       z     vdW  Elec       q    Type
REMARK                         _______ _______ _______ _____ _____    ______ ____
ROOT
ATOM      1  N   UNL     1       4.667   5.165  18.101  0.00  0.00    +0.000 N 
ATOM      2  C   UNL     1       6.013   4.822  18.541  0.00  0.00    +0.000 C 
ATOM      3  C   UNL     1       6.977   5.872  18.015  0.00  0.00    +0.000 C 
ATOM      4  C   UNL     1       6.908   5.975  16.485  0.00  0.00    +0.000 C 
ATOM      5  C   UNL     1       5.456   6.241  16.055  0.00  0.00    +0.000 C 
ATOM      6  C   UNL     1       4.470   5.233  16.655  0.00  0.00    +0.000 C 
ENDROOT
BRANCH   1  11
ATOM      7  CA  UNL     1       2.353   4.288  20.691  0.00  0.00    +0.000 A 
ATOM      8  C   UNL     1       1.650   5.447  20.958  0.00  0.00    +0.000 A 
ATOM      9  C   UNL     1       1.980   6.567  20.217  0.00  0.00    +0.000 A 
ATOM     10  C   UNL     1       2.992   6.482  19.259  0.00  0.00    +0.000 A 
ATOM     11  C   UNL     1       3.663   5.278  19.035  0.00  0.00    +0.000 A 
ATOM     12  N   UNL     1       3.338   4.176  19.753  0.00  0.00    +0.000 NA
BRANCH   7  14
ATOM     13  O   UNL     1       2.908   2.369  22.040  0.00  0.00    +0.000 OA
ATOM     14  C   UNL     1       2.071   3.041  21.464  0.00  0.00    +0.000 C 
BRANCH  14  15
ATOM     15  OXT UNL     1       0.746   2.754  21.427  0.00  0.00    +0.000 OA
ATOM     16  HXT UNL     1       0.621   1.974  20.835  0.00  0.00    +0.000 HD
ENDBRANCH  14  15
ENDBRANCH   7  14
ENDBRANCH   1  11
BRANCH   4  17
ATOM     17  O   UNL     1       7.339   4.764  15.839  0.00  0.00    +0.000 OA
BRANCH  17  18
ATOM     18  C   UNL     1       7.243   4.698  14.475  0.00  0.00    +0.000 A 
ATOM     19  C   UNL     1       7.959   5.490  13.575  0.00  0.00    +0.000 A 
ATOM     20  C   UNL     1       7.838   5.298  12.196  0.00  0.00    +0.000 A 
ATOM     21  C   UNL     1       6.972   4.326  11.707  0.00  0.00    +0.000 A 
ATOM     22  C   UNL     1       6.247   3.549  12.602  0.00  0.00    +0.000 A 
ATOM     23  F   UNL     1       5.403   2.623  12.128  0.00  0.00    +0.000 F 
ATOM     24  C   UNL     1       6.383   3.715  13.976  0.00  0.00    +0.000 A 
ENDBRANCH  17  18
ENDBRANCH   4  17
TORSDOF 5
ENDMDL
MODEL 5
REMARK VINA RESULT:      -8.0      1.317      1.614
REMARK  Name = 
REMARK  5 active torsions:
REMARK  status: ('A' for Active; 'I' for Inactive)
REMARK    1  A    between atoms: C_2  and  OXT_3
REMARK    2  A    between atoms: C_2  and  CA_4
REMARK    3  A    between atoms: C_8  and  N_9
REMARK    4  A    between atoms: C_12  and  O_13
REMARK    5  A    between atoms: O_13  and  C_14
REMARK                            x       y       z     vdW  Elec       q    Type
REMARK                         _______ _______ _______ _____ _____    ______ ____
ROOT
ATOM      1  N   UNL     1       5.237   4.965  15.669  0.00  0.00    +0.000 N 
ATOM      2  C   UNL     1       5.100   6.354  16.091  0.00  0.00    +0.000 C 
ATOM      3  C   UNL     1       5.617   6.482  17.514  0.00  0.00    +0.000 C 
ATOM      4  C   UNL     1       4.866   5.540  18.466  0.00  0.00    +0.000 C 
ATOM      5  C   UNL     1       4.951   4.100  17.936  0.00  0.00    +0.000 C 
ATOM      6  C   UNL     1       4.511   3.984  16.472  0.00  0.00    +0.000 C 
ENDROOT
BRANCH   1  11
ATOM      7  CA  UNL     1       6.023   3.511  12.492  0.00  0.00    +0.000 A 
ATOM      8  C   UNL     1       7.229   4.075  12.122  0.00  0.00    +0.000 A 
ATOM      9  C   UNL     1       7.794   4.983  13.000  0.00  0.00    +0.000 A 
ATOM     10  C   UNL     1       7.130   5.289  14.190  0.00  0.00    +0.000 A 
ATOM     11  C   UNL     1       5.914   4.680  14.507  0.00  0.00    +0.000 A 
ATOM     12  N   UNL     1       5.361   3.785  13.654  0.00  0.00    +0.000 NA
BRANCH   7  14
ATOM     13  O   UNL     1       4.258   2.716  11.057  0.00  0.00    +0.000 OA
ATOM     14  C   UNL     1       5.338   2.538  11.588  0.00  0.00    +0.000 C 
BRANCH  14  15
ATOM     15  OXT UNL     1       6.090   1.417  11.448  0.00  0.00    +0.000 OA
ATOM     16  HXT UNL     1       6.034   1.131  10.505  0.00  0.00    +0.000 HD
ENDBRANCH  14  15
ENDBRANCH   7  14
ENDBRANCH   1  11
BRANCH   4  17
ATOM     17  O   UNL     1       3.473   5.881  18.580  0.00  0.00    +0.000 OA
BRANCH  17  18
ATOM     18  C   UNL     1       2.633   4.959  19.144  0.00  0.00    +0.000 A 
ATOM     19  C   UNL     1       1.634   4.254  18.466  0.00  0.00    +0.000 A 
ATOM     20  C   UNL     1       0.872   3.283  19.121  0.00  0.00    +0.000 A 
ATOM     21  C   UNL     1       1.086   3.030  20.471  0.00  0.00    +0.000 A 
ATOM     22  C   UNL     1       2.068   3.742  21.149  0.00  0.00    +0.000 A 
ATOM     23  F   UNL     1       2.263   3.506  22.453  0.00  0.00    +0.000 F 
ATOM     24  C   UNL     1       2.850   4.691  20.498  0.00  0.00    +0.000 A 
ENDBRANCH  17  18
ENDBRANCH   4  17
TORSDOF 5
ENDMDL
MODEL 6
REMARK VINA RESULT:      -7.6      3.415      7.763
REMARK  Name = 
REMARK  5 active torsions:
REMARK  status: ('A' for Active; 'I' for Inactive)
REMARK    1  A    between atoms: C_2  and  OXT_3
REMARK    2  A    between atoms: C_2  and  CA_4
REMARK    3  A    between atoms: C_8  and  N_9
REMARK    4  A    between atoms: C_12  and  O_13
REMARK    5  A    between atoms: O_13  and  C_14
REMARK                            x       y       z     vdW  Elec       q    Type
REMARK                         _______ _______ _______ _____ _____    ______ ____
ROOT
ATOM      1  N   UNL     1       4.572   5.323  18.171  0.00  0.00    +0.000 N 
ATOM      2  C   UNL     1       5.900   4.986  18.671  0.00  0.00    +0.000 C 
ATOM      3  C   UNL     1       6.896   5.987  18.111  0.00  0.00    +0.000 C 
ATOM      4  C   UNL     1       6.872   5.999  16.576  0.00  0.00    +0.000 C 
ATOM      5  C   UNL     1       5.438   6.261  16.088  0.00  0.00    +0.000 C 
ATOM      6  C   UNL     1       4.418   5.306  16.719  0.00  0.00    +0.000 C 
ENDROOT
BRANCH   1  11
ATOM      7  CA  UNL     1       2.024   4.594  20.580  0.00  0.00    +0.000 A 
ATOM      8  C   UNL     1       1.473   5.817  20.909  0.00  0.00    +0.000 A 
ATOM      9  C   UNL     1       1.994   6.931  20.275  0.00  0.00    +0.000 A 
ATOM     10  C   UNL     1       3.035   6.774  19.358  0.00  0.00    +0.000 A 
ATOM     11  C   UNL     1       3.545   5.507  19.067  0.00  0.00    +0.000 A 
ATOM     12  N   UNL     1       3.033   4.413  19.679  0.00  0.00    +0.000 NA
BRANCH   7  14
ATOM     13  O   UNL     1       1.988   2.864  22.258  0.00  0.00    +0.000 OA
ATOM     14  C   UNL     1       1.531   3.345  21.238  0.00  0.00    +0.000 C 
BRANCH  14  15
ATOM     15  OXT UNL     1       0.504   2.814  20.528  0.00  0.00    +0.000 OA
ATOM     16  HXT UNL     1       0.169   2.028  21.023  0.00  0.00    +0.000 HD
ENDBRANCH  14  15
ENDBRANCH   7  14
ENDBRANCH   1  11
BRANCH   4  17
ATOM     17  O   UNL     1       7.300   4.745  16.017  0.00  0.00    +0.000 OA
BRANCH  17  18
ATOM     18  C   UNL     1       7.141   4.558  14.670  0.00  0.00    +0.000 A 
ATOM     19  C   UNL     1       6.343   3.574  14.080  0.00  0.00    +0.000 A 
ATOM     20  C   UNL     1       6.195   3.509  12.691  0.00  0.00    +0.000 A 
ATOM     21  C   UNL     1       6.870   4.414  11.881  0.00  0.00    +0.000 A 
ATOM     22  C   UNL     1       7.677   5.382  12.466  0.00  0.00    +0.000 A 
ATOM     23  F   UNL     1       8.338   6.243  11.682  0.00  0.00    +0.000 F 
ATOM     24  C   UNL     1       7.808   5.471  13.849  0.00  0.00    +0.000 A 
ENDBRANCH  17  18
ENDBRANCH   4  17
TORSDOF 5
ENDMDL
MODEL 7
REMARK VINA RESULT:      -7.5      2.998      7.813
REMARK  Name = 
REMARK  5 active torsions:
REMARK  status: ('A' for Active; 'I' for Inactive)
REMARK    1  A    between atoms: C_2  and  OXT_3
REMARK    2  A    between atoms: C_2  and  CA_4
REMARK    3  A    between atoms: C_8  and  N_9
REMARK    4  A    between atoms: C_12  and  O_13
REMARK    5  A    between atoms: O_13  and  C_14
REMARK                            x       y       z     vdW  Elec       q    Type
REMARK                         _______ _______ _______ _____ _____    ______ ____
ROOT
ATOM      1  N   UNL     1       4.603   5.124  18.157  0.00  0.00    +0.000 N 
ATOM      2  C   UNL     1       5.934   4.713  18.587  0.00  0.00    +0.000 C 
ATOM      3  C   UNL     1       6.942   5.732  18.081  0.00  0.00    +0.000 C 
ATOM      4  C   UNL     1       6.875   5.871  16.553  0.00  0.00    +0.000 C 
ATOM      5  C   UNL     1       5.436   6.208  16.132  0.00  0.00    +0.000 C 
ATOM      6  C   UNL     1       4.408   5.231  16.713  0.00  0.00    +0.000 C 
ENDROOT
BRANCH   1  11
ATOM      7  CA  UNL     1       2.137   6.642  20.265  0.00  0.00    +0.000 A 
ATOM      8  C   UNL     1       1.571   5.599  20.972  0.00  0.00    +0.000 A 
ATOM      9  C   UNL     1       2.059   4.330  20.717  0.00  0.00    +0.000 A 
ATOM     10  C   UNL     1       3.073   4.162  19.773  0.00  0.00    +0.000 A 
ATOM     11  C   UNL     1       3.607   5.260  19.094  0.00  0.00    +0.000 A 
ATOM     12  N   UNL     1       3.137   6.505  19.346  0.00  0.00    +0.000 NA
BRANCH   7  14
ATOM     13  O   UNL     1       1.391   8.828  19.575  0.00  0.00    +0.000 OA
ATOM     14  C   UNL     1       1.649   8.040  20.466  0.00  0.00    +0.000 C 
BRANCH  14  15
ATOM     15  OXT UNL     1       1.543   8.315  21.791  0.00  0.00    +0.000 OA
ATOM     16  HXT UNL     1       1.499   7.456  22.276  0.00  0.00    +0.000 HD
ENDBRANCH  14  15
ENDBRANCH   7  14
ENDBRANCH   1  11
BRANCH   4  17
ATOM     17  O   UNL     1       7.253   4.656  15.881  0.00  0.00    +0.000 OA
BRANCH  17  18
ATOM     18  C   UNL     1       7.189   4.636  14.514  0.00  0.00    +0.000 A 
ATOM     19  C   UNL     1       7.931   5.454  13.658  0.00  0.00    +0.000 A 
ATOM     20  C   UNL     1       7.841   5.308  12.271  0.00  0.00    +0.000 A 
ATOM     21  C   UNL     1       6.982   4.359  11.729  0.00  0.00    +0.000 A 
ATOM     22  C   UNL     1       6.232   3.556  12.580  0.00  0.00    +0.000 A 
ATOM     23  F   UNL     1       5.395   2.652  12.056  0.00  0.00    +0.000 F 
ATOM     24  C   UNL     1       6.336   3.676  13.962  0.00  0.00    +0.000 A 
ENDBRANCH  17  18
ENDBRANCH   4  17
TORSDOF 5
ENDMDL
MODEL 8
REMARK VINA RESULT:      -7.4      1.207      1.382
REMARK  Name = 
REMARK  5 active torsions:
REMARK  status: ('A' for Active; 'I' for Inactive)
REMARK    1  A    between atoms: C_2  and  OXT_3
REMARK    2  A    between atoms: C_2  and  CA_4
REMARK    3  A    between atoms: C_8  and  N_9
REMARK    4  A    between atoms: C_12  and  O_13
REMARK    5  A    between atoms: O_13  and  C_14
REMARK                            x       y       z     vdW  Elec       q    Type
REMARK                         _______ _______ _______ _____ _____    ______ ____
ROOT
ATOM      1  N   UNL     1       5.616   5.005  15.761  0.00  0.00    +0.000 N 
ATOM      2  C   UNL     1       4.872   3.964  16.460  0.00  0.00    +0.000 C 
ATOM      3  C   UNL     1       3.500   4.507  16.821  0.00  0.00    +0.000 C 
ATOM      4  C   UNL     1       3.612   5.774  17.681  0.00  0.00    +0.000 C 
ATOM      5  C   UNL     1       4.484   6.812  16.955  0.00  0.00    +0.000 C 
ATOM      6  C   UNL     1       5.835   6.239  16.512  0.00  0.00    +0.000 C 
ENDROOT
BRANCH   1  11
ATOM      7  CA  UNL     1       6.050   3.569  12.509  0.00  0.00    +0.000 A 
ATOM      8  C   UNL     1       7.200   4.147  12.007  0.00  0.00    +0.000 A 
ATOM      9  C   UNL     1       7.851   5.058  12.819  0.00  0.00    +0.000 A 
ATOM     10  C   UNL     1       7.325   5.353  14.078  0.00  0.00    +0.000 A 
ATOM     11  C   UNL     1       6.159   4.731  14.528  0.00  0.00    +0.000 A 
ATOM     12  N   UNL     1       5.521   3.833  13.740  0.00  0.00    +0.000 NA
BRANCH   7  14
ATOM     13  O   UNL     1       4.189   2.807  11.179  0.00  0.00    +0.000 OA
ATOM     14  C   UNL     1       5.276   2.592  11.684  0.00  0.00    +0.000 C 
BRANCH  14  15
ATOM     15  OXT UNL     1       5.953   1.422  11.584  0.00  0.00    +0.000 OA
ATOM     16  HXT UNL     1       6.903   1.603  11.783  0.00  0.00    +0.000 HD
ENDBRANCH  14  15
ENDBRANCH   7  14
ENDBRANCH   1  11
BRANCH   4  17
ATOM     17  O   UNL     1       4.221   5.512  18.958  0.00  0.00    +0.000 OA
BRANCH  17  18
ATOM     18  C   UNL     1       3.584   4.641  19.802  0.00  0.00    +0.000 A 
ATOM     19  C   UNL     1       2.295   4.809  20.313  0.00  0.00    +0.000 A 
ATOM     20  C   UNL     1       1.708   3.827  21.116  0.00  0.00    +0.000 A 
ATOM     21  C   UNL     1       2.424   2.680  21.439  0.00  0.00    +0.000 A 
ATOM     22  C   UNL     1       3.712   2.520  20.944  0.00  0.00    +0.000 A 
ATOM     23  F   UNL     1       4.405   1.420  21.268  0.00  0.00    +0.000 F 
ATOM     24  C   UNL     1       4.293   3.480  20.121  0.00  0.00    +0.000 A 
ENDBRANCH  17  18
ENDBRANCH   4  17
TORSDOF 5
ENDMDL
MODEL 9
REMARK VINA RESULT:      -7.4      0.924      1.395
REMARK  Name = 
REMARK  5 active torsions:
REMARK  status: ('A' for Active; 'I' for Inactive)
REMARK    1  A    between atoms: C_2  and  OXT_3
REMARK    2  A    between atoms: C_2  and  CA_4
REMARK    3  A    between atoms: C_8  and  N_9
REMARK    4  A    between atoms: C_12  and  O_13
REMARK    5  A    between atoms: O_13  and  C_14
REMARK                            x       y       z     vdW  Elec       q    Type
REMARK                         _______ _______ _______ _____ _____    ______ ____
ROOT
ATOM      1  N   UNL     1       5.957   4.801  15.766  0.00  0.00    +0.000 N 
ATOM      2  C   UNL     1       6.775   5.581  16.688  0.00  0.00    +0.000 C 
ATOM      3  C   UNL     1       7.032   4.746  17.931  0.00  0.00    +0.000 C 
ATOM      4  C   UNL     1       5.716   4.313  18.593  0.00  0.00    +0.000 C 
ATOM      5  C   UNL     1       4.841   3.580  17.564  0.00  0.00    +0.000 C 
ATOM      6  C   UNL     1       4.652   4.385  16.273  0.00  0.00    +0.000 C 
ENDROOT
BRANCH   1  11
ATOM      7  CA  UNL     1       6.150   3.545  12.417  0.00  0.00    +0.000 A 
ATOM      8  C   UNL     1       7.212   4.214  11.838  0.00  0.00    +0.000 A 
ATOM      9  C   UNL     1       7.888   5.125  12.631  0.00  0.00    +0.000 A 
ATOM     10  C   UNL     1       7.471   5.329  13.947  0.00  0.00    +0.000 A 
ATOM     11  C   UNL     1       6.391   4.618  14.474  0.00  0.00    +0.000 A 
ATOM     12  N   UNL     1       5.731   3.719  13.704  0.00  0.00    +0.000 NA
BRANCH   7  14
ATOM     13  O   UNL     1       4.249   2.767  11.157  0.00  0.00    +0.000 OA
ATOM     14  C   UNL     1       5.355   2.562  11.621  0.00  0.00    +0.000 C 
BRANCH  14  15
ATOM     15  OXT UNL     1       6.039   1.397  11.493  0.00  0.00    +0.000 OA
ATOM     16  HXT UNL     1       6.829   1.444  12.084  0.00  0.00    +0.000 HD
ENDBRANCH  14  15
ENDBRANCH   7  14
ENDBRANCH   1  11
BRANCH   4  17
ATOM     17  O   UNL     1       4.963   5.434  19.087  0.00  0.00    +0.000 OA
BRANCH  17  18
ATOM     18  C   UNL     1       3.754   5.181  19.677  0.00  0.00    +0.000 A 
ATOM     19  C   UNL     1       2.661   6.052  19.686  0.00  0.00    +0.000 A 
ATOM     20  C   UNL     1       1.445   5.671  20.260  0.00  0.00    +0.000 A 
ATOM     21  C   UNL     1       1.323   4.422  20.856  0.00  0.00    +0.000 A 
ATOM     22  C   UNL     1       2.414   3.562  20.862  0.00  0.00    +0.000 A 
ATOM     23  F   UNL     1       2.298   2.364  21.450  0.00  0.00    +0.000 F 
ATOM     24  C   UNL     1       3.620   3.922  20.269  0.00  0.00    +0.000 A 
ENDBRANCH  17  18
ENDBRANCH   4  17
TORSDOF 5
ENDMDL
