MODEL 1
REMARK VINA RESULT:      -6.9      0.000      0.000
REMARK  Name = 
REMARK  9 active torsions:
REMARK  status: ('A' for Active; 'I' for Inactive)
REMARK    1  A    between atoms: C_1  and  C_2
REMARK    2  A    between atoms: C_2  and  C_3
REMARK    3  A    between atoms: C_3  and  C_4
REMARK    4  A    between atoms: C_5  and  C_6
REMARK    5  A    between atoms: C_7  and  C_8
REMARK    6  A    between atoms: C_8  and  C_9
REMARK    7  A    between atoms: C_9  and  C_10
REMARK    8  A    between atoms: C_12  and  O_13
REMARK    9  A    between atoms: C_15  and  O_16
REMARK                            x       y       z     vdW  Elec       q    Type
REMARK                         _______ _______ _______ _____ _____    ______ ____
ROOT
ATOM      1  C   UNL     1       3.168   4.571  18.114  0.00  0.00    +0.000 A 
ATOM      2  C   UNL     1       1.964   3.875  17.929  0.00  0.00    +0.000 A 
ATOM      3  C   UNL     1       1.835   2.566  18.407  0.00  0.00    +0.000 A 
ATOM      4  C   UNL     1       2.882   1.937  19.072  0.00  0.00    +0.000 A 
ATOM      5  C   UNL     1       4.068   2.632  19.261  0.00  0.00    +0.000 A 
ATOM      6  C   UNL     1       4.219   3.937  18.792  0.00  0.00    +0.000 A 
ENDROOT
BRANCH   3   7
ATOM      7  O   UNL     1       0.684   1.856  18.231  0.00  0.00    +0.000 OA
ATOM      8  H   UNL     1       0.250   2.161  17.418  0.00  0.00    +0.000 HD
ENDBRANCH   3   7
BRANCH   5   9
ATOM      9  O   UNL     1       5.133   2.074  19.907  0.00  0.00    +0.000 OA
ATOM     10  H   UNL     1       5.415   2.679  20.613  0.00  0.00    +0.000 HD
ENDBRANCH   5   9
BRANCH   1  11
ATOM     11  C   UNL     1       3.332   5.986  17.601  0.00  0.00    +0.000 C 
BRANCH  11  12
ATOM     12  C   UNL     1       4.741   6.247  17.058  0.00  0.00    +0.000 C 
BRANCH  12  14
ATOM     13  C   UNL     1       6.378   5.028  15.634  0.00  0.00    +0.000 C 
ATOM     14  C   UNL     1       5.103   5.340  15.914  0.00  0.00    +0.000 C 
BRANCH  13  16
ATOM     15  C   UNL     1       6.099   4.200  13.354  0.00  0.00    +0.000 C 
ATOM     16  C   UNL     1       6.754   4.193  14.525  0.00  0.00    +0.000 C 
BRANCH  15  17
ATOM     17  C   UNL     1       6.504   3.328  12.204  0.00  0.00    +0.000 C 
BRANCH  17  19
ATOM     18  C   UNL     1       4.113   3.387  11.434  0.00  0.00    +0.000 C 
ATOM     19  C   UNL     1       5.327   2.505  11.684  0.00  0.00    +0.000 C 
ENDBRANCH  17  19
ENDBRANCH  15  17
ENDBRANCH  13  16
ENDBRANCH  12  14
ENDBRANCH  11  12
ENDBRANCH   1  11
TORSDOF 8
ENDMDL
MODEL 2
REMARK VINA RESULT:      -6.9      1.570      2.327
REMARK  Name = 
REMARK  9 active torsions:
REMARK  status: ('A' for Active; 'I' for Inactive)
REMARK    1  A    between atoms: C_1  and  C_2
REMARK    2  A    between atoms: C_2  and  C_3
REMARK    3  A    between atoms: C_3  and  C_4
REMARK    4  A    between atoms: C_5  and  C_6
REMARK    5  A    between atoms: C_7  and  C_8
REMARK    6  A    between atoms: C_8  and  C_9
REMARK    7  A    between atoms: C_9  and  C_10
REMARK    8  A    between atoms: C_12  and  O_13
REMARK    9  A    between atoms: C_15  and  O_16
REMARK                            x       y       z     vdW  Elec       q    Type
REMARK                         _______ _______ _______ _____ _____    ______ ____
ROOT
ATOM      1  C   UNL     1       2.802   4.546  18.966  0.00  0.00    +0.000 A 
ATOM      2  C   UNL     1       2.959   4.447  20.356  0.00  0.00    +0.000 A 
ATOM      3  C   UNL     1       2.218   3.503  21.076  0.00  0.00    +0.000 A 
ATOM      4  C   UNL     1       1.326   2.650  20.435  0.00  0.00    +0.000 A 
ATOM      5  C   UNL     1       1.181   2.744  19.059  0.00  0.00    +0.000 A 
ATOM      6  C   UNL     1       1.909   3.678  18.322  0.00  0.00    +0.000 A 
ENDROOT
BRANCH   3   7
ATOM      7  O   UNL     1       2.336   3.390  22.430  0.00  0.00    +0.000 OA
ATOM      8  H   UNL     1       2.799   4.173  22.769  0.00  0.00    +0.000 HD
ENDBRANCH   3   7
BRANCH   5   9
ATOM      9  O   UNL     1       0.325   1.936  18.369  0.00  0.00    +0.000 OA
ATOM     10  H   UNL     1       0.608   1.911  17.439  0.00  0.00    +0.000 HD
ENDBRANCH   5   9
BRANCH   1  11
ATOM     11  C   UNL     1       3.590   5.563  18.168  0.00  0.00    +0.000 C 
BRANCH  11  12
ATOM     12  C   UNL     1       5.101   5.427  18.383  0.00  0.00    +0.000 C 
BRANCH  12  14
ATOM     13  C   UNL     1       5.388   4.228  16.221  0.00  0.00    +0.000 C 
ATOM     14  C   UNL     1       5.846   5.120  17.114  0.00  0.00    +0.000 C 
BRANCH  13  16
ATOM     15  C   UNL     1       5.533   3.933  13.801  0.00  0.00    +0.000 C 
ATOM     16  C   UNL     1       6.098   3.889  15.017  0.00  0.00    +0.000 C 
BRANCH  15  17
ATOM     17  C   UNL     1       6.286   3.582  12.554  0.00  0.00    +0.000 C 
BRANCH  17  19
ATOM     18  C   UNL     1       4.145   3.165  11.307  0.00  0.00    +0.000 C 
ATOM     19  C   UNL     1       5.505   2.597  11.686  0.00  0.00    +0.000 C 
ENDBRANCH  17  19
ENDBRANCH  15  17
ENDBRANCH  13  16
ENDBRANCH  12  14
ENDBRANCH  11  12
ENDBRANCH   1  11
TORSDOF 8
ENDMDL
MODEL 3
REMARK VINA RESULT:      -6.8      1.140      1.180
REMARK  Name = 
REMARK  9 active torsions:
REMARK  status: ('A' for Active; 'I' for Inactive)
REMARK    1  A    between atoms: C_1  and  C_2
REMARK    2  A    between atoms: C_2  and  C_3
REMARK    3  A    between atoms: C_3  and  C_4
REMARK    4  A    between atoms: C_5  and  C_6
REMARK    5  A    between atoms: C_7  and  C_8
REMARK    6  A    between atoms: C_8  and  C_9
REMARK    7  A    between atoms: C_9  and  C_10
REMARK    8  A    between atoms: C_12  and  O_13
REMARK    9  A    between atoms: C_15  and  O_16
REMARK                            x       y       z     vdW  Elec       q    Type
REMARK                         _______ _______ _______ _____ _____    ______ ____
ROOT
ATOM      1  C   UNL     1       3.717   4.893  18.684  0.00  0.00    +0.000 A 
ATOM      2  C   UNL     1       2.399   4.829  19.163  0.00  0.00    +0.000 A 
ATOM      3  C   UNL     1       1.991   3.738  19.938  0.00  0.00    +0.000 A 
ATOM      4  C   UNL     1       2.872   2.709  20.251  0.00  0.00    +0.000 A 
ATOM      5  C   UNL     1       4.177   2.780  19.783  0.00  0.00    +0.000 A 
ATOM      6  C   UNL     1       4.605   3.858  19.008  0.00  0.00    +0.000 A 
ENDROOT
BRANCH   3   7
ATOM      7  O   UNL     1       0.714   3.639  20.407  0.00  0.00    +0.000 OA
ATOM      8  H   UNL     1       0.112   3.529  19.654  0.00  0.00    +0.000 HD
ENDBRANCH   3   7
BRANCH   5   9
ATOM      9  O   UNL     1       5.092   1.805  20.056  0.00  0.00    +0.000 OA
ATOM     10  H   UNL     1       5.631   2.092  20.812  0.00  0.00    +0.000 HD
ENDBRANCH   5   9
BRANCH   1  11
ATOM     11  C   UNL     1       4.179   6.061  17.839  0.00  0.00    +0.000 C 
BRANCH  11  12
ATOM     12  C   UNL     1       5.703   6.215  17.846  0.00  0.00    +0.000 C 
BRANCH  12  14
ATOM     13  C   UNL     1       5.676   5.116  15.613  0.00  0.00    +0.000 C 
ATOM     14  C   UNL     1       6.333   5.839  16.534  0.00  0.00    +0.000 C 
BRANCH  13  16
ATOM     15  C   UNL     1       5.709   3.800  13.556  0.00  0.00    +0.000 C 
ATOM     16  C   UNL     1       6.267   4.713  14.366  0.00  0.00    +0.000 C 
BRANCH  15  17
ATOM     17  C   UNL     1       6.333   3.391  12.257  0.00  0.00    +0.000 C 
BRANCH  17  19
ATOM     18  C   UNL     1       4.059   3.145  11.218  0.00  0.00    +0.000 C 
ATOM     19  C   UNL     1       5.407   2.480  11.453  0.00  0.00    +0.000 C 
ENDBRANCH  17  19
ENDBRANCH  15  17
ENDBRANCH  13  16
ENDBRANCH  12  14
ENDBRANCH  11  12
ENDBRANCH   1  11
TORSDOF 8
ENDMDL
MODEL 4
REMARK VINA RESULT:      -6.7      0.988      2.384
REMARK  Name = 
REMARK  9 active torsions:
REMARK  status: ('A' for Active; 'I' for Inactive)
REMARK    1  A    between atoms: C_1  and  C_2
REMARK    2  A    between atoms: C_2  and  C_3
REMARK    3  A    between atoms: C_3  and  C_4
REMARK    4  A    between atoms: C_5  and  C_6
REMARK    5  A    between atoms: C_7  and  C_8
REMARK    6  A    between atoms: C_8  and  C_9
REMARK    7  A    between atoms: C_9  and  C_10
REMARK    8  A    between atoms: C_12  and  O_13
REMARK    9  A    between atoms: C_15  and  O_16
REMARK                            x       y       z     vdW  Elec       q    Type
REMARK                         _______ _______ _______ _____ _____    ______ ____
ROOT
ATOM      1  C   UNL     1       4.476   4.900  18.114  0.00  0.00    +0.000 A 
ATOM      2  C   UNL     1       5.106   3.933  18.911  0.00  0.00    +0.000 A 
ATOM      3  C   UNL     1       4.399   2.795  19.315  0.00  0.00    +0.000 A 
ATOM      4  C   UNL     1       3.076   2.597  18.934  0.00  0.00    +0.000 A 
ATOM      5  C   UNL     1       2.460   3.552  18.138  0.00  0.00    +0.000 A 
ATOM      6  C   UNL     1       3.145   4.695  17.725  0.00  0.00    +0.000 A 
ENDROOT
BRANCH   3   7
ATOM      7  O   UNL     1       4.977   1.842  20.102  0.00  0.00    +0.000 OA
ATOM      8  H   UNL     1       5.824   2.183  20.433  0.00  0.00    +0.000 HD
ENDBRANCH   3   7
BRANCH   5   9
ATOM      9  O   UNL     1       1.165   3.418  17.727  0.00  0.00    +0.000 OA
ATOM     10  H   UNL     1       0.815   4.302  17.524  0.00  0.00    +0.000 HD
ENDBRANCH   5   9
BRANCH   1  11
ATOM     11  C   UNL     1       5.219   6.143  17.670  0.00  0.00    +0.000 C 
BRANCH  11  12
ATOM     12  C   UNL     1       6.303   5.831  16.633  0.00  0.00    +0.000 C 
BRANCH  12  14
ATOM     13  C   UNL     1       5.727   4.405  14.676  0.00  0.00    +0.000 C 
ATOM     14  C   UNL     1       5.745   5.617  15.253  0.00  0.00    +0.000 C 
BRANCH  13  16
ATOM     15  C   UNL     1       5.720   3.221  12.539  0.00  0.00    +0.000 C 
ATOM     16  C   UNL     1       5.234   4.179  13.344  0.00  0.00    +0.000 C 
BRANCH  15  17
ATOM     17  C   UNL     1       5.194   2.993  11.155  0.00  0.00    +0.000 C 
BRANCH  17  19
ATOM     18  C   UNL     1       3.187   3.835   9.900  0.00  0.00    +0.000 C 
ATOM     19  C   UNL     1       3.668   3.060  11.118  0.00  0.00    +0.000 C 
ENDBRANCH  17  19
ENDBRANCH  15  17
ENDBRANCH  13  16
ENDBRANCH  12  14
ENDBRANCH  11  12
ENDBRANCH   1  11
TORSDOF 8
ENDMDL
MODEL 5
REMARK VINA RESULT:      -6.5      1.690      2.468
REMARK  Name = 
REMARK  9 active torsions:
REMARK  status: ('A' for Active; 'I' for Inactive)
REMARK    1  A    between atoms: C_1  and  C_2
REMARK    2  A    between atoms: C_2  and  C_3
REMARK    3  A    between atoms: C_3  and  C_4
REMARK    4  A    between atoms: C_5  and  C_6
REMARK    5  A    between atoms: C_7  and  C_8
REMARK    6  A    between atoms: C_8  and  C_9
REMARK    7  A    between atoms: C_9  and  C_10
REMARK    8  A    between atoms: C_12  and  O_13
REMARK    9  A    between atoms: C_15  and  O_16
REMARK                            x       y       z     vdW  Elec       q    Type
REMARK                         _______ _______ _______ _____ _____    ______ ____
ROOT
ATOM      1  C   UNL     1       4.365   5.069  17.680  0.00  0.00    +0.000 A 
ATOM      2  C   UNL     1       3.896   5.664  18.861  0.00  0.00    +0.000 A 
ATOM      3  C   UNL     1       3.005   4.968  19.686  0.00  0.00    +0.000 A 
ATOM      4  C   UNL     1       2.575   3.686  19.360  0.00  0.00    +0.000 A 
ATOM      5  C   UNL     1       3.048   3.098  18.196  0.00  0.00    +0.000 A 
ATOM      6  C   UNL     1       3.937   3.774  17.359  0.00  0.00    +0.000 A 
ENDROOT
BRANCH   3   7
ATOM      7  O   UNL     1       2.519   5.523  20.833  0.00  0.00    +0.000 OA
ATOM      8  H   UNL     1       3.077   6.280  21.074  0.00  0.00    +0.000 HD
ENDBRANCH   3   7
BRANCH   5   9
ATOM      9  O   UNL     1       2.669   1.842  17.820  0.00  0.00    +0.000 OA
ATOM     10  H   UNL     1       3.446   1.260  17.865  0.00  0.00    +0.000 HD
ENDBRANCH   5   9
BRANCH   1  11
ATOM     11  C   UNL     1       5.325   5.805  16.770  0.00  0.00    +0.000 C 
BRANCH  11  12
ATOM     12  C   UNL     1       6.372   4.872  16.155  0.00  0.00    +0.000 C 
BRANCH  12  14
ATOM     13  C   UNL     1       6.702   4.176  13.788  0.00  0.00    +0.000 C 
ATOM     14  C   UNL     1       5.910   4.241  14.871  0.00  0.00    +0.000 C 
BRANCH  13  16
ATOM     15  C   UNL     1       4.980   3.463  12.210  0.00  0.00    +0.000 C 
ATOM     16  C   UNL     1       6.273   3.611  12.537  0.00  0.00    +0.000 C 
BRANCH  15  17
ATOM     17  C   UNL     1       4.545   2.877  10.901  0.00  0.00    +0.000 C 
BRANCH  17  19
ATOM     18  C   UNL     1       3.026   4.235   9.432  0.00  0.00    +0.000 C 
ATOM     19  C   UNL     1       3.096   3.238  10.579  0.00  0.00    +0.000 C 
ENDBRANCH  17  19
ENDBRANCH  15  17
ENDBRANCH  13  16
ENDBRANCH  12  14
ENDBRANCH  11  12
ENDBRANCH   1  11
TORSDOF 8
ENDMDL
MODEL 6
REMARK VINA RESULT:      -6.5      1.103      2.412
REMARK  Name = 
REMARK  9 active torsions:
REMARK  status: ('A' for Active; 'I' for Inactive)
REMARK    1  A    between atoms: C_1  and  C_2
REMARK    2  A    between atoms: C_2  and  C_3
REMARK    3  A    between atoms: C_3  and  C_4
REMARK    4  A    between atoms: C_5  and  C_6
REMARK    5  A    between atoms: C_7  and  C_8
REMARK    6  A    between atoms: C_8  and  C_9
REMARK    7  A    between atoms: C_9  and  C_10
REMARK    8  A    between atoms: C_12  and  O_13
REMARK    9  A    between atoms: C_15  and  O_16
REMARK                            x       y       z     vdW  Elec       q    Type
REMARK                         _______ _______ _______ _____ _____    ______ ____
ROOT
ATOM      1  C   UNL     1       4.557   5.123  18.272  0.00  0.00    +0.000 A 
ATOM      2  C   UNL     1       5.128   4.091  19.032  0.00  0.00    +0.000 A 
ATOM      3  C   UNL     1       4.403   2.918  19.271  0.00  0.00    +0.000 A 
ATOM      4  C   UNL     1       3.120   2.749  18.762  0.00  0.00    +0.000 A 
ATOM      5  C   UNL     1       2.563   3.768  18.003  0.00  0.00    +0.000 A 
ATOM      6  C   UNL     1       3.267   4.946  17.753  0.00  0.00    +0.000 A 
ENDROOT
BRANCH   3   7
ATOM      7  O   UNL     1       4.924   1.902  20.018  0.00  0.00    +0.000 OA
ATOM      8  H   UNL     1       4.906   2.161  20.953  0.00  0.00    +0.000 HD
ENDBRANCH   3   7
BRANCH   5   9
ATOM      9  O   UNL     1       1.310   3.665  17.472  0.00  0.00    +0.000 OA
ATOM     10  H   UNL     1       1.096   2.722  17.370  0.00  0.00    +0.000 HD
ENDBRANCH   5   9
BRANCH   1  11
ATOM     11  C   UNL     1       5.320   6.403  18.006  0.00  0.00    +0.000 C 
BRANCH  11  12
ATOM     12  C   UNL     1       6.814   6.151  17.778  0.00  0.00    +0.000 C 
BRANCH  12  14
ATOM     13  C   UNL     1       6.318   5.136  15.560  0.00  0.00    +0.000 C 
ATOM     14  C   UNL     1       7.143   5.851  16.343  0.00  0.00    +0.000 C 
BRANCH  13  16
ATOM     15  C   UNL     1       6.098   3.741  13.568  0.00  0.00    +0.000 C 
ATOM     16  C   UNL     1       6.625   4.804  14.196  0.00  0.00    +0.000 C 
BRANCH  15  17
ATOM     17  C   UNL     1       6.422   3.408  12.144  0.00  0.00    +0.000 C 
BRANCH  17  19
ATOM     18  C   UNL     1       6.338   1.144  11.059  0.00  0.00    +0.000 C 
ATOM     19  C   UNL     1       5.516   2.301  11.607  0.00  0.00    +0.000 C 
ENDBRANCH  17  19
ENDBRANCH  15  17
ENDBRANCH  13  16
ENDBRANCH  12  14
ENDBRANCH  11  12
ENDBRANCH   1  11
TORSDOF 8
ENDMDL
MODEL 7
REMARK VINA RESULT:      -6.4      3.265      5.519
REMARK  Name = 
REMARK  9 active torsions:
REMARK  status: ('A' for Active; 'I' for Inactive)
REMARK    1  A    between atoms: C_1  and  C_2
REMARK    2  A    between atoms: C_2  and  C_3
REMARK    3  A    between atoms: C_3  and  C_4
REMARK    4  A    between atoms: C_5  and  C_6
REMARK    5  A    between atoms: C_7  and  C_8
REMARK    6  A    between atoms: C_8  and  C_9
REMARK    7  A    between atoms: C_9  and  C_10
REMARK    8  A    between atoms: C_12  and  O_13
REMARK    9  A    between atoms: C_15  and  O_16
REMARK                            x       y       z     vdW  Elec       q    Type
REMARK                         _______ _______ _______ _____ _____    ______ ____
ROOT
ATOM      1  C   UNL     1       3.240   4.841  18.362  0.00  0.00    +0.000 A 
ATOM      2  C   UNL     1       4.307   4.042  18.802  0.00  0.00    +0.000 A 
ATOM      3  C   UNL     1       4.049   2.846  19.479  0.00  0.00    +0.000 A 
ATOM      4  C   UNL     1       2.746   2.425  19.724  0.00  0.00    +0.000 A 
ATOM      5  C   UNL     1       1.694   3.212  19.279  0.00  0.00    +0.000 A 
ATOM      6  C   UNL     1       1.928   4.409  18.602  0.00  0.00    +0.000 A 
ENDROOT
BRANCH   3   7
ATOM      7  O   UNL     1       5.063   2.054  19.933  0.00  0.00    +0.000 OA
ATOM      8  H   UNL     1       5.905   2.409  19.607  0.00  0.00    +0.000 HD
ENDBRANCH   3   7
BRANCH   5   9
ATOM      9  O   UNL     1       0.393   2.856  19.484  0.00  0.00    +0.000 OA
ATOM     10  H   UNL     1       0.378   2.026  19.990  0.00  0.00    +0.000 HD
ENDBRANCH   5   9
BRANCH   1  11
ATOM     11  C   UNL     1       3.496   6.142  17.632  0.00  0.00    +0.000 C 
BRANCH  11  12
ATOM     12  C   UNL     1       4.749   6.078  16.754  0.00  0.00    +0.000 C 
BRANCH  12  14
ATOM     13  C   UNL     1       7.045   6.610  17.554  0.00  0.00    +0.000 C 
ATOM     14  C   UNL     1       5.822   7.033  17.197  0.00  0.00    +0.000 C 
BRANCH  13  16
ATOM     15  C   UNL     1       7.929   8.831  18.051  0.00  0.00    +0.000 C 
ATOM     16  C   UNL     1       8.078   7.498  18.016  0.00  0.00    +0.000 C 
BRANCH  15  17
ATOM     17  C   UNL     1       9.011   9.746  18.539  0.00  0.00    +0.000 C 
BRANCH  17  19
ATOM     18  C   UNL     1      10.231  11.838  17.870  0.00  0.00    +0.000 C 
ATOM     19  C   UNL     1       8.879  11.143  17.935  0.00  0.00    +0.000 C 
ENDBRANCH  17  19
ENDBRANCH  15  17
ENDBRANCH  13  16
ENDBRANCH  12  14
ENDBRANCH  11  12
ENDBRANCH   1  11
TORSDOF 8
ENDMDL
MODEL 8
REMARK VINA RESULT:      -6.4      3.402      5.351
REMARK  Name = 
REMARK  9 active torsions:
REMARK  status: ('A' for Active; 'I' for Inactive)
REMARK    1  A    between atoms: C_1  and  C_2
REMARK    2  A    between atoms: C_2  and  C_3
REMARK    3  A    between atoms: C_3  and  C_4
REMARK    4  A    between atoms: C_5  and  C_6
REMARK    5  A    between atoms: C_7  and  C_8
REMARK    6  A    between atoms: C_8  and  C_9
REMARK    7  A    between atoms: C_9  and  C_10
REMARK    8  A    between atoms: C_12  and  O_13
REMARK    9  A    between atoms: C_15  and  O_16
REMARK                            x       y       z     vdW  Elec       q    Type
REMARK                         _______ _______ _______ _____ _____    ______ ____
ROOT
ATOM      1  C   UNL     1       3.329   4.780  18.278  0.00  0.00    +0.000 A 
ATOM      2  C   UNL     1       2.012   4.507  18.677  0.00  0.00    +0.000 A 
ATOM      3  C   UNL     1       1.739   3.375  19.452  0.00  0.00    +0.000 A 
ATOM      4  C   UNL     1       2.755   2.510  19.845  0.00  0.00    +0.000 A 
ATOM      5  C   UNL     1       4.057   2.789  19.456  0.00  0.00    +0.000 A 
ATOM      6  C   UNL     1       4.352   3.912  18.682  0.00  0.00    +0.000 A 
ENDROOT
BRANCH   3   7
ATOM      7  O   UNL     1       0.468   3.073  19.845  0.00  0.00    +0.000 OA
ATOM      8  H   UNL     1      -0.157   3.531  19.260  0.00  0.00    +0.000 HD
ENDBRANCH   3   7
BRANCH   5   9
ATOM      9  O   UNL     1       5.100   1.983  19.809  0.00  0.00    +0.000 OA
ATOM     10  H   UNL     1       5.444   2.284  20.667  0.00  0.00    +0.000 HD
ENDBRANCH   5   9
BRANCH   1  11
ATOM     11  C   UNL     1       3.647   5.996  17.434  0.00  0.00    +0.000 C 
BRANCH  11  12
ATOM     12  C   UNL     1       5.061   5.942  16.847  0.00  0.00    +0.000 C 
BRANCH  12  14
ATOM     13  C   UNL     1       7.282   6.762  17.613  0.00  0.00    +0.000 C 
ATOM     14  C   UNL     1       5.972   6.990  17.423  0.00  0.00    +0.000 C 
BRANCH  13  16
ATOM     15  C   UNL     1       8.116   9.040  17.894  0.00  0.00    +0.000 C 
ATOM     16  C   UNL     1       8.169   7.734  18.195  0.00  0.00    +0.000 C 
BRANCH  15  17
ATOM     17  C   UNL     1       9.043  10.044  18.511  0.00  0.00    +0.000 C 
BRANCH  17  19
ATOM     18  C   UNL     1       9.476  12.499  18.816  0.00  0.00    +0.000 C 
ATOM     19  C   UNL     1       8.807  11.444  17.948  0.00  0.00    +0.000 C 
ENDBRANCH  17  19
ENDBRANCH  15  17
ENDBRANCH  13  16
ENDBRANCH  12  14
ENDBRANCH  11  12
ENDBRANCH   1  11
TORSDOF 8
ENDMDL
MODEL 9
REMARK VINA RESULT:      -6.4      3.200      6.603
REMARK  Name = 
REMARK  9 active torsions:
REMARK  status: ('A' for Active; 'I' for Inactive)
REMARK    1  A    between atoms: C_1  and  C_2
REMARK    2  A    between atoms: C_2  and  C_3
REMARK    3  A    between atoms: C_3  and  C_4
REMARK    4  A    between atoms: C_5  and  C_6
REMARK    5  A    between atoms: C_7  and  C_8
REMARK    6  A    between atoms: C_8  and  C_9
REMARK    7  A    between atoms: C_9  and  C_10
REMARK    8  A    between atoms: C_12  and  O_13
REMARK    9  A    between atoms: C_15  and  O_16
REMARK                            x       y       z     vdW  Elec       q    Type
REMARK                         _______ _______ _______ _____ _____    ______ ____
ROOT
ATOM      1  C   UNL     1       7.181   5.088  16.958  0.00  0.00    +0.000 A 
ATOM      2  C   UNL     1       7.543   4.660  18.244  0.00  0.00    +0.000 A 
ATOM      3  C   UNL     1       7.962   5.595  19.197  0.00  0.00    +0.000 A 
ATOM      4  C   UNL     1       8.022   6.951  18.896  0.00  0.00    +0.000 A 
ATOM      5  C   UNL     1       7.654   7.371  17.626  0.00  0.00    +0.000 A 
ATOM      6  C   UNL     1       7.234   6.456  16.660  0.00  0.00    +0.000 A 
ENDROOT
BRANCH   3   7
ATOM      7  O   UNL     1       8.334   5.211  20.452  0.00  0.00    +0.000 OA
ATOM      8  H   UNL     1       9.265   5.448  20.587  0.00  0.00    +0.000 HD
ENDBRANCH   3   7
BRANCH   5   9
ATOM      9  O   UNL     1       7.687   8.687  17.266  0.00  0.00    +0.000 OA
ATOM     10  H   UNL     1       7.471   8.753  16.321  0.00  0.00    +0.000 HD
ENDBRANCH   5   9
BRANCH   1  11
ATOM     11  C   UNL     1       6.731   4.093  15.908  0.00  0.00    +0.000 C 
BRANCH  11  12
ATOM     12  C   UNL     1       5.257   4.275  15.532  0.00  0.00    +0.000 C 
BRANCH  12  14
ATOM     13  C   UNL     1       3.352   3.406  16.878  0.00  0.00    +0.000 C 
ATOM     14  C   UNL     1       4.347   4.296  16.729  0.00  0.00    +0.000 C 
BRANCH  13  16
ATOM     15  C   UNL     1       2.504   2.536  18.996  0.00  0.00    +0.000 C 
ATOM     16  C   UNL     1       2.445   3.426  17.994  0.00  0.00    +0.000 C 
BRANCH  15  17
ATOM     17  C   UNL     1       1.556   2.571  20.157  0.00  0.00    +0.000 C 
BRANCH  17  19
ATOM     18  C   UNL     1       1.796   4.915  21.027  0.00  0.00    +0.000 C 
ATOM     19  C   UNL     1       0.889   3.938  20.294  0.00  0.00    +0.000 C 
ENDBRANCH  17  19
ENDBRANCH  15  17
ENDBRANCH  13  16
ENDBRANCH  12  14
ENDBRANCH  11  12
ENDBRANCH   1  11
TORSDOF 8
ENDMDL
