MODEL 1
REMARK VINA RESULT:      -8.7      0.000      0.000
REMARK  Name = 
REMARK  9 active torsions:
REMARK  status: ('A' for Active; 'I' for Inactive)
REMARK    1  A    between atoms: C_1  and  O_2
REMARK    2  A    between atoms: O_2  and  C_3
REMARK    3  A    between atoms: C_7  and  C_8
REMARK    4  A    between atoms: C_8  and  N_9
REMARK    5  A    between atoms: C_10  and  C_12
REMARK    6  A    between atoms: C_16  and  C_17
REMARK    7  A    between atoms: C_25  and  C_26
REMARK    8  A    between atoms: C_26  and  N_27
REMARK    9  A    between atoms: N_30  and  C_31
REMARK                            x       y       z     vdW  Elec       q    Type
REMARK                         _______ _______ _______ _____ _____    ______ ____
ROOT
ATOM      1  C   UNL     1       0.535   9.617  21.089  0.00  0.00    +0.000 A 
ATOM      2  N   UNL     1       1.119   8.379  21.262  0.00  0.00    +0.000 N 
ATOM      3  C   UNL     1       1.694   7.919  20.115  0.00  0.00    +0.000 A 
ATOM      4  C   UNL     1       2.285   6.673  19.857  0.00  0.00    +0.000 A 
ATOM      5  C   UNL     1       2.932   6.478  18.631  0.00  0.00    +0.000 A 
ATOM      6  C   UNL     1       3.045   7.565  17.756  0.00  0.00    +0.000 A 
ATOM      7  C   UNL     1       2.374   8.788  18.005  0.00  0.00    +0.000 A 
ATOM      8  C   UNL     1       1.626   8.957  19.193  0.00  0.00    +0.000 A 
ATOM      9  C   UNL     1       0.689   9.947  19.738  0.00  0.00    +0.000 A 
ATOM     10  H   UNL     1       1.146   7.903  22.152  0.00  0.00    +0.000 HD
ENDROOT
BRANCH   5  11
ATOM     11  C   UNL     1       3.439   5.158  18.292  0.00  0.00    +0.000 A 
ATOM     12  C   UNL     1       2.977   3.852  18.601  0.00  0.00    +0.000 A 
ATOM     13  N   UNL     1       3.783   2.892  18.134  0.00  0.00    +0.000 NA
ATOM     14  N   UNL     1       4.778   3.570  17.525  0.00  0.00    +0.000 N 
ATOM     15  C   UNL     1       4.612   4.923  17.595  0.00  0.00    +0.000 A 
ATOM     16  H   UNL     1       5.532   3.044  17.096  0.00  0.00    +0.000 HD
ENDBRANCH   5  11
BRANCH   1  18
ATOM     17  N   UNL     1      -0.955  11.217  22.137  0.00  0.00    +0.000 N 
ATOM     18  C   UNL     1      -0.027  10.220  22.288  0.00  0.00    +0.000 C 
ATOM     19  O   UNL     1       0.340   9.853  23.405  0.00  0.00    +0.000 OA
ATOM     20  H   UNL     1      -1.486  11.242  21.285  0.00  0.00    +0.000 HD
BRANCH  17  21
ATOM     21  C   UNL     1      -1.515  11.865  23.301  0.00  0.00    +0.000 C 
BRANCH  21  26
ATOM     22  C   UNL     1      -4.719  12.967  21.539  0.00  0.00    +0.000 A 
ATOM     23  C   UNL     1      -5.588  13.093  22.625  0.00  0.00    +0.000 A 
ATOM     24  C   UNL     1      -5.134  12.872  23.925  0.00  0.00    +0.000 A 
ATOM     25  C   UNL     1      -3.808  12.504  24.145  0.00  0.00    +0.000 A 
ATOM     26  C   UNL     1      -2.921  12.354  23.067  0.00  0.00    +0.000 A 
ATOM     27  C   UNL     1      -3.388  12.598  21.764  0.00  0.00    +0.000 A 
BRANCH  22  29
ATOM     28  C   UNL     1      -6.554  12.621  20.072  0.00  0.00    +0.000 C 
ATOM     29  O   UNL     1      -5.290  13.219  20.323  0.00  0.00    +0.000 OA
ENDBRANCH  22  29
ENDBRANCH  21  26
ENDBRANCH  17  21
ENDBRANCH   1  18
BRANCH   9  30
ATOM     30  C   UNL     1       0.046  11.091  18.961  0.00  0.00    +0.000 C 
BRANCH  30  31
ATOM     31  N   UNL     1      -1.366  10.756  18.634  0.00  0.00    +0.000 NA
ATOM     32  C   UNL     1      -1.437   9.837  17.471  0.00  0.00    +0.000 C 
ATOM     33  C   UNL     1      -2.881   9.453  17.069  0.00  0.00    +0.000 C 
ATOM     34  N   UNL     1      -3.805  10.578  16.844  0.00  0.00    +0.000 NA
ATOM     35  C   UNL     1      -3.635  11.181  15.527  0.00  0.00    +0.000 C 
ATOM     36  C   UNL     1      -3.661  11.554  17.941  0.00  0.00    +0.000 C 
ATOM     37  C   UNL     1      -2.194  11.942  18.306  0.00  0.00    +0.000 C 
ENDBRANCH  30  31
ENDBRANCH   9  30
TORSDOF 7
ENDMDL
MODEL 2
REMARK VINA RESULT:      -8.7      1.057      1.495
REMARK  Name = 
REMARK  9 active torsions:
REMARK  status: ('A' for Active; 'I' for Inactive)
REMARK    1  A    between atoms: C_1  and  O_2
REMARK    2  A    between atoms: O_2  and  C_3
REMARK    3  A    between atoms: C_7  and  C_8
REMARK    4  A    between atoms: C_8  and  N_9
REMARK    5  A    between atoms: C_10  and  C_12
REMARK    6  A    between atoms: C_16  and  C_17
REMARK    7  A    between atoms: C_25  and  C_26
REMARK    8  A    between atoms: C_26  and  N_27
REMARK    9  A    between atoms: N_30  and  C_31
REMARK                            x       y       z     vdW  Elec       q    Type
REMARK                         _______ _______ _______ _____ _____    ______ ____
ROOT
ATOM      1  C   UNL     1       0.502   9.622  21.023  0.00  0.00    +0.000 A 
ATOM      2  N   UNL     1       1.151   8.413  21.175  0.00  0.00    +0.000 N 
ATOM      3  C   UNL     1       1.722   7.989  20.013  0.00  0.00    +0.000 A 
ATOM      4  C   UNL     1       2.368   6.775  19.734  0.00  0.00    +0.000 A 
ATOM      5  C   UNL     1       2.997   6.619  18.494  0.00  0.00    +0.000 A 
ATOM      6  C   UNL     1       3.036   7.715  17.622  0.00  0.00    +0.000 A 
ATOM      7  C   UNL     1       2.310   8.901  17.894  0.00  0.00    +0.000 A 
ATOM      8  C   UNL     1       1.582   9.027  19.099  0.00  0.00    +0.000 A 
ATOM      9  C   UNL     1       0.609   9.966  19.671  0.00  0.00    +0.000 A 
ATOM     10  H   UNL     1       1.222   7.935  22.061  0.00  0.00    +0.000 HD
ENDROOT
BRANCH   5  11
ATOM     11  C   UNL     1       3.562   5.328  18.135  0.00  0.00    +0.000 A 
ATOM     12  C   UNL     1       4.354   4.908  17.034  0.00  0.00    +0.000 A 
ATOM     13  N   UNL     1       4.617   3.597  17.055  0.00  0.00    +0.000 NA
ATOM     14  N   UNL     1       3.991   3.156  18.166  0.00  0.00    +0.000 N 
ATOM     15  C   UNL     1       3.350   4.155  18.840  0.00  0.00    +0.000 A 
ATOM     16  H   UNL     1       4.040   2.169  18.390  0.00  0.00    +0.000 HD
ENDBRANCH   5  11
BRANCH   1  18
ATOM     17  N   UNL     1      -1.091  11.086  22.115  0.00  0.00    +0.000 N 
ATOM     18  C   UNL     1      -0.062  10.190  22.238  0.00  0.00    +0.000 C 
ATOM     19  O   UNL     1       0.390   9.884  23.342  0.00  0.00    +0.000 OA
ATOM     20  H   UNL     1      -1.660  11.042  21.289  0.00  0.00    +0.000 HD
BRANCH  17  21
ATOM     21  C   UNL     1      -1.660  11.699  23.295  0.00  0.00    +0.000 C 
BRANCH  21  26
ATOM     22  C   UNL     1      -4.987  13.570  23.408  0.00  0.00    +0.000 A 
ATOM     23  C   UNL     1      -4.755  14.579  22.470  0.00  0.00    +0.000 A 
ATOM     24  C   UNL     1      -3.551  14.630  21.768  0.00  0.00    +0.000 A 
ATOM     25  C   UNL     1      -2.562  13.679  22.013  0.00  0.00    +0.000 A 
ATOM     26  C   UNL     1      -2.767  12.667  22.964  0.00  0.00    +0.000 A 
ATOM     27  C   UNL     1      -3.992  12.617  23.652  0.00  0.00    +0.000 A 
BRANCH  22  29
ATOM     28  C   UNL     1      -7.056  12.501  23.872  0.00  0.00    +0.000 C 
ATOM     29  O   UNL     1      -6.208  13.632  24.018  0.00  0.00    +0.000 OA
ENDBRANCH  22  29
ENDBRANCH  21  26
ENDBRANCH  17  21
ENDBRANCH   1  18
BRANCH   9  30
ATOM     30  C   UNL     1      -0.108  11.081  18.916  0.00  0.00    +0.000 C 
BRANCH  30  31
ATOM     31  N   UNL     1      -1.572  10.821  18.891  0.00  0.00    +0.000 NA
ATOM     32  C   UNL     1      -1.941   9.976  17.728  0.00  0.00    +0.000 C 
ATOM     33  C   UNL     1      -3.456   9.674  17.635  0.00  0.00    +0.000 C 
ATOM     34  N   UNL     1      -4.348  10.845  17.676  0.00  0.00    +0.000 NA
ATOM     35  C   UNL     1      -4.439  11.520  16.386  0.00  0.00    +0.000 C 
ATOM     36  C   UNL     1      -3.919  11.748  18.762  0.00  0.00    +0.000 C 
ATOM     37  C   UNL     1      -2.390  12.056  18.813  0.00  0.00    +0.000 C 
ENDBRANCH  30  31
ENDBRANCH   9  30
TORSDOF 7
ENDMDL
MODEL 3
REMARK VINA RESULT:      -8.6      1.351      1.619
REMARK  Name = 
REMARK  9 active torsions:
REMARK  status: ('A' for Active; 'I' for Inactive)
REMARK    1  A    between atoms: C_1  and  O_2
REMARK    2  A    between atoms: O_2  and  C_3
REMARK    3  A    between atoms: C_7  and  C_8
REMARK    4  A    between atoms: C_8  and  N_9
REMARK    5  A    between atoms: C_10  and  C_12
REMARK    6  A    between atoms: C_16  and  C_17
REMARK    7  A    between atoms: C_25  and  C_26
REMARK    8  A    between atoms: C_26  and  N_27
REMARK    9  A    between atoms: N_30  and  C_31
REMARK                            x       y       z     vdW  Elec       q    Type
REMARK                         _______ _______ _______ _____ _____    ______ ____
ROOT
ATOM      1  C   UNL     1       0.706   9.379  20.990  0.00  0.00    +0.000 A 
ATOM      2  N   UNL     1       1.291   8.150  21.220  0.00  0.00    +0.000 N 
ATOM      3  C   UNL     1       1.858   7.635  20.094  0.00  0.00    +0.000 A 
ATOM      4  C   UNL     1       2.447   6.377  19.893  0.00  0.00    +0.000 A 
ATOM      5  C   UNL     1       3.087   6.121  18.675  0.00  0.00    +0.000 A 
ATOM      6  C   UNL     1       3.196   7.164  17.746  0.00  0.00    +0.000 A 
ATOM      7  C   UNL     1       2.526   8.398  17.940  0.00  0.00    +0.000 A 
ATOM      8  C   UNL     1       1.786   8.626  19.122  0.00  0.00    +0.000 A 
ATOM      9  C   UNL     1       0.852   9.643  19.623  0.00  0.00    +0.000 A 
ATOM     10  H   UNL     1       1.323   7.718  22.132  0.00  0.00    +0.000 HD
ENDROOT
BRANCH   5  11
ATOM     11  C   UNL     1       3.592   4.786  18.397  0.00  0.00    +0.000 A 
ATOM     12  C   UNL     1       3.088   3.724  17.601  0.00  0.00    +0.000 A 
ATOM     13  N   UNL     1       3.845   2.624  17.666  0.00  0.00    +0.000 NA
ATOM     14  N   UNL     1       4.842   2.962  18.510  0.00  0.00    +0.000 N 
ATOM     15  C   UNL     1       4.730   4.243  18.969  0.00  0.00    +0.000 A 
ATOM     16  H   UNL     1       5.549   2.269  18.728  0.00  0.00    +0.000 HD
ENDBRANCH   5  11
BRANCH   1  18
ATOM     17  N   UNL     1      -0.886  10.916  21.979  0.00  0.00    +0.000 N 
ATOM     18  C   UNL     1       0.152  10.040  22.162  0.00  0.00    +0.000 C 
ATOM     19  O   UNL     1       0.621   9.830  23.281  0.00  0.00    +0.000 OA
ATOM     20  H   UNL     1      -1.465  10.799  21.167  0.00  0.00    +0.000 HD
BRANCH  17  21
ATOM     21  C   UNL     1      -1.446  11.618  23.112  0.00  0.00    +0.000 C 
BRANCH  21  26
ATOM     22  C   UNL     1      -2.791  14.885  21.662  0.00  0.00    +0.000 A 
ATOM     23  C   UNL     1      -4.167  14.676  21.771  0.00  0.00    +0.000 A 
ATOM     24  C   UNL     1      -4.663  13.509  22.352  0.00  0.00    +0.000 A 
ATOM     25  C   UNL     1      -3.781  12.534  22.814  0.00  0.00    +0.000 A 
ATOM     26  C   UNL     1      -2.394  12.715  22.698  0.00  0.00    +0.000 A 
ATOM     27  C   UNL     1      -1.908  13.904  22.126  0.00  0.00    +0.000 A 
BRANCH  22  29
ATOM     28  C   UNL     1      -1.365  16.037  20.151  0.00  0.00    +0.000 C 
ATOM     29  O   UNL     1      -2.440  16.071  21.079  0.00  0.00    +0.000 OA
ENDBRANCH  22  29
ENDBRANCH  21  26
ENDBRANCH  17  21
ENDBRANCH   1  18
BRANCH   9  30
ATOM     30  C   UNL     1       0.205  10.748  18.796  0.00  0.00    +0.000 C 
BRANCH  30  31
ATOM     31  N   UNL     1      -1.276  10.629  18.854  0.00  0.00    +0.000 NA
ATOM     32  C   UNL     1      -1.788   9.809  17.728  0.00  0.00    +0.000 C 
ATOM     33  C   UNL     1      -3.327   9.651  17.723  0.00  0.00    +0.000 C 
ATOM     34  N   UNL     1      -4.101  10.903  17.791  0.00  0.00    +0.000 NA
ATOM     35  C   UNL     1      -4.198  11.567  16.496  0.00  0.00    +0.000 C 
ATOM     36  C   UNL     1      -3.529  11.774  18.836  0.00  0.00    +0.000 C 
ATOM     37  C   UNL     1      -1.977  11.935  18.799  0.00  0.00    +0.000 C 
ENDBRANCH  30  31
ENDBRANCH   9  30
TORSDOF 7
ENDMDL
MODEL 4
REMARK VINA RESULT:      -8.5      1.210      1.609
REMARK  Name = 
REMARK  9 active torsions:
REMARK  status: ('A' for Active; 'I' for Inactive)
REMARK    1  A    between atoms: C_1  and  O_2
REMARK    2  A    between atoms: O_2  and  C_3
REMARK    3  A    between atoms: C_7  and  C_8
REMARK    4  A    between atoms: C_8  and  N_9
REMARK    5  A    between atoms: C_10  and  C_12
REMARK    6  A    between atoms: C_16  and  C_17
REMARK    7  A    between atoms: C_25  and  C_26
REMARK    8  A    between atoms: C_26  and  N_27
REMARK    9  A    between atoms: N_30  and  C_31
REMARK                            x       y       z     vdW  Elec       q    Type
REMARK                         _______ _______ _______ _____ _____    ______ ____
ROOT
ATOM      1  C   UNL     1       0.515   9.575  21.137  0.00  0.00    +0.000 A 
ATOM      2  N   UNL     1       1.116   8.343  21.300  0.00  0.00    +0.000 N 
ATOM      3  C   UNL     1       1.695   7.900  20.149  0.00  0.00    +0.000 A 
ATOM      4  C   UNL     1       2.301   6.663  19.880  0.00  0.00    +0.000 A 
ATOM      5  C   UNL     1       2.950   6.485  18.653  0.00  0.00    +0.000 A 
ATOM      6  C   UNL     1       3.048   7.580  17.785  0.00  0.00    +0.000 A 
ATOM      7  C   UNL     1       2.360   8.792  18.044  0.00  0.00    +0.000 A 
ATOM      8  C   UNL     1       1.612   8.943  19.234  0.00  0.00    +0.000 A 
ATOM      9  C   UNL     1       0.663   9.917  19.788  0.00  0.00    +0.000 A 
ATOM     10  H   UNL     1       1.151   7.861  22.186  0.00  0.00    +0.000 HD
ENDROOT
BRANCH   5  11
ATOM     11  C   UNL     1       3.473   5.175  18.303  0.00  0.00    +0.000 A 
ATOM     12  C   UNL     1       2.965   4.134  17.481  0.00  0.00    +0.000 A 
ATOM     13  N   UNL     1       3.748   3.050  17.474  0.00  0.00    +0.000 NA
ATOM     14  N   UNL     1       4.767   3.378  18.296  0.00  0.00    +0.000 N 
ATOM     15  C   UNL     1       4.643   4.635  18.812  0.00  0.00    +0.000 A 
ATOM     16  H   UNL     1       5.496   2.693  18.461  0.00  0.00    +0.000 HD
ENDBRANCH   5  11
BRANCH   1  18
ATOM     17  N   UNL     1      -1.075  11.063  22.201  0.00  0.00    +0.000 N 
ATOM     18  C   UNL     1      -0.052  10.162  22.341  0.00  0.00    +0.000 C 
ATOM     19  O   UNL     1       0.392   9.867  23.451  0.00  0.00    +0.000 OA
ATOM     20  H   UNL     1      -1.639  11.011  21.372  0.00  0.00    +0.000 HD
BRANCH  17  21
ATOM     21  C   UNL     1      -1.648  11.694  23.369  0.00  0.00    +0.000 C 
BRANCH  21  26
ATOM     22  C   UNL     1      -4.064  14.642  23.578  0.00  0.00    +0.000 A 
ATOM     23  C   UNL     1      -4.620  14.621  22.297  0.00  0.00    +0.000 A 
ATOM     24  C   UNL     1      -4.255  13.633  21.384  0.00  0.00    +0.000 A 
ATOM     25  C   UNL     1      -3.316  12.667  21.742  0.00  0.00    +0.000 A 
ATOM     26  C   UNL     1      -2.731  12.681  23.018  0.00  0.00    +0.000 A 
ATOM     27  C   UNL     1      -3.121  13.672  23.934  0.00  0.00    +0.000 A 
BRANCH  22  29
ATOM     28  C   UNL     1      -5.806  16.175  24.089  0.00  0.00    +0.000 C 
ATOM     29  O   UNL     1      -4.513  15.659  24.375  0.00  0.00    +0.000 OA
ENDBRANCH  22  29
ENDBRANCH  21  26
ENDBRANCH  17  21
ENDBRANCH   1  18
BRANCH   9  30
ATOM     30  C   UNL     1       0.004  11.058  19.020  0.00  0.00    +0.000 C 
BRANCH  30  31
ATOM     31  N   UNL     1      -1.439  10.767  18.812  0.00  0.00    +0.000 NA
ATOM     32  C   UNL     1      -1.632   9.813  17.692  0.00  0.00    +0.000 C 
ATOM     33  C   UNL     1      -3.115   9.472  17.413  0.00  0.00    +0.000 C 
ATOM     34  N   UNL     1      -4.013  10.623  17.218  0.00  0.00    +0.000 NA
ATOM     35  C   UNL     1      -3.923  11.176  15.871  0.00  0.00    +0.000 C 
ATOM     36  C   UNL     1      -3.751  11.629  18.265  0.00  0.00    +0.000 C 
ATOM     37  C   UNL     1      -2.247  11.973  18.505  0.00  0.00    +0.000 C 
ENDBRANCH  30  31
ENDBRANCH   9  30
TORSDOF 7
ENDMDL
MODEL 5
REMARK VINA RESULT:      -8.5      1.905      2.396
REMARK  Name = 
REMARK  9 active torsions:
REMARK  status: ('A' for Active; 'I' for Inactive)
REMARK    1  A    between atoms: C_1  and  O_2
REMARK    2  A    between atoms: O_2  and  C_3
REMARK    3  A    between atoms: C_7  and  C_8
REMARK    4  A    between atoms: C_8  and  N_9
REMARK    5  A    between atoms: C_10  and  C_12
REMARK    6  A    between atoms: C_16  and  C_17
REMARK    7  A    between atoms: C_25  and  C_26
REMARK    8  A    between atoms: C_26  and  N_27
REMARK    9  A    between atoms: N_30  and  C_31
REMARK                            x       y       z     vdW  Elec       q    Type
REMARK                         _______ _______ _______ _____ _____    ______ ____
ROOT
ATOM      1  C   UNL     1       0.755   9.434  20.932  0.00  0.00    +0.000 A 
ATOM      2  N   UNL     1       1.332   8.207  21.191  0.00  0.00    +0.000 N 
ATOM      3  C   UNL     1       1.876   7.651  20.072  0.00  0.00    +0.000 A 
ATOM      4  C   UNL     1       2.449   6.382  19.902  0.00  0.00    +0.000 A 
ATOM      5  C   UNL     1       3.067   6.081  18.682  0.00  0.00    +0.000 A 
ATOM      6  C   UNL     1       3.170   7.093  17.720  0.00  0.00    +0.000 A 
ATOM      7  C   UNL     1       2.516   8.340  17.885  0.00  0.00    +0.000 A 
ATOM      8  C   UNL     1       1.797   8.612  19.071  0.00  0.00    +0.000 A 
ATOM      9  C   UNL     1       0.881   9.653  19.555  0.00  0.00    +0.000 A 
ATOM     10  H   UNL     1       1.375   7.804  22.115  0.00  0.00    +0.000 HD
ENDROOT
BRANCH   5  11
ATOM     11  C   UNL     1       3.554   4.733  18.439  0.00  0.00    +0.000 A 
ATOM     12  C   UNL     1       3.319   3.811  17.385  0.00  0.00    +0.000 A 
ATOM     13  N   UNL     1       3.927   2.636  17.579  0.00  0.00    +0.000 NA
ATOM     14  N   UNL     1       4.555   2.785  18.764  0.00  0.00    +0.000 N 
ATOM     15  C   UNL     1       4.360   4.020  19.311  0.00  0.00    +0.000 A 
ATOM     16  H   UNL     1       5.084   2.004  19.134  0.00  0.00    +0.000 HD
ENDBRANCH   5  11
BRANCH   1  18
ATOM     17  N   UNL     1      -0.783  11.042  21.892  0.00  0.00    +0.000 N 
ATOM     18  C   UNL     1       0.227  10.137  22.090  0.00  0.00    +0.000 C 
ATOM     19  O   UNL     1       0.692   9.934  23.212  0.00  0.00    +0.000 OA
ATOM     20  H   UNL     1      -1.367  10.928  21.084  0.00  0.00    +0.000 HD
BRANCH  17  21
ATOM     21  C   UNL     1      -1.316  11.787  23.011  0.00  0.00    +0.000 C 
BRANCH  21  26
ATOM     22  C   UNL     1      -0.454  15.198  21.528  0.00  0.00    +0.000 A 
ATOM     23  C   UNL     1      -0.826  16.043  22.575  0.00  0.00    +0.000 A 
ATOM     24  C   UNL     1      -1.308  15.517  23.774  0.00  0.00    +0.000 A 
ATOM     25  C   UNL     1      -1.437  14.138  23.924  0.00  0.00    +0.000 A 
ATOM     26  C   UNL     1      -1.086  13.270  22.878  0.00  0.00    +0.000 A 
ATOM     27  C   UNL     1      -0.585  13.814  21.683  0.00  0.00    +0.000 A 
BRANCH  22  29
ATOM     28  C   UNL     1      -0.135  15.163  19.174  0.00  0.00    +0.000 C 
ATOM     29  O   UNL     1       0.007  15.843  20.414  0.00  0.00    +0.000 OA
ENDBRANCH  22  29
ENDBRANCH  21  26
ENDBRANCH  17  21
ENDBRANCH   1  18
BRANCH   9  30
ATOM     30  C   UNL     1       0.231  10.738  18.703  0.00  0.00    +0.000 C 
BRANCH  30  31
ATOM     31  N   UNL     1      -1.249  10.607  18.752  0.00  0.00    +0.000 NA
ATOM     32  C   UNL     1      -1.744   9.764  17.635  0.00  0.00    +0.000 C 
ATOM     33  C   UNL     1      -3.282   9.592  17.619  0.00  0.00    +0.000 C 
ATOM     34  N   UNL     1      -4.067  10.838  17.661  0.00  0.00    +0.000 NA
ATOM     35  C   UNL     1      -4.160  11.480  16.355  0.00  0.00    +0.000 C 
ATOM     36  C   UNL     1      -3.512  11.730  18.696  0.00  0.00    +0.000 C 
ATOM     37  C   UNL     1      -1.961  11.905  18.670  0.00  0.00    +0.000 C 
ENDBRANCH  30  31
ENDBRANCH   9  30
TORSDOF 7
ENDMDL
MODEL 6
REMARK VINA RESULT:      -8.5      1.729      2.671
REMARK  Name = 
REMARK  9 active torsions:
REMARK  status: ('A' for Active; 'I' for Inactive)
REMARK    1  A    between atoms: C_1  and  O_2
REMARK    2  A    between atoms: O_2  and  C_3
REMARK    3  A    between atoms: C_7  and  C_8
REMARK    4  A    between atoms: C_8  and  N_9
REMARK    5  A    between atoms: C_10  and  C_12
REMARK    6  A    between atoms: C_16  and  C_17
REMARK    7  A    between atoms: C_25  and  C_26
REMARK    8  A    between atoms: C_26  and  N_27
REMARK    9  A    between atoms: N_30  and  C_31
REMARK                            x       y       z     vdW  Elec       q    Type
REMARK                         _______ _______ _______ _____ _____    ______ ____
ROOT
ATOM      1  C   UNL     1       0.489   9.593  21.066  0.00  0.00    +0.000 A 
ATOM      2  N   UNL     1       1.139   8.392  21.261  0.00  0.00    +0.000 N 
ATOM      3  C   UNL     1       1.710   7.927  20.115  0.00  0.00    +0.000 A 
ATOM      4  C   UNL     1       2.358   6.704  19.879  0.00  0.00    +0.000 A 
ATOM      5  C   UNL     1       2.986   6.504  18.645  0.00  0.00    +0.000 A 
ATOM      6  C   UNL     1       3.024   7.568  17.735  0.00  0.00    +0.000 A 
ATOM      7  C   UNL     1       2.297   8.762  17.964  0.00  0.00    +0.000 A 
ATOM      8  C   UNL     1       1.569   8.930  19.164  0.00  0.00    +0.000 A 
ATOM      9  C   UNL     1       0.595   9.889  19.702  0.00  0.00    +0.000 A 
ATOM     10  H   UNL     1       1.212   7.946  22.164  0.00  0.00    +0.000 HD
ENDROOT
BRANCH   5  11
ATOM     11  C   UNL     1       3.552   5.202  18.333  0.00  0.00    +0.000 A 
ATOM     12  C   UNL     1       3.075   4.119  17.547  0.00  0.00    +0.000 A 
ATOM     13  N   UNL     1       3.894   3.062  17.569  0.00  0.00    +0.000 NA
ATOM     14  N   UNL     1       4.906   3.450  18.373  0.00  0.00    +0.000 N 
ATOM     15  C   UNL     1       4.742   4.718  18.850  0.00  0.00    +0.000 A 
ATOM     16  H   UNL     1       5.659   2.796  18.554  0.00  0.00    +0.000 HD
ENDBRANCH   5  11
BRANCH   1  18
ATOM     17  N   UNL     1      -1.003  11.199  22.100  0.00  0.00    +0.000 N 
ATOM     18  C   UNL     1      -0.075  10.204  22.260  0.00  0.00    +0.000 C 
ATOM     19  O   UNL     1       0.291   9.846  23.379  0.00  0.00    +0.000 OA
ATOM     20  H   UNL     1      -1.533  11.218  21.247  0.00  0.00    +0.000 HD
BRANCH  17  21
ATOM     21  C   UNL     1      -1.566  11.855  23.258  0.00  0.00    +0.000 C 
BRANCH  21  26
ATOM     22  C   UNL     1      -4.736  13.001  21.464  0.00  0.00    +0.000 A 
ATOM     23  C   UNL     1      -5.613  13.145  22.542  0.00  0.00    +0.000 A 
ATOM     24  C   UNL     1      -5.174  12.922  23.847  0.00  0.00    +0.000 A 
ATOM     25  C   UNL     1      -3.856  12.534  24.080  0.00  0.00    +0.000 A 
ATOM     26  C   UNL     1      -2.962  12.365  23.010  0.00  0.00    +0.000 A 
ATOM     27  C   UNL     1      -3.414  12.611  21.702  0.00  0.00    +0.000 A 
BRANCH  22  29
ATOM     28  C   UNL     1      -6.042  14.457  20.116  0.00  0.00    +0.000 C 
ATOM     29  O   UNL     1      -5.293  13.256  20.242  0.00  0.00    +0.000 OA
ENDBRANCH  22  29
ENDBRANCH  21  26
ENDBRANCH  17  21
ENDBRANCH   1  18
BRANCH   9  30
ATOM     30  C   UNL     1      -0.123  10.974  18.907  0.00  0.00    +0.000 C 
BRANCH  30  31
ATOM     31  N   UNL     1       0.154  12.309  19.500  0.00  0.00    +0.000 NA
ATOM     32  C   UNL     1      -0.334  13.395  18.615  0.00  0.00    +0.000 C 
ATOM     33  C   UNL     1      -0.068  14.816  19.168  0.00  0.00    +0.000 C 
ATOM     34  N   UNL     1       1.323  15.105  19.554  0.00  0.00    +0.000 NA
ATOM     35  C   UNL     1       2.161  15.433  18.405  0.00  0.00    +0.000 C 
ATOM     36  C   UNL     1       1.855  13.978  20.343  0.00  0.00    +0.000 C 
ATOM     37  C   UNL     1       1.596  12.559  19.746  0.00  0.00    +0.000 C 
ENDBRANCH  30  31
ENDBRANCH   9  30
TORSDOF 7
ENDMDL
MODEL 7
REMARK VINA RESULT:      -8.3      1.028      1.121
REMARK  Name = 
REMARK  9 active torsions:
REMARK  status: ('A' for Active; 'I' for Inactive)
REMARK    1  A    between atoms: C_1  and  O_2
REMARK    2  A    between atoms: O_2  and  C_3
REMARK    3  A    between atoms: C_7  and  C_8
REMARK    4  A    between atoms: C_8  and  N_9
REMARK    5  A    between atoms: C_10  and  C_12
REMARK    6  A    between atoms: C_16  and  C_17
REMARK    7  A    between atoms: C_25  and  C_26
REMARK    8  A    between atoms: C_26  and  N_27
REMARK    9  A    between atoms: N_30  and  C_31
REMARK                            x       y       z     vdW  Elec       q    Type
REMARK                         _______ _______ _______ _____ _____    ______ ____
ROOT
ATOM      1  C   UNL     1       0.616   9.672  20.994  0.00  0.00    +0.000 A 
ATOM      2  N   UNL     1       1.224   8.468  21.285  0.00  0.00    +0.000 N 
ATOM      3  C   UNL     1       1.745   7.877  20.174  0.00  0.00    +0.000 A 
ATOM      4  C   UNL     1       2.339   6.612  20.038  0.00  0.00    +0.000 A 
ATOM      5  C   UNL     1       2.925   6.274  18.812  0.00  0.00    +0.000 A 
ATOM      6  C   UNL     1       2.979   7.247  17.807  0.00  0.00    +0.000 A 
ATOM      7  C   UNL     1       2.305   8.487  17.942  0.00  0.00    +0.000 A 
ATOM      8  C   UNL     1       1.617   8.794  19.138  0.00  0.00    +0.000 A 
ATOM      9  C   UNL     1       0.696   9.837  19.607  0.00  0.00    +0.000 A 
ATOM     10  H   UNL     1       1.304   8.104  22.223  0.00  0.00    +0.000 HD
ENDROOT
BRANCH   5  11
ATOM     11  C   UNL     1       3.432   4.926  18.609  0.00  0.00    +0.000 A 
ATOM     12  C   UNL     1       3.574   3.820  19.487  0.00  0.00    +0.000 A 
ATOM     13  N   UNL     1       4.148   2.764  18.902  0.00  0.00    +0.000 NA
ATOM     14  N   UNL     1       4.388   3.180  17.641  0.00  0.00    +0.000 N 
ATOM     15  C   UNL     1       3.977   4.463  17.423  0.00  0.00    +0.000 A 
ATOM     16  H   UNL     1       4.840   2.540  16.997  0.00  0.00    +0.000 HD
ENDBRANCH   5  11
BRANCH   1  18
ATOM     17  N   UNL     1      -0.545  11.594  21.907  0.00  0.00    +0.000 N 
ATOM     18  C   UNL     1       0.108  10.412  22.139  0.00  0.00    +0.000 C 
ATOM     19  O   UNL     1       0.282   9.993  23.284  0.00  0.00    +0.000 OA
ATOM     20  H   UNL     1      -0.980  11.725  21.012  0.00  0.00    +0.000 HD
BRANCH  17  21
ATOM     21  C   UNL     1      -1.038  12.378  23.017  0.00  0.00    +0.000 C 
BRANCH  21  26
ATOM     22  C   UNL     1      -3.935  14.349  21.501  0.00  0.00    +0.000 A 
ATOM     23  C   UNL     1      -5.018  13.802  22.193  0.00  0.00    +0.000 A 
ATOM     24  C   UNL     1      -4.814  12.836  23.178  0.00  0.00    +0.000 A 
ATOM     25  C   UNL     1      -3.523  12.398  23.465  0.00  0.00    +0.000 A 
ATOM     26  C   UNL     1      -2.421  12.921  22.770  0.00  0.00    +0.000 A 
ATOM     27  C   UNL     1      -2.640  13.907  21.792  0.00  0.00    +0.000 A 
BRANCH  22  29
ATOM     28  C   UNL     1      -4.704  16.552  21.057  0.00  0.00    +0.000 C 
ATOM     29  O   UNL     1      -4.274  15.289  20.568  0.00  0.00    +0.000 OA
ENDBRANCH  22  29
ENDBRANCH  21  26
ENDBRANCH  17  21
ENDBRANCH   1  18
BRANCH   9  30
ATOM     30  C   UNL     1      -0.001  10.874  18.732  0.00  0.00    +0.000 C 
BRANCH  30  31
ATOM     31  N   UNL     1      -1.475  10.693  18.803  0.00  0.00    +0.000 NA
ATOM     32  C   UNL     1      -1.966   9.884  17.659  0.00  0.00    +0.000 C 
ATOM     33  C   UNL     1      -3.498   9.664  17.665  0.00  0.00    +0.000 C 
ATOM     34  N   UNL     1      -4.321  10.881  17.776  0.00  0.00    +0.000 NA
ATOM     35  C   UNL     1      -4.460  11.576  16.501  0.00  0.00    +0.000 C 
ATOM     36  C   UNL     1      -3.773  11.745  18.839  0.00  0.00    +0.000 C 
ATOM     37  C   UNL     1      -2.228  11.970  18.792  0.00  0.00    +0.000 C 
ENDBRANCH  30  31
ENDBRANCH   9  30
TORSDOF 7
ENDMDL
MODEL 8
REMARK VINA RESULT:      -8.2      1.892      2.899
REMARK  Name = 
REMARK  9 active torsions:
REMARK  status: ('A' for Active; 'I' for Inactive)
REMARK    1  A    between atoms: C_1  and  O_2
REMARK    2  A    between atoms: O_2  and  C_3
REMARK    3  A    between atoms: C_7  and  C_8
REMARK    4  A    between atoms: C_8  and  N_9
REMARK    5  A    between atoms: C_10  and  C_12
REMARK    6  A    between atoms: C_16  and  C_17
REMARK    7  A    between atoms: C_25  and  C_26
REMARK    8  A    between atoms: C_26  and  N_27
REMARK    9  A    between atoms: N_30  and  C_31
REMARK                            x       y       z     vdW  Elec       q    Type
REMARK                         _______ _______ _______ _____ _____    ______ ____
ROOT
ATOM      1  C   UNL     1       0.575   9.531  20.998  0.00  0.00    +0.000 A 
ATOM      2  N   UNL     1       1.174   8.311  21.236  0.00  0.00    +0.000 N 
ATOM      3  C   UNL     1       1.753   7.797  20.114  0.00  0.00    +0.000 A 
ATOM      4  C   UNL     1       2.358   6.546  19.921  0.00  0.00    +0.000 A 
ATOM      5  C   UNL     1       3.006   6.293  18.707  0.00  0.00    +0.000 A 
ATOM      6  C   UNL     1       3.105   7.333  17.774  0.00  0.00    +0.000 A 
ATOM      7  C   UNL     1       2.420   8.560  17.960  0.00  0.00    +0.000 A 
ATOM      8  C   UNL     1       1.672   8.783  19.138  0.00  0.00    +0.000 A 
ATOM      9  C   UNL     1       0.724   9.791  19.631  0.00  0.00    +0.000 A 
ATOM     10  H   UNL     1       1.209   7.883  22.150  0.00  0.00    +0.000 HD
ENDROOT
BRANCH   5  11
ATOM     11  C   UNL     1       3.528   4.964  18.437  0.00  0.00    +0.000 A 
ATOM     12  C   UNL     1       3.160   3.680  18.919  0.00  0.00    +0.000 A 
ATOM     13  N   UNL     1       3.949   2.705  18.455  0.00  0.00    +0.000 NA
ATOM     14  N   UNL     1       4.839   3.351  17.674  0.00  0.00    +0.000 N 
ATOM     15  C   UNL     1       4.625   4.698  17.634  0.00  0.00    +0.000 A 
ATOM     16  H   UNL     1       5.562   2.810  17.213  0.00  0.00    +0.000 HD
ENDBRANCH   5  11
BRANCH   1  18
ATOM     17  N   UNL     1      -0.915  11.182  21.961  0.00  0.00    +0.000 N 
ATOM     18  C   UNL     1       0.009  10.191  22.165  0.00  0.00    +0.000 C 
ATOM     19  O   UNL     1       0.368   9.875  23.299  0.00  0.00    +0.000 OA
ATOM     20  H   UNL     1      -1.440  11.170  21.106  0.00  0.00    +0.000 HD
BRANCH  17  21
ATOM     21  C   UNL     1      -1.480  11.885  23.091  0.00  0.00    +0.000 C 
BRANCH  21  26
ATOM     22  C   UNL     1      -5.114  12.979  23.516  0.00  0.00    +0.000 A 
ATOM     23  C   UNL     1      -5.333  13.644  22.308  0.00  0.00    +0.000 A 
ATOM     24  C   UNL     1      -4.332  13.700  21.338  0.00  0.00    +0.000 A 
ATOM     25  C   UNL     1      -3.096  13.104  21.581  0.00  0.00    +0.000 A 
ATOM     26  C   UNL     1      -2.848  12.446  22.795  0.00  0.00    +0.000 A 
ATOM     27  C   UNL     1      -3.872  12.382  23.755  0.00  0.00    +0.000 A 
BRANCH  22  29
ATOM     28  C   UNL     1      -7.464  12.786  23.803  0.00  0.00    +0.000 C 
ATOM     29  O   UNL     1      -6.179  12.993  24.374  0.00  0.00    +0.000 OA
ENDBRANCH  22  29
ENDBRANCH  21  26
ENDBRANCH  17  21
ENDBRANCH   1  18
BRANCH   9  30
ATOM     30  C   UNL     1       0.066  10.884  18.796  0.00  0.00    +0.000 C 
BRANCH  30  31
ATOM     31  N   UNL     1       0.251  12.207  19.450  0.00  0.00    +0.000 NA
ATOM     32  C   UNL     1      -0.399  13.284  18.663  0.00  0.00    +0.000 C 
ATOM     33  C   UNL     1      -0.238  14.692  19.283  0.00  0.00    +0.000 C 
ATOM     34  N   UNL     1       1.141  15.100  19.601  0.00  0.00    +0.000 NA
ATOM     35  C   UNL     1       1.865  15.572  18.426  0.00  0.00    +0.000 C 
ATOM     36  C   UNL     1       1.832  13.992  20.288  0.00  0.00    +0.000 C 
ATOM     37  C   UNL     1       1.673  12.588  19.623  0.00  0.00    +0.000 C 
ENDBRANCH  30  31
ENDBRANCH   9  30
TORSDOF 7
ENDMDL
MODEL 9
REMARK VINA RESULT:      -8.2      1.970      2.910
REMARK  Name = 
REMARK  9 active torsions:
REMARK  status: ('A' for Active; 'I' for Inactive)
REMARK    1  A    between atoms: C_1  and  O_2
REMARK    2  A    between atoms: O_2  and  C_3
REMARK    3  A    between atoms: C_7  and  C_8
REMARK    4  A    between atoms: C_8  and  N_9
REMARK    5  A    between atoms: C_10  and  C_12
REMARK    6  A    between atoms: C_16  and  C_17
REMARK    7  A    between atoms: C_25  and  C_26
REMARK    8  A    between atoms: C_26  and  N_27
REMARK    9  A    between atoms: N_30  and  C_31
REMARK                            x       y       z     vdW  Elec       q    Type
REMARK                         _______ _______ _______ _____ _____    ______ ____
ROOT
ATOM      1  C   UNL     1       0.860   9.249  21.040  0.00  0.00    +0.000 A 
ATOM      2  N   UNL     1       1.259   7.936  21.194  0.00  0.00    +0.000 N 
ATOM      3  C   UNL     1       1.830   7.438  20.062  0.00  0.00    +0.000 A 
ATOM      4  C   UNL     1       2.258   6.131  19.786  0.00  0.00    +0.000 A 
ATOM      5  C   UNL     1       2.942   5.887  18.589  0.00  0.00    +0.000 A 
ATOM      6  C   UNL     1       3.253   6.975  17.764  0.00  0.00    +0.000 A 
ATOM      7  C   UNL     1       2.742   8.271  18.026  0.00  0.00    +0.000 A 
ATOM      8  C   UNL     1       1.957   8.504  19.179  0.00  0.00    +0.000 A 
ATOM      9  C   UNL     1       1.135   9.597  19.712  0.00  0.00    +0.000 A 
ATOM     10  H   UNL     1       1.170   7.433  22.065  0.00  0.00    +0.000 HD
ENDROOT
BRANCH   5  11
ATOM     11  C   UNL     1       3.282   4.521  18.224  0.00  0.00    +0.000 A 
ATOM     12  C   UNL     1       2.634   3.281  18.466  0.00  0.00    +0.000 A 
ATOM     13  N   UNL     1       3.326   2.235  18.001  0.00  0.00    +0.000 NA
ATOM     14  N   UNL     1       4.430   2.789  17.459  0.00  0.00    +0.000 N 
ATOM     15  C   UNL     1       4.445   4.150  17.570  0.00  0.00    +0.000 A 
ATOM     16  H   UNL     1       5.125   2.179  17.045  0.00  0.00    +0.000 HD
ENDBRANCH   5  11
BRANCH   1  18
ATOM     17  N   UNL     1      -0.756  10.721  22.085  0.00  0.00    +0.000 N 
ATOM     18  C   UNL     1       0.319   9.885  22.231  0.00  0.00    +0.000 C 
ATOM     19  O   UNL     1       0.830   9.689  23.334  0.00  0.00    +0.000 OA
ATOM     20  H   UNL     1      -1.355  10.586  21.291  0.00  0.00    +0.000 HD
BRANCH  17  21
ATOM     21  C   UNL     1      -1.306  11.399  23.237  0.00  0.00    +0.000 C 
BRANCH  21  26
ATOM     22  C   UNL     1      -4.148  13.063  21.304  0.00  0.00    +0.000 A 
ATOM     23  C   UNL     1      -5.078  13.268  22.326  0.00  0.00    +0.000 A 
ATOM     24  C   UNL     1      -4.775  12.917  23.641  0.00  0.00    +0.000 A 
ATOM     25  C   UNL     1      -3.542  12.341  23.939  0.00  0.00    +0.000 A 
ATOM     26  C   UNL     1      -2.599  12.109  22.926  0.00  0.00    +0.000 A 
ATOM     27  C   UNL     1      -2.912  12.484  21.608  0.00  0.00    +0.000 A 
BRANCH  22  29
ATOM     28  C   UNL     1      -5.930  13.208  19.741  0.00  0.00    +0.000 C 
ATOM     29  O   UNL     1      -4.570  13.458  20.065  0.00  0.00    +0.000 OA
ENDBRANCH  22  29
ENDBRANCH  21  26
ENDBRANCH  17  21
ENDBRANCH   1  18
BRANCH   9  30
ATOM     30  C   UNL     1       0.700  10.844  18.949  0.00  0.00    +0.000 C 
BRANCH  30  31
ATOM     31  N   UNL     1       1.536  12.006  19.350  0.00  0.00    +0.000 NA
ATOM     32  C   UNL     1       0.722  13.028  20.054  0.00  0.00    +0.000 C 
ATOM     33  C   UNL     1       1.531  14.273  20.492  0.00  0.00    +0.000 C 
ATOM     34  N   UNL     1       2.316  14.933  19.436  0.00  0.00    +0.000 NA
ATOM     35  C   UNL     1       1.497  15.803  18.597  0.00  0.00    +0.000 C 
ATOM     36  C   UNL     1       3.043  13.913  18.658  0.00  0.00    +0.000 C 
ATOM     37  C   UNL     1       2.196  12.682  18.207  0.00  0.00    +0.000 C 
ENDBRANCH  30  31
ENDBRANCH   9  30
TORSDOF 7
ENDMDL
