MODEL 1
REMARK VINA RESULT:      -6.1      0.000      0.000
REMARK  Name = 
REMARK  8 active torsions:
REMARK  status: ('A' for Active; 'I' for Inactive)
REMARK    1  A    between atoms: C_1  and  O_2
REMARK    2  A    between atoms: O_2  and  C_3
REMARK    3  A    between atoms: C_3  and  C_4
REMARK    4  A    between atoms: C_4  and  N_5
REMARK    5  A    between atoms: C_13  and  C_15
REMARK    6  A    between atoms: C_15  and  C_16
REMARK    7  A    between atoms: C_15  and  C_17
REMARK    8  A    between atoms: C_15  and  C_18
REMARK                            x       y       z     vdW  Elec       q    Type
REMARK                         _______ _______ _______ _____ _____    ______ ____
ROOT
ATOM      1  N   UNL     1       7.315   7.706  17.292  0.00  0.00    +0.000 N 
ATOM      2  C   UNL     1       6.965   6.754  18.209  0.00  0.00    +0.000 C 
ATOM      3  O   UNL     1       7.746   6.379  19.081  0.00  0.00    +0.000 OA
ATOM      4  N   UNL     1       5.675   6.262  18.097  0.00  0.00    +0.000 N 
ATOM      5  C   UNL     1       4.760   6.449  16.971  0.00  0.00    +0.000 C 
ATOM      6  C   UNL     1       4.879   5.375  15.896  0.00  0.00    +0.000 C 
ATOM      7  C   UNL     1       4.669   3.915  16.317  0.00  0.00    +0.000 C 
ATOM      8  N   UNL     1       4.101   3.689  17.651  0.00  0.00    +0.000 N 
ATOM      9  C   UNL     1       2.762   3.317  17.735  0.00  0.00    +0.000 C 
ATOM     10  O   UNL     1       2.079   3.292  16.706  0.00  0.00    +0.000 OA
ATOM     11  C   UNL     1       5.051   3.924  18.752  0.00  0.00    +0.000 C 
ATOM     12  C   UNL     1       5.192   5.392  19.160  0.00  0.00    +0.000 C 
ATOM     13  H   UNL     1       6.563   8.331  17.035  0.00  0.00    +0.000 HD
ENDROOT
BRANCH   9  14
ATOM     14  C   UNL     1       2.072   2.944  19.092  0.00  0.00    +0.000 C 
ATOM     15  C   UNL     1       3.038   2.194  20.016  0.00  0.00    +0.000 C 
ATOM     16  C   UNL     1       1.702   4.265  19.823  0.00  0.00    +0.000 C 
ATOM     17  C   UNL     1       0.739   2.192  18.932  0.00  0.00    +0.000 C 
ENDBRANCH   9  14
BRANCH   1  18
ATOM     18  C   UNL     1       8.579   8.409  17.451  0.00  0.00    +0.000 C 
BRANCH  18  19
ATOM     19  C   UNL     1       8.382   9.724  18.200  0.00  0.00    +0.000 C 
BRANCH  19  21
ATOM     20  C   UNL     1       9.688  11.074  19.628  0.00  0.00    +0.000 C 
ATOM     21  O   UNL     1       9.268   9.749  19.327  0.00  0.00    +0.000 OA
ENDBRANCH  19  21
ENDBRANCH  18  19
ENDBRANCH   1  18
TORSDOF 4
ENDMDL
MODEL 2
REMARK VINA RESULT:      -5.8      0.433      1.090
REMARK  Name = 
REMARK  8 active torsions:
REMARK  status: ('A' for Active; 'I' for Inactive)
REMARK    1  A    between atoms: C_1  and  O_2
REMARK    2  A    between atoms: O_2  and  C_3
REMARK    3  A    between atoms: C_3  and  C_4
REMARK    4  A    between atoms: C_4  and  N_5
REMARK    5  A    between atoms: C_13  and  C_15
REMARK    6  A    between atoms: C_15  and  C_16
REMARK    7  A    between atoms: C_15  and  C_17
REMARK    8  A    between atoms: C_15  and  C_18
REMARK                            x       y       z     vdW  Elec       q    Type
REMARK                         _______ _______ _______ _____ _____    ______ ____
ROOT
ATOM      1  N   UNL     1       7.370   7.818  17.284  0.00  0.00    +0.000 N 
ATOM      2  C   UNL     1       7.035   6.848  18.187  0.00  0.00    +0.000 C 
ATOM      3  O   UNL     1       7.824   6.469  19.050  0.00  0.00    +0.000 OA
ATOM      4  N   UNL     1       5.750   6.344  18.074  0.00  0.00    +0.000 N 
ATOM      5  C   UNL     1       4.828   6.537  16.955  0.00  0.00    +0.000 C 
ATOM      6  C   UNL     1       4.954   5.482  15.862  0.00  0.00    +0.000 C 
ATOM      7  C   UNL     1       4.763   4.013  16.261  0.00  0.00    +0.000 C 
ATOM      8  N   UNL     1       4.203   3.760  17.594  0.00  0.00    +0.000 N 
ATOM      9  C   UNL     1       2.869   3.371  17.678  0.00  0.00    +0.000 C 
ATOM     10  O   UNL     1       2.182   3.354  16.652  0.00  0.00    +0.000 OA
ATOM     11  C   UNL     1       5.156   3.988  18.694  0.00  0.00    +0.000 C 
ATOM     12  C   UNL     1       5.282   5.451  19.125  0.00  0.00    +0.000 C 
ATOM     13  H   UNL     1       6.610   8.438  17.040  0.00  0.00    +0.000 HD
ENDROOT
BRANCH   9  14
ATOM     14  C   UNL     1       2.190   2.969  19.033  0.00  0.00    +0.000 C 
ATOM     15  C   UNL     1       0.851   2.263  18.793  0.00  0.00    +0.000 C 
ATOM     16  C   UNL     1       3.110   1.938  19.745  0.00  0.00    +0.000 C 
ATOM     17  C   UNL     1       2.049   4.131  20.032  0.00  0.00    +0.000 C 
ENDBRANCH   9  14
BRANCH   1  18
ATOM     18  C   UNL     1       8.626   8.534  17.448  0.00  0.00    +0.000 C 
BRANCH  18  19
ATOM     19  C   UNL     1       8.441   9.769  18.325  0.00  0.00    +0.000 C 
BRANCH  19  21
ATOM     20  C   UNL     1      10.178  11.114  19.184  0.00  0.00    +0.000 C 
ATOM     21  O   UNL     1       9.476  10.712  18.016  0.00  0.00    +0.000 OA
ENDBRANCH  19  21
ENDBRANCH  18  19
ENDBRANCH   1  18
TORSDOF 4
ENDMDL
MODEL 3
REMARK VINA RESULT:      -5.6      4.334      6.320
REMARK  Name = 
REMARK  8 active torsions:
REMARK  status: ('A' for Active; 'I' for Inactive)
REMARK    1  A    between atoms: C_1  and  O_2
REMARK    2  A    between atoms: O_2  and  C_3
REMARK    3  A    between atoms: C_3  and  C_4
REMARK    4  A    between atoms: C_4  and  N_5
REMARK    5  A    between atoms: C_13  and  C_15
REMARK    6  A    between atoms: C_15  and  C_16
REMARK    7  A    between atoms: C_15  and  C_17
REMARK    8  A    between atoms: C_15  and  C_18
REMARK                            x       y       z     vdW  Elec       q    Type
REMARK                         _______ _______ _______ _____ _____    ______ ____
ROOT
ATOM      1  N   UNL     1       0.792   8.056  21.118  0.00  0.00    +0.000 N 
ATOM      2  C   UNL     1       1.505   8.223  19.964  0.00  0.00    +0.000 C 
ATOM      3  O   UNL     1       1.348   9.207  19.243  0.00  0.00    +0.000 OA
ATOM      4  N   UNL     1       2.422   7.225  19.678  0.00  0.00    +0.000 N 
ATOM      5  C   UNL     1       2.518   5.913  20.318  0.00  0.00    +0.000 C 
ATOM      6  C   UNL     1       1.675   4.836  19.646  0.00  0.00    +0.000 C 
ATOM      7  C   UNL     1       1.929   4.552  18.160  0.00  0.00    +0.000 C 
ATOM      8  N   UNL     1       3.142   5.137  17.576  0.00  0.00    +0.000 N 
ATOM      9  C   UNL     1       4.226   4.294  17.344  0.00  0.00    +0.000 C 
ATOM     10  O   UNL     1       4.169   3.122  17.728  0.00  0.00    +0.000 OA
ATOM     11  C   UNL     1       3.049   6.587  17.336  0.00  0.00    +0.000 C 
ATOM     12  C   UNL     1       3.336   7.449  18.567  0.00  0.00    +0.000 C 
ATOM     13  H   UNL     1       1.313   7.628  21.870  0.00  0.00    +0.000 HD
ENDROOT
BRANCH   9  14
ATOM     14  C   UNL     1       5.533   4.778  16.627  0.00  0.00    +0.000 C 
ATOM     15  C   UNL     1       6.642   5.078  17.642  0.00  0.00    +0.000 C 
ATOM     16  C   UNL     1       6.054   3.614  15.738  0.00  0.00    +0.000 C 
ATOM     17  C   UNL     1       5.318   5.953  15.657  0.00  0.00    +0.000 C 
ENDBRANCH   9  14
BRANCH   1  18
ATOM     18  C   UNL     1      -0.053   9.143  21.590  0.00  0.00    +0.000 C 
BRANCH  18  19
ATOM     19  C   UNL     1      -0.065   9.204  23.115  0.00  0.00    +0.000 C 
BRANCH  19  21
ATOM     20  C   UNL     1      -1.334  11.186  22.967  0.00  0.00    +0.000 C 
ATOM     21  O   UNL     1      -0.177  10.574  23.520  0.00  0.00    +0.000 OA
ENDBRANCH  19  21
ENDBRANCH  18  19
ENDBRANCH   1  18
TORSDOF 4
ENDMDL
MODEL 4
REMARK VINA RESULT:      -5.5      4.287      6.255
REMARK  Name = 
REMARK  8 active torsions:
REMARK  status: ('A' for Active; 'I' for Inactive)
REMARK    1  A    between atoms: C_1  and  O_2
REMARK    2  A    between atoms: O_2  and  C_3
REMARK    3  A    between atoms: C_3  and  C_4
REMARK    4  A    between atoms: C_4  and  N_5
REMARK    5  A    between atoms: C_13  and  C_15
REMARK    6  A    between atoms: C_15  and  C_16
REMARK    7  A    between atoms: C_15  and  C_17
REMARK    8  A    between atoms: C_15  and  C_18
REMARK                            x       y       z     vdW  Elec       q    Type
REMARK                         _______ _______ _______ _____ _____    ______ ____
ROOT
ATOM      1  N   UNL     1       0.641   7.579  21.369  0.00  0.00    +0.000 N 
ATOM      2  C   UNL     1       1.374   7.870  20.252  0.00  0.00    +0.000 C 
ATOM      3  O   UNL     1       1.225   8.925  19.639  0.00  0.00    +0.000 OA
ATOM      4  N   UNL     1       2.301   6.911  19.878  0.00  0.00    +0.000 N 
ATOM      5  C   UNL     1       2.392   5.539  20.376  0.00  0.00    +0.000 C 
ATOM      6  C   UNL     1       1.566   4.537  19.578  0.00  0.00    +0.000 C 
ATOM      7  C   UNL     1       1.848   4.414  18.075  0.00  0.00    +0.000 C 
ATOM      8  N   UNL     1       3.068   5.061  17.579  0.00  0.00    +0.000 N 
ATOM      9  C   UNL     1       4.160   4.251  17.278  0.00  0.00    +0.000 C 
ATOM     10  O   UNL     1       4.102   3.044  17.534  0.00  0.00    +0.000 OA
ATOM     11  C   UNL     1       2.972   6.529  17.493  0.00  0.00    +0.000 C 
ATOM     12  C   UNL     1       3.233   7.255  18.815  0.00  0.00    +0.000 C 
ATOM     13  H   UNL     1       1.152   7.074  22.080  0.00  0.00    +0.000 HD
ENDROOT
BRANCH   9  14
ATOM     14  C   UNL     1       5.478   4.812  16.641  0.00  0.00    +0.000 C 
ATOM     15  C   UNL     1       5.211   6.109  15.869  0.00  0.00    +0.000 C 
ATOM     16  C   UNL     1       6.452   5.180  17.794  0.00  0.00    +0.000 C 
ATOM     17  C   UNL     1       6.244   3.789  15.784  0.00  0.00    +0.000 C 
ENDBRANCH   9  14
BRANCH   1  18
ATOM     18  C   UNL     1      -0.217   8.606  21.939  0.00  0.00    +0.000 C 
BRANCH  18  19
ATOM     19  C   UNL     1       0.533   9.427  22.985  0.00  0.00    +0.000 C 
BRANCH  19  21
ATOM     20  C   UNL     1      -0.636  11.397  22.423  0.00  0.00    +0.000 C 
ATOM     21  O   UNL     1      -0.329  10.471  23.457  0.00  0.00    +0.000 OA
ENDBRANCH  19  21
ENDBRANCH  18  19
ENDBRANCH   1  18
TORSDOF 4
ENDMDL
MODEL 5
REMARK VINA RESULT:      -5.3      4.146      5.560
REMARK  Name = 
REMARK  8 active torsions:
REMARK  status: ('A' for Active; 'I' for Inactive)
REMARK    1  A    between atoms: C_1  and  O_2
REMARK    2  A    between atoms: O_2  and  C_3
REMARK    3  A    between atoms: C_3  and  C_4
REMARK    4  A    between atoms: C_4  and  N_5
REMARK    5  A    between atoms: C_13  and  C_15
REMARK    6  A    between atoms: C_15  and  C_16
REMARK    7  A    between atoms: C_15  and  C_17
REMARK    8  A    between atoms: C_15  and  C_18
REMARK                            x       y       z     vdW  Elec       q    Type
REMARK                         _______ _______ _______ _____ _____    ______ ____
ROOT
ATOM      1  N   UNL     1       1.437   9.413  18.997  0.00  0.00    +0.000 N 
ATOM      2  C   UNL     1       1.648   8.314  19.783  0.00  0.00    +0.000 C 
ATOM      3  O   UNL     1       1.557   8.369  21.008  0.00  0.00    +0.000 OA
ATOM      4  N   UNL     1       1.949   7.144  19.106  0.00  0.00    +0.000 N 
ATOM      5  C   UNL     1       2.321   7.018  17.696  0.00  0.00    +0.000 C 
ATOM      6  C   UNL     1       3.820   7.129  17.442  0.00  0.00    +0.000 C 
ATOM      7  C   UNL     1       4.744   6.142  18.167  0.00  0.00    +0.000 C 
ATOM      8  N   UNL     1       4.099   5.000  18.827  0.00  0.00    +0.000 N 
ATOM      9  C   UNL     1       4.186   3.756  18.209  0.00  0.00    +0.000 C 
ATOM     10  O   UNL     1       4.705   3.675  17.091  0.00  0.00    +0.000 OA
ATOM     11  C   UNL     1       3.404   5.348  20.078  0.00  0.00    +0.000 C 
ATOM     12  C   UNL     1       1.995   5.912  19.879  0.00  0.00    +0.000 C 
ATOM     13  H   UNL     1       0.979   9.213  18.118  0.00  0.00    +0.000 HD
ENDROOT
BRANCH   9  14
ATOM     14  C   UNL     1       3.634   2.445  18.867  0.00  0.00    +0.000 C 
ATOM     15  C   UNL     1       2.104   2.474  18.959  0.00  0.00    +0.000 C 
ATOM     16  C   UNL     1       3.996   1.251  17.941  0.00  0.00    +0.000 C 
ATOM     17  C   UNL     1       4.278   2.105  20.223  0.00  0.00    +0.000 C 
ENDBRANCH   9  14
BRANCH   1  18
ATOM     18  C   UNL     1       0.933  10.634  19.609  0.00  0.00    +0.000 C 
BRANCH  18  19
ATOM     19  C   UNL     1      -0.421  11.020  19.022  0.00  0.00    +0.000 C 
BRANCH  19  21
ATOM     20  C   UNL     1      -2.107  10.223  17.578  0.00  0.00    +0.000 C 
ATOM     21  O   UNL     1      -0.746  10.103  17.969  0.00  0.00    +0.000 OA
ENDBRANCH  19  21
ENDBRANCH  18  19
ENDBRANCH   1  18
TORSDOF 4
ENDMDL
MODEL 6
REMARK VINA RESULT:      -5.3      4.332      6.055
REMARK  Name = 
REMARK  8 active torsions:
REMARK  status: ('A' for Active; 'I' for Inactive)
REMARK    1  A    between atoms: C_1  and  O_2
REMARK    2  A    between atoms: O_2  and  C_3
REMARK    3  A    between atoms: C_3  and  C_4
REMARK    4  A    between atoms: C_4  and  N_5
REMARK    5  A    between atoms: C_13  and  C_15
REMARK    6  A    between atoms: C_15  and  C_16
REMARK    7  A    between atoms: C_15  and  C_17
REMARK    8  A    between atoms: C_15  and  C_18
REMARK                            x       y       z     vdW  Elec       q    Type
REMARK                         _______ _______ _______ _____ _____    ______ ____
ROOT
ATOM      1  N   UNL     1       1.216   9.781  19.332  0.00  0.00    +0.000 N 
ATOM      2  C   UNL     1       1.697   8.811  18.498  0.00  0.00    +0.000 C 
ATOM      3  O   UNL     1       1.616   8.910  17.275  0.00  0.00    +0.000 OA
ATOM      4  N   UNL     1       2.294   7.728  19.123  0.00  0.00    +0.000 N 
ATOM      5  C   UNL     1       2.228   7.391  20.545  0.00  0.00    +0.000 C 
ATOM      6  C   UNL     1       1.049   6.497  20.913  0.00  0.00    +0.000 C 
ATOM      7  C   UNL     1       0.926   5.146  20.197  0.00  0.00    +0.000 C 
ATOM      8  N   UNL     1       2.092   4.700  19.425  0.00  0.00    +0.000 N 
ATOM      9  C   UNL     1       2.893   3.701  19.972  0.00  0.00    +0.000 C 
ATOM     10  O   UNL     1       2.659   3.303  21.117  0.00  0.00    +0.000 OA
ATOM     11  C   UNL     1       2.272   5.417  18.151  0.00  0.00    +0.000 C 
ATOM     12  C   UNL     1       2.988   6.764  18.282  0.00  0.00    +0.000 C 
ATOM     13  H   UNL     1       1.774   9.930  20.162  0.00  0.00    +0.000 HD
ENDROOT
BRANCH   9  14
ATOM     14  C   UNL     1       4.099   3.068  19.197  0.00  0.00    +0.000 C 
ATOM     15  C   UNL     1       5.236   4.081  19.021  0.00  0.00    +0.000 C 
ATOM     16  C   UNL     1       4.672   1.910  20.062  0.00  0.00    +0.000 C 
ATOM     17  C   UNL     1       3.711   2.411  17.861  0.00  0.00    +0.000 C 
ENDBRANCH   9  14
BRANCH   1  18
ATOM     18  C   UNL     1       0.746  11.035  18.760  0.00  0.00    +0.000 C 
BRANCH  18  19
ATOM     19  C   UNL     1      -0.736  11.249  19.057  0.00  0.00    +0.000 C 
BRANCH  19  21
ATOM     20  C   UNL     1      -1.919  10.229  17.290  0.00  0.00    +0.000 C 
ATOM     21  O   UNL     1      -1.463  10.090  18.630  0.00  0.00    +0.000 OA
ENDBRANCH  19  21
ENDBRANCH  18  19
ENDBRANCH   1  18
TORSDOF 4
ENDMDL
MODEL 7
REMARK VINA RESULT:      -5.2      4.316      5.325
REMARK  Name = 
REMARK  8 active torsions:
REMARK  status: ('A' for Active; 'I' for Inactive)
REMARK    1  A    between atoms: C_1  and  O_2
REMARK    2  A    between atoms: O_2  and  C_3
REMARK    3  A    between atoms: C_3  and  C_4
REMARK    4  A    between atoms: C_4  and  N_5
REMARK    5  A    between atoms: C_13  and  C_15
REMARK    6  A    between atoms: C_15  and  C_16
REMARK    7  A    between atoms: C_15  and  C_17
REMARK    8  A    between atoms: C_15  and  C_18
REMARK                            x       y       z     vdW  Elec       q    Type
REMARK                         _______ _______ _______ _____ _____    ______ ____
ROOT
ATOM      1  N   UNL     1       1.583   9.531  18.726  0.00  0.00    +0.000 N 
ATOM      2  C   UNL     1       1.724   8.468  19.575  0.00  0.00    +0.000 C 
ATOM      3  O   UNL     1       1.600   8.592  20.792  0.00  0.00    +0.000 OA
ATOM      4  N   UNL     1       1.995   7.253  18.969  0.00  0.00    +0.000 N 
ATOM      5  C   UNL     1       2.402   7.036  17.581  0.00  0.00    +0.000 C 
ATOM      6  C   UNL     1       3.911   7.072  17.368  0.00  0.00    +0.000 C 
ATOM      7  C   UNL     1       4.771   6.089  18.172  0.00  0.00    +0.000 C 
ATOM      8  N   UNL     1       4.060   5.011  18.871  0.00  0.00    +0.000 N 
ATOM      9  C   UNL     1       4.113   3.733  18.321  0.00  0.00    +0.000 C 
ATOM     10  O   UNL     1       4.660   3.571  17.225  0.00  0.00    +0.000 OA
ATOM     11  C   UNL     1       3.344   5.454  20.079  0.00  0.00    +0.000 C 
ATOM     12  C   UNL     1       1.966   6.062  19.807  0.00  0.00    +0.000 C 
ATOM     13  H   UNL     1       1.143   9.303  17.846  0.00  0.00    +0.000 HD
ENDROOT
BRANCH   9  14
ATOM     14  C   UNL     1       3.487   2.483  19.030  0.00  0.00    +0.000 C 
ATOM     15  C   UNL     1       1.956   2.548  19.016  0.00  0.00    +0.000 C 
ATOM     16  C   UNL     1       3.880   1.220  18.214  0.00  0.00    +0.000 C 
ATOM     17  C   UNL     1       4.032   2.227  20.446  0.00  0.00    +0.000 C 
ENDBRANCH   9  14
BRANCH   1  18
ATOM     18  C   UNL     1       1.113  10.802  19.258  0.00  0.00    +0.000 C 
BRANCH  18  19
ATOM     19  C   UNL     1      -0.401  10.930  19.111  0.00  0.00    +0.000 C 
BRANCH  19  21
ATOM     20  C   UNL     1      -0.049  11.686  21.317  0.00  0.00    +0.000 C 
ATOM     21  O   UNL     1      -0.977  11.104  20.412  0.00  0.00    +0.000 OA
ENDBRANCH  19  21
ENDBRANCH  18  19
ENDBRANCH   1  18
TORSDOF 4
ENDMDL
MODEL 8
REMARK VINA RESULT:      -5.2      4.240      4.976
REMARK  Name = 
REMARK  8 active torsions:
REMARK  status: ('A' for Active; 'I' for Inactive)
REMARK    1  A    between atoms: C_1  and  O_2
REMARK    2  A    between atoms: O_2  and  C_3
REMARK    3  A    between atoms: C_3  and  C_4
REMARK    4  A    between atoms: C_4  and  N_5
REMARK    5  A    between atoms: C_13  and  C_15
REMARK    6  A    between atoms: C_15  and  C_16
REMARK    7  A    between atoms: C_15  and  C_17
REMARK    8  A    between atoms: C_15  and  C_18
REMARK                            x       y       z     vdW  Elec       q    Type
REMARK                         _______ _______ _______ _____ _____    ______ ____
ROOT
ATOM      1  N   UNL     1       1.347   9.583  19.297  0.00  0.00    +0.000 N 
ATOM      2  C   UNL     1       1.595   8.468  20.048  0.00  0.00    +0.000 C 
ATOM      3  O   UNL     1       1.588   8.502  21.277  0.00  0.00    +0.000 OA
ATOM      4  N   UNL     1       1.832   7.306  19.332  0.00  0.00    +0.000 N 
ATOM      5  C   UNL     1       2.104   7.199  17.899  0.00  0.00    +0.000 C 
ATOM      6  C   UNL     1       3.584   7.293  17.545  0.00  0.00    +0.000 C 
ATOM      7  C   UNL     1       4.540   6.281  18.189  0.00  0.00    +0.000 C 
ATOM      8  N   UNL     1       3.925   5.137  18.872  0.00  0.00    +0.000 N 
ATOM      9  C   UNL     1       3.951   3.903  18.228  0.00  0.00    +0.000 C 
ATOM     10  O   UNL     1       4.391   3.835  17.076  0.00  0.00    +0.000 OA
ATOM     11  C   UNL     1       3.322   5.473  20.173  0.00  0.00    +0.000 C 
ATOM     12  C   UNL     1       1.911   6.059  20.080  0.00  0.00    +0.000 C 
ATOM     13  H   UNL     1       0.828   9.405  18.448  0.00  0.00    +0.000 HD
ENDROOT
BRANCH   9  14
ATOM     14  C   UNL     1       3.425   2.588  18.901  0.00  0.00    +0.000 C 
ATOM     15  C   UNL     1       1.897   2.598  19.014  0.00  0.00    +0.000 C 
ATOM     16  C   UNL     1       3.791   1.394  17.976  0.00  0.00    +0.000 C 
ATOM     17  C   UNL     1       4.092   2.265  20.250  0.00  0.00    +0.000 C 
ENDBRANCH   9  14
BRANCH   1  18
ATOM     18  C   UNL     1       0.904  10.799  19.963  0.00  0.00    +0.000 C 
BRANCH  18  19
ATOM     19  C   UNL     1       0.610  11.901  18.949  0.00  0.00    +0.000 C 
BRANCH  19  21
ATOM     20  C   UNL     1       2.614  12.927  18.245  0.00  0.00    +0.000 C 
ATOM     21  O   UNL     1       1.530  12.981  19.162  0.00  0.00    +0.000 OA
ENDBRANCH  19  21
ENDBRANCH  18  19
ENDBRANCH   1  18
TORSDOF 4
ENDMDL
MODEL 9
REMARK VINA RESULT:      -5.1      4.421      5.788
REMARK  Name = 
REMARK  8 active torsions:
REMARK  status: ('A' for Active; 'I' for Inactive)
REMARK    1  A    between atoms: C_1  and  O_2
REMARK    2  A    between atoms: O_2  and  C_3
REMARK    3  A    between atoms: C_3  and  C_4
REMARK    4  A    between atoms: C_4  and  N_5
REMARK    5  A    between atoms: C_13  and  C_15
REMARK    6  A    between atoms: C_15  and  C_16
REMARK    7  A    between atoms: C_15  and  C_17
REMARK    8  A    between atoms: C_15  and  C_18
REMARK                            x       y       z     vdW  Elec       q    Type
REMARK                         _______ _______ _______ _____ _____    ______ ____
ROOT
ATOM      1  N   UNL     1       1.335   9.700  19.366  0.00  0.00    +0.000 N 
ATOM      2  C   UNL     1       1.798   8.721  18.531  0.00  0.00    +0.000 C 
ATOM      3  O   UNL     1       1.728   8.829  17.308  0.00  0.00    +0.000 OA
ATOM      4  N   UNL     1       2.364   7.622  19.154  0.00  0.00    +0.000 N 
ATOM      5  C   UNL     1       2.280   7.279  20.574  0.00  0.00    +0.000 C 
ATOM      6  C   UNL     1       1.077   6.413  20.930  0.00  0.00    +0.000 C 
ATOM      7  C   UNL     1       0.926   5.068  20.206  0.00  0.00    +0.000 C 
ATOM      8  N   UNL     1       2.086   4.598  19.440  0.00  0.00    +0.000 N 
ATOM      9  C   UNL     1       2.859   3.578  19.987  0.00  0.00    +0.000 C 
ATOM     10  O   UNL     1       2.608   3.179  21.129  0.00  0.00    +0.000 OA
ATOM     11  C   UNL     1       2.293   5.317  18.171  0.00  0.00    +0.000 C 
ATOM     12  C   UNL     1       3.040   6.645  18.313  0.00  0.00    +0.000 C 
ATOM     13  H   UNL     1       1.890   9.830  20.200  0.00  0.00    +0.000 HD
ENDROOT
BRANCH   9  14
ATOM     14  C   UNL     1       4.055   2.919  19.217  0.00  0.00    +0.000 C 
ATOM     15  C   UNL     1       5.171   3.936  18.955  0.00  0.00    +0.000 C 
ATOM     16  C   UNL     1       4.668   1.820  20.129  0.00  0.00    +0.000 C 
ATOM     17  C   UNL     1       3.643   2.183  17.930  0.00  0.00    +0.000 C 
ENDBRANCH   9  14
BRANCH   1  18
ATOM     18  C   UNL     1       0.899  10.967  18.797  0.00  0.00    +0.000 C 
BRANCH  18  19
ATOM     19  C   UNL     1      -0.160  11.625  19.677  0.00  0.00    +0.000 C 
BRANCH  19  21
ATOM     20  C   UNL     1      -0.653  11.313  21.962  0.00  0.00    +0.000 C 
ATOM     21  O   UNL     1      -0.565  10.692  20.686  0.00  0.00    +0.000 OA
ENDBRANCH  19  21
ENDBRANCH  18  19
ENDBRANCH   1  18
TORSDOF 4
ENDMDL
