MODEL 1
REMARK VINA RESULT:      -7.7      0.000      0.000
REMARK  Name = 
REMARK  6 active torsions:
REMARK  status: ('A' for Active; 'I' for Inactive)
REMARK    1  A    between atoms: C_5  and  N_6
REMARK    2  A    between atoms: N_18  and  C_19
REMARK    3  A    between atoms: C_19  and  C_20
REMARK    4  A    between atoms: C_20  and  C_21
REMARK    5  A    between atoms: C_21  and  N_22
REMARK    6  A    between atoms: N_25  and  C_26
REMARK                            x       y       z     vdW  Elec       q    Type
REMARK                         _______ _______ _______ _____ _____    ______ ____
ROOT
ATOM      1  O   UNL     1       2.735   8.229  17.894  0.00  0.00    +0.000 OA
ATOM      2  C   UNL     1       2.246   7.777  18.929  0.00  0.00    +0.000 A 
ATOM      3  C   UNL     1       1.456   8.661  19.781  0.00  0.00    +0.000 A 
ATOM      4  C   UNL     1       1.336  10.012  19.446  0.00  0.00    +0.000 A 
ATOM      5  C   UNL     1       0.701  10.908  20.299  0.00  0.00    +0.000 A 
ATOM      6  C   UNL     1       0.153  10.385  21.484  0.00  0.00    +0.000 A 
ATOM      7  C   UNL     1       0.241   9.023  21.806  0.00  0.00    +0.000 A 
ATOM      8  C   UNL     1       0.921   8.168  20.953  0.00  0.00    +0.000 A 
ATOM      9  N   UNL     1       1.106   6.828  21.286  0.00  0.00    +0.000 N 
ATOM     10  C   UNL     1       1.890   5.968  20.564  0.00  0.00    +0.000 A 
ATOM     11  S   UNL     1       2.097   4.430  21.202  0.00  0.00    +0.000 S 
ATOM     12  N   UNL     1       2.447   6.469  19.388  0.00  0.00    +0.000 N 
ATOM     13  H   UNL     1       0.715   6.467  22.150  0.00  0.00    +0.000 HD
ENDROOT
BRANCH   5  14
ATOM     14  N   UNL     1       0.678  12.257  20.024  0.00  0.00    +0.000 N 
ATOM     15  C   UNL     1      -0.574  13.003  19.810  0.00  0.00    +0.000 C 
ATOM     16  C   UNL     1      -0.397  13.906  18.579  0.00  0.00    +0.000 C 
ATOM     17  O   UNL     1       0.738  14.780  18.720  0.00  0.00    +0.000 OA
ATOM     18  C   UNL     1       1.944  14.015  18.902  0.00  0.00    +0.000 C 
ATOM     19  C   UNL     1       1.862  13.113  20.141  0.00  0.00    +0.000 C 
ENDBRANCH   5  14
BRANCH  12  20
ATOM     20  C   UNL     1       3.457   5.739  18.622  0.00  0.00    +0.000 C 
BRANCH  20  21
ATOM     21  C   UNL     1       4.793   5.813  19.353  0.00  0.00    +0.000 C 
BRANCH  21  22
ATOM     22  C   UNL     1       5.884   4.963  18.731  0.00  0.00    +0.000 C 
BRANCH  22  23
ATOM     23  N   UNL     1       6.908   5.560  17.849  0.00  0.00    +0.000 NA
ATOM     24  C   UNL     1       7.503   4.439  17.057  0.00  0.00    +0.000 C 
ATOM     25  C   UNL     1       6.441   3.735  16.192  0.00  0.00    +0.000 C 
ATOM     26  N   UNL     1       5.917   4.692  15.214  0.00  0.00    +0.000 N 
ATOM     27  C   UNL     1       5.443   5.985  15.739  0.00  0.00    +0.000 C 
ATOM     28  C   UNL     1       6.415   6.533  16.833  0.00  0.00    +0.000 C 
BRANCH  26  29
ATOM     29  C   UNL     1       6.043   4.376  13.875  0.00  0.00    +0.000 A 
ATOM     30  C   UNL     1       5.072   3.630  13.206  0.00  0.00    +0.000 A 
ATOM     31  C   UNL     1       5.306   3.144  11.907  0.00  0.00    +0.000 A 
ATOM     32  C   UNL     1       6.506   3.409  11.250  0.00  0.00    +0.000 A 
ATOM     33  C   UNL     1       7.455   4.210  11.864  0.00  0.00    +0.000 A 
ATOM     34  C   UNL     1       7.205   4.703  13.137  0.00  0.00    +0.000 A 
ATOM     35  F   UNL     1       8.133   5.524  13.659  0.00  0.00    +0.000 F 
ENDBRANCH  26  29
ENDBRANCH  22  23
ENDBRANCH  21  22
ENDBRANCH  20  21
ENDBRANCH  12  20
TORSDOF 6
ENDMDL
MODEL 2
REMARK VINA RESULT:      -7.7      4.545     11.427
REMARK  Name = 
REMARK  6 active torsions:
REMARK  status: ('A' for Active; 'I' for Inactive)
REMARK    1  A    between atoms: C_5  and  N_6
REMARK    2  A    between atoms: N_18  and  C_19
REMARK    3  A    between atoms: C_19  and  C_20
REMARK    4  A    between atoms: C_20  and  C_21
REMARK    5  A    between atoms: C_21  and  N_22
REMARK    6  A    between atoms: N_25  and  C_26
REMARK                            x       y       z     vdW  Elec       q    Type
REMARK                         _______ _______ _______ _____ _____    ______ ____
ROOT
ATOM      1  O   UNL     1       2.072   9.694  17.639  0.00  0.00    +0.000 OA
ATOM      2  C   UNL     1       1.872   9.050  18.668  0.00  0.00    +0.000 A 
ATOM      3  C   UNL     1       2.526   7.755  18.828  0.00  0.00    +0.000 A 
ATOM      4  C   UNL     1       3.298   7.241  17.783  0.00  0.00    +0.000 A 
ATOM      5  C   UNL     1       3.830   5.958  17.848  0.00  0.00    +0.000 A 
ATOM      6  C   UNL     1       3.588   5.224  19.024  0.00  0.00    +0.000 A 
ATOM      7  C   UNL     1       2.843   5.750  20.089  0.00  0.00    +0.000 A 
ATOM      8  C   UNL     1       2.292   7.017  19.969  0.00  0.00    +0.000 A 
ATOM      9  N   UNL     1       1.471   7.533  20.969  0.00  0.00    +0.000 N 
ATOM     10  C   UNL     1       0.778   8.709  20.849  0.00  0.00    +0.000 A 
ATOM     11  S   UNL     1      -0.264   9.094  22.107  0.00  0.00    +0.000 S 
ATOM     12  N   UNL     1       0.999   9.448  19.689  0.00  0.00    +0.000 N 
ATOM     13  H   UNL     1       1.296   6.987  21.806  0.00  0.00    +0.000 HD
ENDROOT
BRANCH   5  14
ATOM     14  N   UNL     1       4.498   5.409  16.777  0.00  0.00    +0.000 N 
ATOM     15  C   UNL     1       4.355   3.995  16.391  0.00  0.00    +0.000 C 
ATOM     16  C   UNL     1       5.754   3.426  16.105  0.00  0.00    +0.000 C 
ATOM     17  O   UNL     1       6.445   4.194  15.104  0.00  0.00    +0.000 OA
ATOM     18  C   UNL     1       6.587   5.563  15.527  0.00  0.00    +0.000 C 
ATOM     19  C   UNL     1       5.225   6.218  15.793  0.00  0.00    +0.000 C 
ENDBRANCH   5  14
BRANCH  12  20
ATOM     20  C   UNL     1       0.192  10.615  19.332  0.00  0.00    +0.000 C 
BRANCH  20  21
ATOM     21  C   UNL     1       0.887  11.878  19.828  0.00  0.00    +0.000 C 
BRANCH  21  22
ATOM     22  C   UNL     1       0.221  12.516  21.033  0.00  0.00    +0.000 C 
BRANCH  22  23
ATOM     23  N   UNL     1      -0.552  13.769  20.903  0.00  0.00    +0.000 NA
ATOM     24  C   UNL     1      -1.825  13.420  20.199  0.00  0.00    +0.000 C 
ATOM     25  C   UNL     1      -2.651  12.399  21.004  0.00  0.00    +0.000 C 
ATOM     26  N   UNL     1      -3.042  13.006  22.279  0.00  0.00    +0.000 N 
ATOM     27  C   UNL     1      -1.967  13.613  23.083  0.00  0.00    +0.000 C 
ATOM     28  C   UNL     1      -0.977  14.415  22.177  0.00  0.00    +0.000 C 
BRANCH  26  29
ATOM     29  C   UNL     1      -4.392  13.098  22.559  0.00  0.00    +0.000 A 
ATOM     30  C   UNL     1      -5.287  13.672  21.656  0.00  0.00    +0.000 A 
ATOM     31  C   UNL     1      -6.615  13.943  22.033  0.00  0.00    +0.000 A 
ATOM     32  C   UNL     1      -7.074  13.631  23.311  0.00  0.00    +0.000 A 
ATOM     33  C   UNL     1      -6.225  12.992  24.201  0.00  0.00    +0.000 A 
ATOM     34  C   UNL     1      -4.923  12.709  23.812  0.00  0.00    +0.000 A 
ATOM     35  F   UNL     1      -4.163  12.035  24.692  0.00  0.00    +0.000 F 
ENDBRANCH  26  29
ENDBRANCH  22  23
ENDBRANCH  21  22
ENDBRANCH  20  21
ENDBRANCH  12  20
TORSDOF 6
ENDMDL
MODEL 3
REMARK VINA RESULT:      -7.6      3.178      4.873
REMARK  Name = 
REMARK  6 active torsions:
REMARK  status: ('A' for Active; 'I' for Inactive)
REMARK    1  A    between atoms: C_5  and  N_6
REMARK    2  A    between atoms: N_18  and  C_19
REMARK    3  A    between atoms: C_19  and  C_20
REMARK    4  A    between atoms: C_20  and  C_21
REMARK    5  A    between atoms: C_21  and  N_22
REMARK    6  A    between atoms: N_25  and  C_26
REMARK                            x       y       z     vdW  Elec       q    Type
REMARK                         _______ _______ _______ _____ _____    ______ ____
ROOT
ATOM      1  O   UNL     1       0.916   9.390  22.830  0.00  0.00    +0.000 OA
ATOM      2  C   UNL     1       0.791   9.756  21.663  0.00  0.00    +0.000 A 
ATOM      3  C   UNL     1      -0.043  10.919  21.373  0.00  0.00    +0.000 A 
ATOM      4  C   UNL     1      -0.740  11.541  22.412  0.00  0.00    +0.000 A 
ATOM      5  C   UNL     1      -1.641  12.568  22.157  0.00  0.00    +0.000 A 
ATOM      6  C   UNL     1      -1.786  12.974  20.818  0.00  0.00    +0.000 A 
ATOM      7  C   UNL     1      -1.063  12.375  19.777  0.00  0.00    +0.000 A 
ATOM      8  C   UNL     1      -0.206  11.324  20.065  0.00  0.00    +0.000 A 
ATOM      9  N   UNL     1       0.459  10.648  19.045  0.00  0.00    +0.000 N 
ATOM     10  C   UNL     1       1.200   9.513  19.245  0.00  0.00    +0.000 A 
ATOM     11  S   UNL     1       1.810   8.767  17.871  0.00  0.00    +0.000 S 
ATOM     12  N   UNL     1       1.351   9.091  20.564  0.00  0.00    +0.000 N 
ATOM     13  H   UNL     1       0.335  10.944  18.082  0.00  0.00    +0.000 HD
ENDROOT
BRANCH   5  14
ATOM     14  N   UNL     1      -2.409  13.108  23.164  0.00  0.00    +0.000 N 
ATOM     15  C   UNL     1      -3.569  12.407  23.741  0.00  0.00    +0.000 C 
ATOM     16  C   UNL     1      -4.730  13.408  23.862  0.00  0.00    +0.000 C 
ATOM     17  O   UNL     1      -4.356  14.564  24.633  0.00  0.00    +0.000 OA
ATOM     18  C   UNL     1      -3.237  15.235  24.025  0.00  0.00    +0.000 C 
ATOM     19  C   UNL     1      -2.018  14.310  23.907  0.00  0.00    +0.000 C 
ENDBRANCH   5  14
BRANCH  12  20
ATOM     20  C   UNL     1       1.943   7.800  20.915  0.00  0.00    +0.000 C 
BRANCH  20  21
ATOM     21  C   UNL     1       0.941   6.690  20.615  0.00  0.00    +0.000 C 
BRANCH  21  22
ATOM     22  C   UNL     1       1.502   5.291  20.782  0.00  0.00    +0.000 C 
BRANCH  22  23
ATOM     23  N   UNL     1       1.454   4.312  19.676  0.00  0.00    +0.000 NA
ATOM     24  C   UNL     1       1.880   5.036  18.439  0.00  0.00    +0.000 C 
ATOM     25  C   UNL     1       3.317   5.577  18.570  0.00  0.00    +0.000 C 
ATOM     26  N   UNL     1       4.237   4.446  18.719  0.00  0.00    +0.000 N 
ATOM     27  C   UNL     1       3.912   3.459  19.765  0.00  0.00    +0.000 C 
ATOM     28  C   UNL     1       2.380   3.150  19.784  0.00  0.00    +0.000 C 
BRANCH  26  29
ATOM     29  C   UNL     1       5.242   4.308  17.782  0.00  0.00    +0.000 A 
ATOM     30  C   UNL     1       6.574   4.583  18.095  0.00  0.00    +0.000 A 
ATOM     31  C   UNL     1       7.554   4.637  17.087  0.00  0.00    +0.000 A 
ATOM     32  C   UNL     1       7.222   4.401  15.754  0.00  0.00    +0.000 A 
ATOM     33  C   UNL     1       5.921   4.053  15.429  0.00  0.00    +0.000 A 
ATOM     34  C   UNL     1       4.967   3.981  16.434  0.00  0.00    +0.000 A 
ATOM     35  F   UNL     1       3.736   3.580  16.069  0.00  0.00    +0.000 F 
ENDBRANCH  26  29
ENDBRANCH  22  23
ENDBRANCH  21  22
ENDBRANCH  20  21
ENDBRANCH  12  20
TORSDOF 6
ENDMDL
MODEL 4
REMARK VINA RESULT:      -7.5      4.481     11.528
REMARK  Name = 
REMARK  6 active torsions:
REMARK  status: ('A' for Active; 'I' for Inactive)
REMARK    1  A    between atoms: C_5  and  N_6
REMARK    2  A    between atoms: N_18  and  C_19
REMARK    3  A    between atoms: C_19  and  C_20
REMARK    4  A    between atoms: C_20  and  C_21
REMARK    5  A    between atoms: C_21  and  N_22
REMARK    6  A    between atoms: N_25  and  C_26
REMARK                            x       y       z     vdW  Elec       q    Type
REMARK                         _______ _______ _______ _____ _____    ______ ____
ROOT
ATOM      1  O   UNL     1       2.470   9.056  17.315  0.00  0.00    +0.000 OA
ATOM      2  C   UNL     1       2.198   8.511  18.384  0.00  0.00    +0.000 A 
ATOM      3  C   UNL     1       2.877   7.267  18.736  0.00  0.00    +0.000 A 
ATOM      4  C   UNL     1       3.759   6.683  17.824  0.00  0.00    +0.000 A 
ATOM      5  C   UNL     1       4.324   5.437  18.070  0.00  0.00    +0.000 A 
ATOM      6  C   UNL     1       3.999   4.817  19.290  0.00  0.00    +0.000 A 
ATOM      7  C   UNL     1       3.141   5.416  20.224  0.00  0.00    +0.000 A 
ATOM      8  C   UNL     1       2.562   6.640  19.924  0.00  0.00    +0.000 A 
ATOM      9  N   UNL     1       1.636   7.220  20.787  0.00  0.00    +0.000 N 
ATOM     10  C   UNL     1       0.919   8.347  20.484  0.00  0.00    +0.000 A 
ATOM     11  S   UNL     1      -0.247   8.813  21.597  0.00  0.00    +0.000 S 
ATOM     12  N   UNL     1       1.222   8.974  19.277  0.00  0.00    +0.000 N 
ATOM     13  H   UNL     1       1.402   6.755  21.659  0.00  0.00    +0.000 HD
ENDROOT
BRANCH   5  14
ATOM     14  N   UNL     1       5.105   4.811  17.125  0.00  0.00    +0.000 N 
ATOM     15  C   UNL     1       6.557   4.628  17.290  0.00  0.00    +0.000 C 
ATOM     16  C   UNL     1       7.247   5.003  15.969  0.00  0.00    +0.000 C 
ATOM     17  O   UNL     1       6.727   4.244  14.863  0.00  0.00    +0.000 OA
ATOM     18  C   UNL     1       5.312   4.468  14.719  0.00  0.00    +0.000 C 
ATOM     19  C   UNL     1       4.543   4.076  15.988  0.00  0.00    +0.000 C 
ENDBRANCH   5  14
BRANCH  12  20
ATOM     20  C   UNL     1       0.413  10.062  18.730  0.00  0.00    +0.000 C 
BRANCH  20  21
ATOM     21  C   UNL     1       0.820  11.373  19.393  0.00  0.00    +0.000 C 
BRANCH  21  22
ATOM     22  C   UNL     1      -0.350  12.251  19.796  0.00  0.00    +0.000 C 
BRANCH  22  23
ATOM     23  N   UNL     1      -0.245  13.189  20.932  0.00  0.00    +0.000 NA
ATOM     24  C   UNL     1      -1.265  14.260  20.704  0.00  0.00    +0.000 C 
ATOM     25  C   UNL     1      -2.691  13.679  20.660  0.00  0.00    +0.000 C 
ATOM     26  N   UNL     1      -3.003  13.089  21.965  0.00  0.00    +0.000 N 
ATOM     27  C   UNL     1      -2.025  12.131  22.511  0.00  0.00    +0.000 C 
ATOM     28  C   UNL     1      -0.563  12.632  22.278  0.00  0.00    +0.000 C 
BRANCH  26  29
ATOM     29  C   UNL     1      -4.099  13.582  22.646  0.00  0.00    +0.000 A 
ATOM     30  C   UNL     1      -5.346  12.961  22.569  0.00  0.00    +0.000 A 
ATOM     31  C   UNL     1      -6.492  13.581  23.098  0.00  0.00    +0.000 A 
ATOM     32  C   UNL     1      -6.409  14.822  23.726  0.00  0.00    +0.000 A 
ATOM     33  C   UNL     1      -5.171  15.423  23.881  0.00  0.00    +0.000 A 
ATOM     34  C   UNL     1      -4.042  14.793  23.376  0.00  0.00    +0.000 A 
ATOM     35  F   UNL     1      -2.861  15.392  23.609  0.00  0.00    +0.000 F 
ENDBRANCH  26  29
ENDBRANCH  22  23
ENDBRANCH  21  22
ENDBRANCH  20  21
ENDBRANCH  12  20
TORSDOF 6
ENDMDL
MODEL 5
REMARK VINA RESULT:      -7.5      4.655     11.834
REMARK  Name = 
REMARK  6 active torsions:
REMARK  status: ('A' for Active; 'I' for Inactive)
REMARK    1  A    between atoms: C_5  and  N_6
REMARK    2  A    between atoms: N_18  and  C_19
REMARK    3  A    between atoms: C_19  and  C_20
REMARK    4  A    between atoms: C_20  and  C_21
REMARK    5  A    between atoms: C_21  and  N_22
REMARK    6  A    between atoms: N_25  and  C_26
REMARK                            x       y       z     vdW  Elec       q    Type
REMARK                         _______ _______ _______ _____ _____    ______ ____
ROOT
ATOM      1  O   UNL     1       2.051   9.586  17.574  0.00  0.00    +0.000 OA
ATOM      2  C   UNL     1       1.876   8.945  18.609  0.00  0.00    +0.000 A 
ATOM      3  C   UNL     1       2.563   7.666  18.772  0.00  0.00    +0.000 A 
ATOM      4  C   UNL     1       3.338   7.163  17.724  0.00  0.00    +0.000 A 
ATOM      5  C   UNL     1       3.901   5.894  17.794  0.00  0.00    +0.000 A 
ATOM      6  C   UNL     1       3.687   5.164  18.976  0.00  0.00    +0.000 A 
ATOM      7  C   UNL     1       2.939   5.679  20.044  0.00  0.00    +0.000 A 
ATOM      8  C   UNL     1       2.356   6.931  19.921  0.00  0.00    +0.000 A 
ATOM      9  N   UNL     1       1.532   7.435  20.925  0.00  0.00    +0.000 N 
ATOM     10  C   UNL     1       0.810   8.592  20.803  0.00  0.00    +0.000 A 
ATOM     11  S   UNL     1      -0.230   8.961  22.067  0.00  0.00    +0.000 S 
ATOM     12  N   UNL     1       1.003   9.329  19.635  0.00  0.00    +0.000 N 
ATOM     13  H   UNL     1       1.378   6.891  21.767  0.00  0.00    +0.000 HD
ENDROOT
BRANCH   5  14
ATOM     14  N   UNL     1       4.572   5.354  16.720  0.00  0.00    +0.000 N 
ATOM     15  C   UNL     1       4.458   3.935  16.345  0.00  0.00    +0.000 C 
ATOM     16  C   UNL     1       5.868   3.396  16.051  0.00  0.00    +0.000 C 
ATOM     17  O   UNL     1       6.533   4.173  15.039  0.00  0.00    +0.000 OA
ATOM     18  C   UNL     1       6.647   5.547  15.451  0.00  0.00    +0.000 C 
ATOM     19  C   UNL     1       5.272   6.173  15.726  0.00  0.00    +0.000 C 
ENDBRANCH   5  14
BRANCH  12  20
ATOM     20  C   UNL     1       0.164  10.473  19.278  0.00  0.00    +0.000 C 
BRANCH  20  21
ATOM     21  C   UNL     1       0.868  11.760  19.691  0.00  0.00    +0.000 C 
BRANCH  21  22
ATOM     22  C   UNL     1      -0.018  12.732  20.448  0.00  0.00    +0.000 C 
BRANCH  22  23
ATOM     23  N   UNL     1       0.120  12.914  21.908  0.00  0.00    +0.000 NA
ATOM     24  C   UNL     1       0.122  14.388  22.162  0.00  0.00    +0.000 C 
ATOM     25  C   UNL     1      -1.193  15.041  21.694  0.00  0.00    +0.000 C 
ATOM     26  N   UNL     1      -2.301  14.493  22.481  0.00  0.00    +0.000 N 
ATOM     27  C   UNL     1      -2.400  13.024  22.553  0.00  0.00    +0.000 C 
ATOM     28  C   UNL     1      -0.991  12.377  22.745  0.00  0.00    +0.000 C 
BRANCH  26  29
ATOM     29  C   UNL     1      -3.069  15.378  23.212  0.00  0.00    +0.000 A 
ATOM     30  C   UNL     1      -2.528  16.118  24.264  0.00  0.00    +0.000 A 
ATOM     31  C   UNL     1      -3.359  16.857  25.125  0.00  0.00    +0.000 A 
ATOM     32  C   UNL     1      -4.740  16.883  24.940  0.00  0.00    +0.000 A 
ATOM     33  C   UNL     1      -5.292  16.217  23.857  0.00  0.00    +0.000 A 
ATOM     34  C   UNL     1      -4.462  15.509  23.000  0.00  0.00    +0.000 A 
ATOM     35  F   UNL     1      -5.045  14.934  21.934  0.00  0.00    +0.000 F 
ENDBRANCH  26  29
ENDBRANCH  22  23
ENDBRANCH  21  22
ENDBRANCH  20  21
ENDBRANCH  12  20
TORSDOF 6
ENDMDL
MODEL 6
REMARK VINA RESULT:      -7.4      3.461      5.074
REMARK  Name = 
REMARK  6 active torsions:
REMARK  status: ('A' for Active; 'I' for Inactive)
REMARK    1  A    between atoms: C_5  and  N_6
REMARK    2  A    between atoms: N_18  and  C_19
REMARK    3  A    between atoms: C_19  and  C_20
REMARK    4  A    between atoms: C_20  and  C_21
REMARK    5  A    between atoms: C_21  and  N_22
REMARK    6  A    between atoms: N_25  and  C_26
REMARK                            x       y       z     vdW  Elec       q    Type
REMARK                         _______ _______ _______ _____ _____    ______ ____
ROOT
ATOM      1  O   UNL     1      -0.055  10.164  23.172  0.00  0.00    +0.000 OA
ATOM      2  C   UNL     1      -0.059  10.403  21.965  0.00  0.00    +0.000 A 
ATOM      3  C   UNL     1      -1.018  11.373  21.442  0.00  0.00    +0.000 A 
ATOM      4  C   UNL     1      -1.956  11.947  22.304  0.00  0.00    +0.000 A 
ATOM      5  C   UNL     1      -2.962  12.774  21.820  0.00  0.00    +0.000 A 
ATOM      6  C   UNL     1      -2.967  13.034  20.438  0.00  0.00    +0.000 A 
ATOM      7  C   UNL     1      -2.007  12.487  19.574  0.00  0.00    +0.000 A 
ATOM      8  C   UNL     1      -1.044  11.632  20.087  0.00  0.00    +0.000 A 
ATOM      9  N   UNL     1      -0.132  11.000  19.245  0.00  0.00    +0.000 N 
ATOM     10  C   UNL     1       0.744  10.035  19.665  0.00  0.00    +0.000 A 
ATOM     11  S   UNL     1       1.669   9.295  18.475  0.00  0.00    +0.000 S 
ATOM     12  N   UNL     1       0.761   9.757  21.031  0.00  0.00    +0.000 N 
ATOM     13  H   UNL     1      -0.155  11.188  18.249  0.00  0.00    +0.000 HD
ENDROOT
BRANCH   5  14
ATOM     14  N   UNL     1      -3.951  13.252  22.650  0.00  0.00    +0.000 N 
ATOM     15  C   UNL     1      -5.378  13.221  22.286  0.00  0.00    +0.000 C 
ATOM     16  C   UNL     1      -5.997  14.585  22.634  0.00  0.00    +0.000 C 
ATOM     17  O   UNL     1      -5.797  14.921  24.019  0.00  0.00    +0.000 OA
ATOM     18  C   UNL     1      -4.393  14.965  24.330  0.00  0.00    +0.000 C 
ATOM     19  C   UNL     1      -3.707  13.622  24.048  0.00  0.00    +0.000 C 
ENDBRANCH   5  14
BRANCH  12  20
ATOM     20  C   UNL     1       1.494   8.625  21.596  0.00  0.00    +0.000 C 
BRANCH  20  21
ATOM     21  C   UNL     1       1.091   7.350  20.864  0.00  0.00    +0.000 C 
BRANCH  21  22
ATOM     22  C   UNL     1       2.247   6.409  20.581  0.00  0.00    +0.000 C 
BRANCH  22  23
ATOM     23  N   UNL     1       2.060   5.195  19.759  0.00  0.00    +0.000 NA
ATOM     24  C   UNL     1       2.170   5.620  18.329  0.00  0.00    +0.000 C 
ATOM     25  C   UNL     1       3.554   6.225  18.027  0.00  0.00    +0.000 C 
ATOM     26  N   UNL     1       4.576   5.194  18.226  0.00  0.00    +0.000 N 
ATOM     27  C   UNL     1       4.549   4.472  19.511  0.00  0.00    +0.000 C 
ATOM     28  C   UNL     1       3.083   4.124  19.926  0.00  0.00    +0.000 C 
BRANCH  26  29
ATOM     29  C   UNL     1       5.382   4.873  17.152  0.00  0.00    +0.000 A 
ATOM     30  C   UNL     1       6.702   5.318  17.071  0.00  0.00    +0.000 A 
ATOM     31  C   UNL     1       7.444   5.158  15.886  0.00  0.00    +0.000 A 
ATOM     32  C   UNL     1       6.886   4.538  14.771  0.00  0.00    +0.000 A 
ATOM     33  C   UNL     1       5.603   4.021  14.852  0.00  0.00    +0.000 A 
ATOM     34  C   UNL     1       4.887   4.164  16.032  0.00  0.00    +0.000 A 
ATOM     35  F   UNL     1       3.672   3.590  16.073  0.00  0.00    +0.000 F 
ENDBRANCH  26  29
ENDBRANCH  22  23
ENDBRANCH  21  22
ENDBRANCH  20  21
ENDBRANCH  12  20
TORSDOF 6
ENDMDL
MODEL 7
REMARK VINA RESULT:      -7.4      3.199      4.752
REMARK  Name = 
REMARK  6 active torsions:
REMARK  status: ('A' for Active; 'I' for Inactive)
REMARK    1  A    between atoms: C_5  and  N_6
REMARK    2  A    between atoms: N_18  and  C_19
REMARK    3  A    between atoms: C_19  and  C_20
REMARK    4  A    between atoms: C_20  and  C_21
REMARK    5  A    between atoms: C_21  and  N_22
REMARK    6  A    between atoms: N_25  and  C_26
REMARK                            x       y       z     vdW  Elec       q    Type
REMARK                         _______ _______ _______ _____ _____    ______ ____
ROOT
ATOM      1  O   UNL     1       0.959   9.435  22.805  0.00  0.00    +0.000 OA
ATOM      2  C   UNL     1       0.790   9.784  21.637  0.00  0.00    +0.000 A 
ATOM      3  C   UNL     1      -0.095  10.912  21.359  0.00  0.00    +0.000 A 
ATOM      4  C   UNL     1      -0.788  11.518  22.411  0.00  0.00    +0.000 A 
ATOM      5  C   UNL     1      -1.734  12.507  22.170  0.00  0.00    +0.000 A 
ATOM      6  C   UNL     1      -1.929  12.894  20.831  0.00  0.00    +0.000 A 
ATOM      7  C   UNL     1      -1.210  12.313  19.777  0.00  0.00    +0.000 A 
ATOM      8  C   UNL     1      -0.307  11.298  20.052  0.00  0.00    +0.000 A 
ATOM      9  N   UNL     1       0.357  10.637  19.021  0.00  0.00    +0.000 N 
ATOM     10  C   UNL     1       1.145   9.533  19.212  0.00  0.00    +0.000 A 
ATOM     11  S   UNL     1       1.748   8.797  17.830  0.00  0.00    +0.000 S 
ATOM     12  N   UNL     1       1.346   9.130  20.531  0.00  0.00    +0.000 N 
ATOM     13  H   UNL     1       0.197  10.918  18.060  0.00  0.00    +0.000 HD
ENDROOT
BRANCH   5  14
ATOM     14  N   UNL     1      -2.496  13.027  23.192  0.00  0.00    +0.000 N 
ATOM     15  C   UNL     1      -3.615  12.291  23.802  0.00  0.00    +0.000 C 
ATOM     16  C   UNL     1      -4.808  13.251  23.945  0.00  0.00    +0.000 C 
ATOM     17  O   UNL     1      -4.457  14.426  24.697  0.00  0.00    +0.000 OA
ATOM     18  C   UNL     1      -3.378  15.131  24.057  0.00  0.00    +0.000 C 
ATOM     19  C   UNL     1      -2.130  14.249  23.915  0.00  0.00    +0.000 C 
ENDBRANCH   5  14
BRANCH  12  20
ATOM     20  C   UNL     1       1.996   7.866  20.878  0.00  0.00    +0.000 C 
BRANCH  20  21
ATOM     21  C   UNL     1       1.027   6.716  20.620  0.00  0.00    +0.000 C 
BRANCH  21  22
ATOM     22  C   UNL     1       1.657   5.341  20.736  0.00  0.00    +0.000 C 
BRANCH  22  23
ATOM     23  N   UNL     1       1.580   4.369  19.626  0.00  0.00    +0.000 NA
ATOM     24  C   UNL     1       1.832   5.133  18.365  0.00  0.00    +0.000 C 
ATOM     25  C   UNL     1       3.229   5.782  18.370  0.00  0.00    +0.000 C 
ATOM     26  N   UNL     1       4.243   4.724  18.417  0.00  0.00    +0.000 N 
ATOM     27  C   UNL     1       4.094   3.709  19.474  0.00  0.00    +0.000 C 
ATOM     28  C   UNL     1       2.599   3.281  19.632  0.00  0.00    +0.000 C 
BRANCH  26  29
ATOM     29  C   UNL     1       5.163   4.671  17.389  0.00  0.00    +0.000 A 
ATOM     30  C   UNL     1       4.785   4.345  16.086  0.00  0.00    +0.000 A 
ATOM     31  C   UNL     1       5.753   4.097  15.096  0.00  0.00    +0.000 A 
ATOM     32  C   UNL     1       7.113   4.186  15.387  0.00  0.00    +0.000 A 
ATOM     33  C   UNL     1       7.512   4.581  16.654  0.00  0.00    +0.000 A 
ATOM     34  C   UNL     1       6.549   4.846  17.617  0.00  0.00    +0.000 A 
ATOM     35  F   UNL     1       6.992   5.284  18.808  0.00  0.00    +0.000 F 
ENDBRANCH  26  29
ENDBRANCH  22  23
ENDBRANCH  21  22
ENDBRANCH  20  21
ENDBRANCH  12  20
TORSDOF 6
ENDMDL
MODEL 8
REMARK VINA RESULT:      -7.4      4.478     11.622
REMARK  Name = 
REMARK  6 active torsions:
REMARK  status: ('A' for Active; 'I' for Inactive)
REMARK    1  A    between atoms: C_5  and  N_6
REMARK    2  A    between atoms: N_18  and  C_19
REMARK    3  A    between atoms: C_19  and  C_20
REMARK    4  A    between atoms: C_20  and  C_21
REMARK    5  A    between atoms: C_21  and  N_22
REMARK    6  A    between atoms: N_25  and  C_26
REMARK                            x       y       z     vdW  Elec       q    Type
REMARK                         _______ _______ _______ _____ _____    ______ ____
ROOT
ATOM      1  O   UNL     1       2.508   9.001  17.290  0.00  0.00    +0.000 OA
ATOM      2  C   UNL     1       2.238   8.453  18.358  0.00  0.00    +0.000 A 
ATOM      3  C   UNL     1       2.936   7.221  18.715  0.00  0.00    +0.000 A 
ATOM      4  C   UNL     1       3.834   6.652  17.808  0.00  0.00    +0.000 A 
ATOM      5  C   UNL     1       4.419   5.416  18.059  0.00  0.00    +0.000 A 
ATOM      6  C   UNL     1       4.097   4.792  19.278  0.00  0.00    +0.000 A 
ATOM      7  C   UNL     1       3.224   5.377  20.206  0.00  0.00    +0.000 A 
ATOM      8  C   UNL     1       2.625   6.590  19.901  0.00  0.00    +0.000 A 
ATOM      9  N   UNL     1       1.684   7.154  20.759  0.00  0.00    +0.000 N 
ATOM     10  C   UNL     1       0.950   8.268  20.450  0.00  0.00    +0.000 A 
ATOM     11  S   UNL     1      -0.231   8.716  21.556  0.00  0.00    +0.000 S 
ATOM     12  N   UNL     1       1.249   8.899  19.244  0.00  0.00    +0.000 N 
ATOM     13  H   UNL     1       1.453   6.686  21.629  0.00  0.00    +0.000 HD
ENDROOT
BRANCH   5  14
ATOM     14  N   UNL     1       5.217   4.803  17.120  0.00  0.00    +0.000 N 
ATOM     15  C   UNL     1       6.662   4.600  17.316  0.00  0.00    +0.000 C 
ATOM     16  C   UNL     1       7.388   4.997  16.020  0.00  0.00    +0.000 C 
ATOM     17  O   UNL     1       6.887   4.268  14.886  0.00  0.00    +0.000 OA
ATOM     18  C   UNL     1       5.479   4.511  14.712  0.00  0.00    +0.000 C 
ATOM     19  C   UNL     1       4.675   4.099  15.953  0.00  0.00    +0.000 C 
ENDBRANCH   5  14
BRANCH  12  20
ATOM     20  C   UNL     1       0.424   9.974  18.691  0.00  0.00    +0.000 C 
BRANCH  20  21
ATOM     21  C   UNL     1       0.731  11.272  19.429  0.00  0.00    +0.000 C 
BRANCH  21  22
ATOM     22  C   UNL     1      -0.489  11.937  20.039  0.00  0.00    +0.000 C 
BRANCH  22  23
ATOM     23  N   UNL     1      -0.352  12.951  21.105  0.00  0.00    +0.000 NA
ATOM     24  C   UNL     1      -1.219  14.107  20.716  0.00  0.00    +0.000 C 
ATOM     25  C   UNL     1      -2.697  13.689  20.604  0.00  0.00    +0.000 C 
ATOM     26  N   UNL     1      -3.167  13.252  21.922  0.00  0.00    +0.000 N 
ATOM     27  C   UNL     1      -2.350  12.240  22.616  0.00  0.00    +0.000 C 
ATOM     28  C   UNL     1      -0.827  12.550  22.460  0.00  0.00    +0.000 C 
BRANCH  26  29
ATOM     29  C   UNL     1      -4.241  13.922  22.475  0.00  0.00    +0.000 A 
ATOM     30  C   UNL     1      -4.074  15.116  23.178  0.00  0.00    +0.000 A 
ATOM     31  C   UNL     1      -5.139  15.678  23.905  0.00  0.00    +0.000 A 
ATOM     32  C   UNL     1      -6.391  15.066  23.929  0.00  0.00    +0.000 A 
ATOM     33  C   UNL     1      -6.601  13.920  23.178  0.00  0.00    +0.000 A 
ATOM     34  C   UNL     1      -5.550  13.386  22.446  0.00  0.00    +0.000 A 
ATOM     35  F   UNL     1      -5.828  12.310  21.689  0.00  0.00    +0.000 F 
ENDBRANCH  26  29
ENDBRANCH  22  23
ENDBRANCH  21  22
ENDBRANCH  20  21
ENDBRANCH  12  20
TORSDOF 6
ENDMDL
MODEL 9
REMARK VINA RESULT:      -7.4      4.419     11.439
REMARK  Name = 
REMARK  6 active torsions:
REMARK  status: ('A' for Active; 'I' for Inactive)
REMARK    1  A    between atoms: C_5  and  N_6
REMARK    2  A    between atoms: N_18  and  C_19
REMARK    3  A    between atoms: C_19  and  C_20
REMARK    4  A    between atoms: C_20  and  C_21
REMARK    5  A    between atoms: C_21  and  N_22
REMARK    6  A    between atoms: N_25  and  C_26
REMARK                            x       y       z     vdW  Elec       q    Type
REMARK                         _______ _______ _______ _____ _____    ______ ____
ROOT
ATOM      1  O   UNL     1       2.163   9.651  17.584  0.00  0.00    +0.000 OA
ATOM      2  C   UNL     1       1.948   8.993  18.601  0.00  0.00    +0.000 A 
ATOM      3  C   UNL     1       2.594   7.692  18.750  0.00  0.00    +0.000 A 
ATOM      4  C   UNL     1       3.376   7.189  17.706  0.00  0.00    +0.000 A 
ATOM      5  C   UNL     1       3.900   5.903  17.759  0.00  0.00    +0.000 A 
ATOM      6  C   UNL     1       3.641   5.154  18.921  0.00  0.00    +0.000 A 
ATOM      7  C   UNL     1       2.886   5.668  19.985  0.00  0.00    +0.000 A 
ATOM      8  C   UNL     1       2.343   6.939  19.877  0.00  0.00    +0.000 A 
ATOM      9  N   UNL     1       1.513   7.444  20.875  0.00  0.00    +0.000 N 
ATOM     10  C   UNL     1       0.827   8.625  20.765  0.00  0.00    +0.000 A 
ATOM     11  S   UNL     1      -0.227   8.997  22.016  0.00  0.00    +0.000 S 
ATOM     12  N   UNL     1       1.065   9.381  19.618  0.00  0.00    +0.000 N 
ATOM     13  H   UNL     1       1.325   6.888  21.703  0.00  0.00    +0.000 HD
ENDROOT
BRANCH   5  14
ATOM     14  N   UNL     1       4.578   5.366  16.688  0.00  0.00    +0.000 N 
ATOM     15  C   UNL     1       4.448   3.954  16.293  0.00  0.00    +0.000 C 
ATOM     16  C   UNL     1       5.854   3.398  16.010  0.00  0.00    +0.000 C 
ATOM     17  O   UNL     1       6.543   4.178  15.017  0.00  0.00    +0.000 OA
ATOM     18  C   UNL     1       6.672   5.545  15.449  0.00  0.00    +0.000 C 
ATOM     19  C   UNL     1       5.303   6.187  15.713  0.00  0.00    +0.000 C 
ENDBRANCH   5  14
BRANCH  12  20
ATOM     20  C   UNL     1       0.268  10.556  19.269  0.00  0.00    +0.000 C 
BRANCH  20  21
ATOM     21  C   UNL     1       0.862  11.786  19.947  0.00  0.00    +0.000 C 
BRANCH  21  22
ATOM     22  C   UNL     1       0.170  13.086  19.583  0.00  0.00    +0.000 C 
BRANCH  22  23
ATOM     23  N   UNL     1       0.096  14.206  20.544  0.00  0.00    +0.000 NA
ATOM     24  C   UNL     1      -1.201  14.908  20.290  0.00  0.00    +0.000 C 
ATOM     25  C   UNL     1      -2.402  13.970  20.517  0.00  0.00    +0.000 C 
ATOM     26  N   UNL     1      -2.426  13.563  21.924  0.00  0.00    +0.000 N 
ATOM     27  C   UNL     1      -1.175  13.014  22.478  0.00  0.00    +0.000 C 
ATOM     28  C   UNL     1       0.060  13.835  21.987  0.00  0.00    +0.000 C 
BRANCH  26  29
ATOM     29  C   UNL     1      -3.558  13.860  22.658  0.00  0.00    +0.000 A 
ATOM     30  C   UNL     1      -4.576  12.924  22.841  0.00  0.00    +0.000 A 
ATOM     31  C   UNL     1      -5.805  13.300  23.413  0.00  0.00    +0.000 A 
ATOM     32  C   UNL     1      -6.030  14.611  23.826  0.00  0.00    +0.000 A 
ATOM     33  C   UNL     1      -5.008  15.541  23.724  0.00  0.00    +0.000 A 
ATOM     34  C   UNL     1      -3.792  15.155  23.179  0.00  0.00    +0.000 A 
ATOM     35  F   UNL     1      -2.817  16.081  23.161  0.00  0.00    +0.000 F 
ENDBRANCH  26  29
ENDBRANCH  22  23
ENDBRANCH  21  22
ENDBRANCH  20  21
ENDBRANCH  12  20
TORSDOF 6
ENDMDL
