MODEL 1
REMARK VINA RESULT:      -8.5      0.000      0.000
REMARK  Name = 
REMARK  7 active torsions:
REMARK  status: ('A' for Active; 'I' for Inactive)
REMARK    1  A    between atoms: C_1  and  C_2
REMARK    2  A    between atoms: C_6  and  C_7
REMARK    3  A    between atoms: C_7  and  N_8
REMARK    4  A    between atoms: N_8  and  C_9
REMARK    5  A    between atoms: C_12  and  C_13
REMARK    6  A    between atoms: C_13  and  C_14
REMARK    7  A    between atoms: C_18  and  C_19
REMARK                            x       y       z     vdW  Elec       q    Type
REMARK                         _______ _______ _______ _____ _____    ______ ____
ROOT
ATOM      1  C   UNL     1       8.170   7.747  18.403  0.00  0.00    +0.000 A 
ATOM      2  C   UNL     1       7.410   7.858  17.235  0.00  0.00    +0.000 A 
ATOM      3  C   UNL     1       6.695   6.768  16.734  0.00  0.00    +0.000 A 
ATOM      4  C   UNL     1       6.756   5.518  17.365  0.00  0.00    +0.000 A 
ATOM      5  C   UNL     1       7.580   5.383  18.489  0.00  0.00    +0.000 A 
ATOM      6  C   UNL     1       8.292   6.479  18.988  0.00  0.00    +0.000 A 
ENDROOT
BRANCH   1   7
ATOM      7  N   UNL     1       8.882   8.816  18.973  0.00  0.00    +0.000 N 
ATOM      8  H   UNL     1       9.865   8.557  19.065  0.00  0.00    +0.000 HD
BRANCH   7   9
ATOM      9  C   UNL     1       8.775  10.102  18.271  0.00  0.00    +0.000 C 
BRANCH   9  15
ATOM     10  C   UNL     1       9.639  13.358  21.800  0.00  0.00    +0.000 C 
ATOM     11  C   UNL     1      10.134  12.671  20.565  0.00  0.00    +0.000 A 
ATOM     12  C   UNL     1      11.410  12.919  20.070  0.00  0.00    +0.000 A 
ATOM     13  C   UNL     1      11.829  12.248  18.926  0.00  0.00    +0.000 A 
ATOM     14  C   UNL     1      10.967  11.346  18.313  0.00  0.00    +0.000 A 
ATOM     15  C   UNL     1       9.703  11.142  18.863  0.00  0.00    +0.000 A 
ATOM     16  N   UNL     1       9.282  11.796  19.978  0.00  0.00    +0.000 NA
ENDBRANCH   9  15
ENDBRANCH   7   9
ENDBRANCH   1   7
BRANCH   4  17
ATOM     17  C   UNL     1       5.874   4.377  16.906  0.00  0.00    +0.000 C 
BRANCH  17  18
ATOM     18  C   UNL     1       4.727   4.069  17.808  0.00  0.00    +0.000 A 
ATOM     19  N   UNL     1       4.769   3.818  19.104  0.00  0.00    +0.000 NA
ATOM     20  C   UNL     1       3.482   3.495  19.407  0.00  0.00    +0.000 A 
ATOM     21  N   UNL     1       3.017   3.132  20.623  0.00  0.00    +0.000 NA
ATOM     22  C   UNL     1       1.701   2.827  20.651  0.00  0.00    +0.000 A 
ATOM     23  C   UNL     1       1.157   2.407  21.987  0.00  0.00    +0.000 C 
ATOM     24  C   UNL     1       0.848   2.874  19.536  0.00  0.00    +0.000 A 
ATOM     25  C   UNL     1       1.338   3.258  18.283  0.00  0.00    +0.000 A 
ATOM     26  C   UNL     1       2.690   3.560  18.273  0.00  0.00    +0.000 A 
ATOM     27  O   UNL     1       3.486   3.937  17.228  0.00  0.00    +0.000 OA
ENDBRANCH  17  18
ENDBRANCH   4  17
TORSDOF 5
ENDMDL
MODEL 2
REMARK VINA RESULT:      -8.4      1.197      1.493
REMARK  Name = 
REMARK  7 active torsions:
REMARK  status: ('A' for Active; 'I' for Inactive)
REMARK    1  A    between atoms: C_1  and  C_2
REMARK    2  A    between atoms: C_6  and  C_7
REMARK    3  A    between atoms: C_7  and  N_8
REMARK    4  A    between atoms: N_8  and  C_9
REMARK    5  A    between atoms: C_12  and  C_13
REMARK    6  A    between atoms: C_13  and  C_14
REMARK    7  A    between atoms: C_18  and  C_19
REMARK                            x       y       z     vdW  Elec       q    Type
REMARK                         _______ _______ _______ _____ _____    ______ ____
ROOT
ATOM      1  C   UNL     1       8.388   8.464  18.539  0.00  0.00    +0.000 A 
ATOM      2  C   UNL     1       7.683   8.383  17.335  0.00  0.00    +0.000 A 
ATOM      3  C   UNL     1       7.105   7.182  16.916  0.00  0.00    +0.000 A 
ATOM      4  C   UNL     1       7.255   6.012  17.673  0.00  0.00    +0.000 A 
ATOM      5  C   UNL     1       8.028   6.071  18.840  0.00  0.00    +0.000 A 
ATOM      6  C   UNL     1       8.602   7.278  19.255  0.00  0.00    +0.000 A 
ENDROOT
BRANCH   1   7
ATOM      7  N   UNL     1       8.960   9.651  19.027  0.00  0.00    +0.000 N 
ATOM      8  H   UNL     1       9.854   9.436  19.472  0.00  0.00    +0.000 HD
BRANCH   7   9
ATOM      9  C   UNL     1       9.145  10.724  18.042  0.00  0.00    +0.000 C 
BRANCH   9  15
ATOM     10  C   UNL     1      11.491  14.952  17.386  0.00  0.00    +0.000 C 
ATOM     11  C   UNL     1      11.421  13.644  18.114  0.00  0.00    +0.000 A 
ATOM     12  C   UNL     1      12.331  13.333  19.118  0.00  0.00    +0.000 A 
ATOM     13  C   UNL     1      12.218  12.112  19.772  0.00  0.00    +0.000 A 
ATOM     14  C   UNL     1      11.198  11.239  19.411  0.00  0.00    +0.000 A 
ATOM     15  C   UNL     1      10.318  11.614  18.398  0.00  0.00    +0.000 A 
ATOM     16  N   UNL     1      10.422  12.803  17.748  0.00  0.00    +0.000 NA
ENDBRANCH   9  15
ENDBRANCH   7   9
ENDBRANCH   1   7
BRANCH   4  17
ATOM     17  C   UNL     1       6.515   4.748  17.296  0.00  0.00    +0.000 C 
BRANCH  17  18
ATOM     18  C   UNL     1       5.298   4.466  18.110  0.00  0.00    +0.000 A 
ATOM     19  N   UNL     1       5.232   3.811  19.255  0.00  0.00    +0.000 NA
ATOM     20  C   UNL     1       3.895   3.743  19.505  0.00  0.00    +0.000 A 
ATOM     21  N   UNL     1       3.314   3.139  20.565  0.00  0.00    +0.000 NA
ATOM     22  C   UNL     1       1.963   3.180  20.562  0.00  0.00    +0.000 A 
ATOM     23  C   UNL     1       1.287   2.507  21.722  0.00  0.00    +0.000 C 
ATOM     24  C   UNL     1       1.188   3.795  19.565  0.00  0.00    +0.000 A 
ATOM     25  C   UNL     1       1.800   4.423  18.475  0.00  0.00    +0.000 A 
ATOM     26  C   UNL     1       3.184   4.364  18.493  0.00  0.00    +0.000 A 
ATOM     27  O   UNL     1       4.083   4.842  17.583  0.00  0.00    +0.000 OA
ENDBRANCH  17  18
ENDBRANCH   4  17
TORSDOF 5
ENDMDL
MODEL 3
REMARK VINA RESULT:      -8.2      6.962      9.001
REMARK  Name = 
REMARK  7 active torsions:
REMARK  status: ('A' for Active; 'I' for Inactive)
REMARK    1  A    between atoms: C_1  and  C_2
REMARK    2  A    between atoms: C_6  and  C_7
REMARK    3  A    between atoms: C_7  and  N_8
REMARK    4  A    between atoms: N_8  and  C_9
REMARK    5  A    between atoms: C_12  and  C_13
REMARK    6  A    between atoms: C_13  and  C_14
REMARK    7  A    between atoms: C_18  and  C_19
REMARK                            x       y       z     vdW  Elec       q    Type
REMARK                         _______ _______ _______ _____ _____    ______ ____
ROOT
ATOM      1  C   UNL     1       2.275   7.385  19.614  0.00  0.00    +0.000 A 
ATOM      2  C   UNL     1       2.366   7.944  18.335  0.00  0.00    +0.000 A 
ATOM      3  C   UNL     1       1.817   9.197  18.055  0.00  0.00    +0.000 A 
ATOM      4  C   UNL     1       1.120   9.912  19.039  0.00  0.00    +0.000 A 
ATOM      5  C   UNL     1       0.959   9.319  20.299  0.00  0.00    +0.000 A 
ATOM      6  C   UNL     1       1.513   8.065  20.574  0.00  0.00    +0.000 A 
ENDROOT
BRANCH   1   7
ATOM      7  N   UNL     1       2.838   6.146  19.963  0.00  0.00    +0.000 N 
ATOM      8  H   UNL     1       2.370   5.786  20.797  0.00  0.00    +0.000 HD
BRANCH   7   9
ATOM      9  C   UNL     1       2.828   5.120  18.912  0.00  0.00    +0.000 C 
BRANCH   9  15
ATOM     10  C   UNL     1       7.662   5.719  19.194  0.00  0.00    +0.000 C 
ATOM     11  C   UNL     1       6.492   5.238  18.392  0.00  0.00    +0.000 A 
ATOM     12  C   UNL     1       6.675   4.621  17.159  0.00  0.00    +0.000 A 
ATOM     13  C   UNL     1       5.558   4.181  16.457  0.00  0.00    +0.000 A 
ATOM     14  C   UNL     1       4.294   4.363  17.006  0.00  0.00    +0.000 A 
ATOM     15  C   UNL     1       4.183   4.987  18.247  0.00  0.00    +0.000 A 
ATOM     16  N   UNL     1       5.267   5.425  18.940  0.00  0.00    +0.000 NA
ENDBRANCH   9  15
ENDBRANCH   7   9
ENDBRANCH   1   7
BRANCH   4  17
ATOM     17  C   UNL     1       0.648  11.325  18.780  0.00  0.00    +0.000 C 
BRANCH  17  18
ATOM     18  C   UNL     1      -0.832  11.489  18.703  0.00  0.00    +0.000 A 
ATOM     19  N   UNL     1      -1.607  12.175  19.523  0.00  0.00    +0.000 NA
ATOM     20  C   UNL     1      -2.863  11.905  19.072  0.00  0.00    +0.000 A 
ATOM     21  N   UNL     1      -4.016  12.364  19.607  0.00  0.00    +0.000 NA
ATOM     22  C   UNL     1      -5.135  11.918  18.993  0.00  0.00    +0.000 A 
ATOM     23  C   UNL     1      -6.434  12.401  19.572  0.00  0.00    +0.000 C 
ATOM     24  C   UNL     1      -5.144  11.055  17.885  0.00  0.00    +0.000 A 
ATOM     25  C   UNL     1      -3.945  10.591  17.335  0.00  0.00    +0.000 A 
ATOM     26  C   UNL     1      -2.811  11.053  17.982  0.00  0.00    +0.000 A 
ATOM     27  O   UNL     1      -1.496  10.779  17.729  0.00  0.00    +0.000 OA
ENDBRANCH  17  18
ENDBRANCH   4  17
TORSDOF 5
ENDMDL
MODEL 4
REMARK VINA RESULT:      -8.2      6.316      9.272
REMARK  Name = 
REMARK  7 active torsions:
REMARK  status: ('A' for Active; 'I' for Inactive)
REMARK    1  A    between atoms: C_1  and  C_2
REMARK    2  A    between atoms: C_6  and  C_7
REMARK    3  A    between atoms: C_7  and  N_8
REMARK    4  A    between atoms: N_8  and  C_9
REMARK    5  A    between atoms: C_12  and  C_13
REMARK    6  A    between atoms: C_13  and  C_14
REMARK    7  A    between atoms: C_18  and  C_19
REMARK                            x       y       z     vdW  Elec       q    Type
REMARK                         _______ _______ _______ _____ _____    ______ ____
ROOT
ATOM      1  C   UNL     1       0.791   9.987  18.931  0.00  0.00    +0.000 A 
ATOM      2  C   UNL     1       0.761   9.403  20.200  0.00  0.00    +0.000 A 
ATOM      3  C   UNL     1       1.430   8.204  20.458  0.00  0.00    +0.000 A 
ATOM      4  C   UNL     1       2.114   7.530  19.437  0.00  0.00    +0.000 A 
ATOM      5  C   UNL     1       2.078   8.071  18.146  0.00  0.00    +0.000 A 
ATOM      6  C   UNL     1       1.409   9.274  17.894  0.00  0.00    +0.000 A 
ENDROOT
BRANCH   1   7
ATOM      7  N   UNL     1       0.167  11.208  18.621  0.00  0.00    +0.000 N 
ATOM      8  H   UNL     1       0.031  11.271  17.611  0.00  0.00    +0.000 HD
BRANCH   7   9
ATOM      9  C   UNL     1      -1.105  11.468  19.307  0.00  0.00    +0.000 C 
BRANCH   9  15
ATOM     10  C   UNL     1      -2.834  10.194  14.925  0.00  0.00    +0.000 C 
ATOM     11  C   UNL     1      -3.115  10.788  16.272  0.00  0.00    +0.000 A 
ATOM     12  C   UNL     1      -4.401  11.178  16.628  0.00  0.00    +0.000 A 
ATOM     13  C   UNL     1      -4.613  11.713  17.894  0.00  0.00    +0.000 A 
ATOM     14  C   UNL     1      -3.540  11.839  18.768  0.00  0.00    +0.000 A 
ATOM     15  C   UNL     1      -2.277  11.426  18.347  0.00  0.00    +0.000 A 
ATOM     16  N   UNL     1      -2.057  10.905  17.112  0.00  0.00    +0.000 NA
ENDBRANCH   9  15
ENDBRANCH   7   9
ENDBRANCH   1   7
BRANCH   4  17
ATOM     17  C   UNL     1       2.953   6.310  19.745  0.00  0.00    +0.000 C 
BRANCH  17  18
ATOM     18  C   UNL     1       3.875   5.890  18.650  0.00  0.00    +0.000 A 
ATOM     19  N   UNL     1       3.557   5.591  17.403  0.00  0.00    +0.000 NA
ATOM     20  C   UNL     1       4.736   5.172  16.867  0.00  0.00    +0.000 A 
ATOM     21  N   UNL     1       4.924   4.731  15.604  0.00  0.00    +0.000 NA
ATOM     22  C   UNL     1       6.187   4.337  15.330  0.00  0.00    +0.000 A 
ATOM     23  C   UNL     1       6.425   3.829  13.936  0.00  0.00    +0.000 C 
ATOM     24  C   UNL     1       7.249   4.371  16.249  0.00  0.00    +0.000 A 
ATOM     25  C   UNL     1       7.045   4.836  17.552  0.00  0.00    +0.000 A 
ATOM     26  C   UNL     1       5.744   5.228  17.816  0.00  0.00    +0.000 A 
ATOM     27  O   UNL     1       5.198   5.698  18.977  0.00  0.00    +0.000 OA
ENDBRANCH  17  18
ENDBRANCH   4  17
TORSDOF 5
ENDMDL
MODEL 5
REMARK VINA RESULT:      -8.2      7.509     10.453
REMARK  Name = 
REMARK  7 active torsions:
REMARK  status: ('A' for Active; 'I' for Inactive)
REMARK    1  A    between atoms: C_1  and  C_2
REMARK    2  A    between atoms: C_6  and  C_7
REMARK    3  A    between atoms: C_7  and  N_8
REMARK    4  A    between atoms: N_8  and  C_9
REMARK    5  A    between atoms: C_12  and  C_13
REMARK    6  A    between atoms: C_13  and  C_14
REMARK    7  A    between atoms: C_18  and  C_19
REMARK                            x       y       z     vdW  Elec       q    Type
REMARK                         _______ _______ _______ _____ _____    ______ ____
ROOT
ATOM      1  C   UNL     1       1.969   7.750  19.934  0.00  0.00    +0.000 A 
ATOM      2  C   UNL     1       2.045   8.193  18.611  0.00  0.00    +0.000 A 
ATOM      3  C   UNL     1       1.425   9.379  18.211  0.00  0.00    +0.000 A 
ATOM      4  C   UNL     1       0.671  10.136  19.118  0.00  0.00    +0.000 A 
ATOM      5  C   UNL     1       0.527   9.654  20.425  0.00  0.00    +0.000 A 
ATOM      6  C   UNL     1       1.152   8.466  20.820  0.00  0.00    +0.000 A 
ENDROOT
BRANCH   1   7
ATOM      7  N   UNL     1       2.600   6.585  20.402  0.00  0.00    +0.000 N 
ATOM      8  H   UNL     1       3.135   6.806  21.244  0.00  0.00    +0.000 HD
BRANCH   7   9
ATOM      9  C   UNL     1       1.718   5.441  20.665  0.00  0.00    +0.000 C 
BRANCH   9  15
ATOM     10  C   UNL     1       4.233   3.676  16.874  0.00  0.00    +0.000 C 
ATOM     11  C   UNL     1       3.094   3.496  17.831  0.00  0.00    +0.000 A 
ATOM     12  C   UNL     1       2.307   2.349  17.800  0.00  0.00    +0.000 A 
ATOM     13  C   UNL     1       1.269   2.223  18.715  0.00  0.00    +0.000 A 
ATOM     14  C   UNL     1       1.049   3.238  19.638  0.00  0.00    +0.000 A 
ATOM     15  C   UNL     1       1.876   4.359  19.617  0.00  0.00    +0.000 A 
ATOM     16  N   UNL     1       2.891   4.496  18.723  0.00  0.00    +0.000 NA
ENDBRANCH   9  15
ENDBRANCH   7   9
ENDBRANCH   1   7
BRANCH   4  17
ATOM     17  C   UNL     1       0.118  11.488  18.724  0.00  0.00    +0.000 C 
BRANCH  17  18
ATOM     18  C   UNL     1      -1.361  11.624  18.855  0.00  0.00    +0.000 A 
ATOM     19  N   UNL     1      -2.281  11.245  17.986  0.00  0.00    +0.000 NA
ATOM     20  C   UNL     1      -3.442  11.696  18.536  0.00  0.00    +0.000 A 
ATOM     21  N   UNL     1      -4.677  11.572  18.002  0.00  0.00    +0.000 NA
ATOM     22  C   UNL     1      -5.663  12.140  18.732  0.00  0.00    +0.000 A 
ATOM     23  C   UNL     1      -7.046  12.029  18.158  0.00  0.00    +0.000 C 
ATOM     24  C   UNL     1      -5.466  12.807  19.953  0.00  0.00    +0.000 A 
ATOM     25  C   UNL     1      -4.184  12.924  20.499  0.00  0.00    +0.000 A 
ATOM     26  C   UNL     1      -3.187  12.343  19.734  0.00  0.00    +0.000 A 
ATOM     27  O   UNL     1      -1.840  12.298  19.954  0.00  0.00    +0.000 OA
ENDBRANCH  17  18
ENDBRANCH   4  17
TORSDOF 5
ENDMDL
MODEL 6
REMARK VINA RESULT:      -8.2      6.321      9.143
REMARK  Name = 
REMARK  7 active torsions:
REMARK  status: ('A' for Active; 'I' for Inactive)
REMARK    1  A    between atoms: C_1  and  C_2
REMARK    2  A    between atoms: C_6  and  C_7
REMARK    3  A    between atoms: C_7  and  N_8
REMARK    4  A    between atoms: N_8  and  C_9
REMARK    5  A    between atoms: C_12  and  C_13
REMARK    6  A    between atoms: C_13  and  C_14
REMARK    7  A    between atoms: C_18  and  C_19
REMARK                            x       y       z     vdW  Elec       q    Type
REMARK                         _______ _______ _______ _____ _____    ______ ____
ROOT
ATOM      1  C   UNL     1       0.607   9.952  19.872  0.00  0.00    +0.000 A 
ATOM      2  C   UNL     1       1.295   9.461  18.759  0.00  0.00    +0.000 A 
ATOM      3  C   UNL     1       1.924   8.214  18.793  0.00  0.00    +0.000 A 
ATOM      4  C   UNL     1       1.918   7.439  19.960  0.00  0.00    +0.000 A 
ATOM      5  C   UNL     1       1.296   7.963  21.101  0.00  0.00    +0.000 A 
ATOM      6  C   UNL     1       0.667   9.212  21.060  0.00  0.00    +0.000 A 
ENDROOT
BRANCH   1   7
ATOM      7  N   UNL     1      -0.073  11.182  19.885  0.00  0.00    +0.000 N 
ATOM      8  H   UNL     1       0.415  11.831  20.505  0.00  0.00    +0.000 HD
BRANCH   7   9
ATOM      9  C   UNL     1      -0.279  11.813  18.576  0.00  0.00    +0.000 C 
BRANCH   9  15
ATOM     10  C   UNL     1      -3.332  10.402  15.041  0.00  0.00    +0.000 C 
ATOM     11  C   UNL     1      -3.167  10.949  16.426  0.00  0.00    +0.000 A 
ATOM     12  C   UNL     1      -4.272  11.192  17.236  0.00  0.00    +0.000 A 
ATOM     13  C   UNL     1      -4.066  11.689  18.518  0.00  0.00    +0.000 A 
ATOM     14  C   UNL     1      -2.769  11.922  18.957  0.00  0.00    +0.000 A 
ATOM     15  C   UNL     1      -1.707  11.653  18.095  0.00  0.00    +0.000 A 
ATOM     16  N   UNL     1      -1.896  11.172  16.839  0.00  0.00    +0.000 NA
ENDBRANCH   9  15
ENDBRANCH   7   9
ENDBRANCH   1   7
BRANCH   4  17
ATOM     17  C   UNL     1       2.474   6.032  19.956  0.00  0.00    +0.000 C 
BRANCH  17  18
ATOM     18  C   UNL     1       3.556   5.787  18.960  0.00  0.00    +0.000 A 
ATOM     19  N   UNL     1       3.426   5.641  17.653  0.00  0.00    +0.000 NA
ATOM     20  C   UNL     1       4.686   5.332  17.242  0.00  0.00    +0.000 A 
ATOM     21  N   UNL     1       5.065   5.064  15.973  0.00  0.00    +0.000 NA
ATOM     22  C   UNL     1       6.373   4.750  15.833  0.00  0.00    +0.000 A 
ATOM     23  C   UNL     1       6.822   4.434  14.436  0.00  0.00    +0.000 C 
ATOM     24  C   UNL     1       7.297   4.701  16.890  0.00  0.00    +0.000 A 
ATOM     25  C   UNL     1       6.895   4.987  18.199  0.00  0.00    +0.000 A 
ATOM     26  C   UNL     1       5.551   5.300  18.322  0.00  0.00    +0.000 A 
ATOM     27  O   UNL     1       4.830   5.598  19.444  0.00  0.00    +0.000 OA
ENDBRANCH  17  18
ENDBRANCH   4  17
TORSDOF 5
ENDMDL
MODEL 7
REMARK VINA RESULT:      -8.1      7.649     10.545
REMARK  Name = 
REMARK  7 active torsions:
REMARK  status: ('A' for Active; 'I' for Inactive)
REMARK    1  A    between atoms: C_1  and  C_2
REMARK    2  A    between atoms: C_6  and  C_7
REMARK    3  A    between atoms: C_7  and  N_8
REMARK    4  A    between atoms: N_8  and  C_9
REMARK    5  A    between atoms: C_12  and  C_13
REMARK    6  A    between atoms: C_13  and  C_14
REMARK    7  A    between atoms: C_18  and  C_19
REMARK                            x       y       z     vdW  Elec       q    Type
REMARK                         _______ _______ _______ _____ _____    ______ ____
ROOT
ATOM      1  C   UNL     1       1.542   8.481  20.051  0.00  0.00    +0.000 A 
ATOM      2  C   UNL     1       0.821   9.298  20.927  0.00  0.00    +0.000 A 
ATOM      3  C   UNL     1       0.275  10.510  20.498  0.00  0.00    +0.000 A 
ATOM      4  C   UNL     1       0.471  10.961  19.186  0.00  0.00    +0.000 A 
ATOM      5  C   UNL     1       1.260  10.183  18.329  0.00  0.00    +0.000 A 
ATOM      6  C   UNL     1       1.803   8.969  18.764  0.00  0.00    +0.000 A 
ENDROOT
BRANCH   1   7
ATOM      7  N   UNL     1       2.085   7.237  20.417  0.00  0.00    +0.000 N 
ATOM      8  H   UNL     1       1.404   6.725  20.980  0.00  0.00    +0.000 HD
BRANCH   7   9
ATOM      9  C   UNL     1       2.545   6.391  19.309  0.00  0.00    +0.000 C 
BRANCH   9  15
ATOM     10  C   UNL     1       3.324   1.715  18.152  0.00  0.00    +0.000 C 
ATOM     11  C   UNL     1       2.596   2.700  19.014  0.00  0.00    +0.000 A 
ATOM     12  C   UNL     1       1.738   2.272  20.022  0.00  0.00    +0.000 A 
ATOM     13  C   UNL     1       1.094   3.225  20.803  0.00  0.00    +0.000 A 
ATOM     14  C   UNL     1       1.327   4.574  20.562  0.00  0.00    +0.000 A 
ATOM     15  C   UNL     1       2.202   4.933  19.538  0.00  0.00    +0.000 A 
ATOM     16  N   UNL     1       2.833   4.011  18.765  0.00  0.00    +0.000 NA
ENDBRANCH   9  15
ENDBRANCH   7   9
ENDBRANCH   1   7
BRANCH   4  17
ATOM     17  C   UNL     1      -0.235  12.200  18.680  0.00  0.00    +0.000 C 
BRANCH  17  18
ATOM     18  C   UNL     1      -1.724  12.126  18.702  0.00  0.00    +0.000 A 
ATOM     19  N   UNL     1      -2.531  12.479  19.687  0.00  0.00    +0.000 NA
ATOM     20  C   UNL     1      -3.761  12.107  19.238  0.00  0.00    +0.000 A 
ATOM     21  N   UNL     1      -4.926  12.240  19.909  0.00  0.00    +0.000 NA
ATOM     22  C   UNL     1      -6.007  11.757  19.256  0.00  0.00    +0.000 A 
ATOM     23  C   UNL     1      -7.316  11.879  19.981  0.00  0.00    +0.000 C 
ATOM     24  C   UNL     1      -5.968  11.164  17.983  0.00  0.00    +0.000 A 
ATOM     25  C   UNL     1      -4.758  11.038  17.295  0.00  0.00    +0.000 A 
ATOM     26  C   UNL     1      -3.662  11.532  17.982  0.00  0.00    +0.000 A 
ATOM     27  O   UNL     1      -2.344  11.543  17.621  0.00  0.00    +0.000 OA
ENDBRANCH  17  18
ENDBRANCH   4  17
TORSDOF 5
ENDMDL
MODEL 8
REMARK VINA RESULT:      -8.1      7.683     10.533
REMARK  Name = 
REMARK  7 active torsions:
REMARK  status: ('A' for Active; 'I' for Inactive)
REMARK    1  A    between atoms: C_1  and  C_2
REMARK    2  A    between atoms: C_6  and  C_7
REMARK    3  A    between atoms: C_7  and  N_8
REMARK    4  A    between atoms: N_8  and  C_9
REMARK    5  A    between atoms: C_12  and  C_13
REMARK    6  A    between atoms: C_13  and  C_14
REMARK    7  A    between atoms: C_18  and  C_19
REMARK                            x       y       z     vdW  Elec       q    Type
REMARK                         _______ _______ _______ _____ _____    ______ ____
ROOT
ATOM      1  C   UNL     1       1.491   8.528  20.044  0.00  0.00    +0.000 A 
ATOM      2  C   UNL     1       0.862   9.367  20.969  0.00  0.00    +0.000 A 
ATOM      3  C   UNL     1       0.312  10.589  20.575  0.00  0.00    +0.000 A 
ATOM      4  C   UNL     1       0.413  11.028  19.248  0.00  0.00    +0.000 A 
ATOM      5  C   UNL     1       1.112  10.226  18.336  0.00  0.00    +0.000 A 
ATOM      6  C   UNL     1       1.660   9.002  18.736  0.00  0.00    +0.000 A 
ENDROOT
BRANCH   1   7
ATOM      7  N   UNL     1       2.032   7.273  20.375  0.00  0.00    +0.000 N 
ATOM      8  H   UNL     1       1.302   6.690  20.789  0.00  0.00    +0.000 HD
BRANCH   7   9
ATOM      9  C   UNL     1       2.679   6.547  19.275  0.00  0.00    +0.000 C 
BRANCH   9  15
ATOM     10  C   UNL     1       1.459   2.544  21.785  0.00  0.00    +0.000 C 
ATOM     11  C   UNL     1       1.657   3.186  20.446  0.00  0.00    +0.000 A 
ATOM     12  C   UNL     1       1.383   2.492  19.272  0.00  0.00    +0.000 A 
ATOM     13  C   UNL     1       1.572   3.134  18.054  0.00  0.00    +0.000 A 
ATOM     14  C   UNL     1       2.021   4.450  18.041  0.00  0.00    +0.000 A 
ATOM     15  C   UNL     1       2.274   5.087  19.254  0.00  0.00    +0.000 A 
ATOM     16  N   UNL     1       2.097   4.468  20.451  0.00  0.00    +0.000 NA
ENDBRANCH   9  15
ENDBRANCH   7   9
ENDBRANCH   1   7
BRANCH   4  17
ATOM     17  C   UNL     1      -0.302  12.280  18.790  0.00  0.00    +0.000 C 
BRANCH  17  18
ATOM     18  C   UNL     1      -1.790  12.188  18.789  0.00  0.00    +0.000 A 
ATOM     19  N   UNL     1      -2.615  12.503  19.772  0.00  0.00    +0.000 NA
ATOM     20  C   UNL     1      -3.834  12.129  19.296  0.00  0.00    +0.000 A 
ATOM     21  N   UNL     1      -5.010  12.229  19.954  0.00  0.00    +0.000 NA
ATOM     22  C   UNL     1      -6.076  11.751  19.273  0.00  0.00    +0.000 A 
ATOM     23  C   UNL     1      -7.396  11.837  19.983  0.00  0.00    +0.000 C 
ATOM     24  C   UNL     1      -6.012  11.196  17.984  0.00  0.00    +0.000 A 
ATOM     25  C   UNL     1      -4.791  11.103  17.310  0.00  0.00    +0.000 A 
ATOM     26  C   UNL     1      -3.711  11.591  18.026  0.00  0.00    +0.000 A 
ATOM     27  O   UNL     1      -2.389  11.628  17.684  0.00  0.00    +0.000 OA
ENDBRANCH  17  18
ENDBRANCH   4  17
TORSDOF 5
ENDMDL
MODEL 9
REMARK VINA RESULT:      -8.0      6.133      8.339
REMARK  Name = 
REMARK  7 active torsions:
REMARK  status: ('A' for Active; 'I' for Inactive)
REMARK    1  A    between atoms: C_1  and  C_2
REMARK    2  A    between atoms: C_6  and  C_7
REMARK    3  A    between atoms: C_7  and  N_8
REMARK    4  A    between atoms: N_8  and  C_9
REMARK    5  A    between atoms: C_12  and  C_13
REMARK    6  A    between atoms: C_13  and  C_14
REMARK    7  A    between atoms: C_18  and  C_19
REMARK                            x       y       z     vdW  Elec       q    Type
REMARK                         _______ _______ _______ _____ _____    ______ ____
ROOT
ATOM      1  C   UNL     1       2.500   5.964  19.356  0.00  0.00    +0.000 A 
ATOM      2  C   UNL     1       2.572   6.783  18.225  0.00  0.00    +0.000 A 
ATOM      3  C   UNL     1       2.114   8.103  18.262  0.00  0.00    +0.000 A 
ATOM      4  C   UNL     1       1.529   8.628  19.422  0.00  0.00    +0.000 A 
ATOM      5  C   UNL     1       1.384   7.785  20.531  0.00  0.00    +0.000 A 
ATOM      6  C   UNL     1       1.846   6.465  20.489  0.00  0.00    +0.000 A 
ENDROOT
BRANCH   1   7
ATOM      7  N   UNL     1       2.976   4.642  19.389  0.00  0.00    +0.000 N 
ATOM      8  H   UNL     1       2.687   4.158  18.537  0.00  0.00    +0.000 HD
BRANCH   7   9
ATOM      9  C   UNL     1       4.424   4.488  19.576  0.00  0.00    +0.000 C 
BRANCH   9  15
ATOM     10  C   UNL     1       7.675   7.456  17.470  0.00  0.00    +0.000 C 
ATOM     11  C   UNL     1       6.770   6.270  17.332  0.00  0.00    +0.000 A 
ATOM     12  C   UNL     1       6.732   5.531  16.154  0.00  0.00    +0.000 A 
ATOM     13  C   UNL     1       5.885   4.432  16.079  0.00  0.00    +0.000 A 
ATOM     14  C   UNL     1       5.105   4.097  17.180  0.00  0.00    +0.000 A 
ATOM     15  C   UNL     1       5.194   4.878  18.331  0.00  0.00    +0.000 A 
ATOM     16  N   UNL     1       6.016   5.958  18.414  0.00  0.00    +0.000 NA
ENDBRANCH   9  15
ENDBRANCH   7   9
ENDBRANCH   1   7
BRANCH   4  17
ATOM     17  C   UNL     1       1.163  10.093  19.508  0.00  0.00    +0.000 C 
BRANCH  17  18
ATOM     18  C   UNL     1      -0.140  10.452  18.878  0.00  0.00    +0.000 A 
ATOM     19  N   UNL     1      -1.091  11.219  19.381  0.00  0.00    +0.000 NA
ATOM     20  C   UNL     1      -2.093  11.125  18.464  0.00  0.00    +0.000 A 
ATOM     21  N   UNL     1      -3.303  11.722  18.544  0.00  0.00    +0.000 NA
ATOM     22  C   UNL     1      -4.135  11.440  17.517  0.00  0.00    +0.000 A 
ATOM     23  C   UNL     1      -5.493  12.079  17.583  0.00  0.00    +0.000 C 
ATOM     24  C   UNL     1      -3.809  10.607  16.433  0.00  0.00    +0.000 A 
ATOM     25  C   UNL     1      -2.551  10.001  16.358  0.00  0.00    +0.000 A 
ATOM     26  C   UNL     1      -1.716  10.296  17.422  0.00  0.00    +0.000 A 
ATOM     27  O   UNL     1      -0.448   9.856  17.676  0.00  0.00    +0.000 OA
ENDBRANCH  17  18
ENDBRANCH   4  17
TORSDOF 5
ENDMDL
