MODEL 1
REMARK VINA RESULT:      -8.6      0.000      0.000
REMARK  Name = 
REMARK  8 active torsions:
REMARK  status: ('A' for Active; 'I' for Inactive)
REMARK    1  A    between atoms: C_1  and  O_2
REMARK    2  A    between atoms: O_2  and  C_3
REMARK    3  A    between atoms: C_7  and  C_8
REMARK    4  A    between atoms: C_13  and  O_14
REMARK    5  A    between atoms: O_14  and  C_15
REMARK    6  A    between atoms: C_20  and  O_21
REMARK    7  A    between atoms: O_21  and  C_22
REMARK    8  A    between atoms: N_24  and  C_25
REMARK                            x       y       z     vdW  Elec       q    Type
REMARK                         _______ _______ _______ _____ _____    ______ ____
ROOT
ATOM      1  C   UNL     1       1.349  11.407  19.101  0.00  0.00    +0.000 C 
ATOM      2  O   UNL     1       0.567  10.973  17.934  0.00  0.00    +0.000 OA
ATOM      3  C   UNL     1      -0.730  10.603  18.221  0.00  0.00    +0.000 A 
ATOM      4  C   UNL     1      -1.475   9.792  17.389  0.00  0.00    +0.000 A 
ATOM      5  C   UNL     1      -2.826  10.091  17.258  0.00  0.00    +0.000 A 
ATOM      6  C   UNL     1      -3.338  11.212  17.920  0.00  0.00    +0.000 A 
ATOM      7  C   UNL     1      -2.653  11.712  19.033  0.00  0.00    +0.000 A 
ATOM      8  C   UNL     1      -1.383  11.218  19.260  0.00  0.00    +0.000 A 
ATOM      9  C   UNL     1      -0.572  11.195  20.500  0.00  0.00    +0.000 C 
ATOM     10  O   UNL     1      -1.012  11.656  21.547  0.00  0.00    +0.000 OA
ATOM     11  C   UNL     1       0.854  10.591  20.317  0.00  0.00    +0.000 C 
ENDROOT
BRANCH   1  16
ATOM     12  C   UNL     1       2.401  14.412  21.216  0.00  0.00    +0.000 A 
ATOM     13  C   UNL     1       2.043  15.501  20.425  0.00  0.00    +0.000 A 
ATOM     14  C   UNL     1       1.468  15.287  19.167  0.00  0.00    +0.000 A 
ATOM     15  C   UNL     1       1.240  13.986  18.680  0.00  0.00    +0.000 A 
ATOM     16  C   UNL     1       1.609  12.882  19.453  0.00  0.00    +0.000 A 
ATOM     17  C   UNL     1       2.215  13.126  20.714  0.00  0.00    +0.000 A 
BRANCH  12  19
ATOM     18  C   UNL     1       4.347  14.858  22.492  0.00  0.00    +0.000 C 
ATOM     19  O   UNL     1       2.929  14.716  22.441  0.00  0.00    +0.000 OA
ENDBRANCH  12  19
ENDBRANCH   1  16
BRANCH   6  20
ATOM     20  O   UNL     1      -4.508  11.699  17.416  0.00  0.00    +0.000 OA
ATOM     21  C   UNL     1      -5.686  11.204  18.052  0.00  0.00    +0.000 C 
ENDBRANCH   6  20
BRANCH  11  22
ATOM     22  O   UNL     1       1.175   9.277  19.814  0.00  0.00    +0.000 OA
BRANCH  22  23
ATOM     23  C   UNL     1       1.378   8.183  20.557  0.00  0.00    +0.000 C 
ATOM     24  O   UNL     1       1.282   8.124  21.755  0.00  0.00    +0.000 OA
ATOM     25  N   UNL     1       1.748   7.204  19.687  0.00  0.00    +0.000 N 
ATOM     26  H   UNL     1       1.879   7.490  18.738  0.00  0.00    +0.000 HD
BRANCH  25  27
ATOM     27  C   UNL     1       2.417   5.955  20.088  0.00  0.00    +0.000 C 
ATOM     28  C   UNL     1       1.365   4.993  20.666  0.00  0.00    +0.000 C 
ATOM     29  C   UNL     1       1.408   3.531  20.231  0.00  0.00    +0.000 C 
ATOM     30  C   UNL     1       1.957   3.229  18.844  0.00  0.00    +0.000 C 
ATOM     31  C   UNL     1       2.944   4.210  18.290  0.00  0.00    +0.000 A 
ATOM     32  C   UNL     1       3.609   3.873  17.098  0.00  0.00    +0.000 A 
ATOM     33  C   UNL     1       4.521   4.747  16.506  0.00  0.00    +0.000 A 
ATOM     34  C   UNL     1       4.806   5.963  17.120  0.00  0.00    +0.000 A 
ATOM     35  C   UNL     1       4.156   6.301  18.304  0.00  0.00    +0.000 A 
ATOM     36  C   UNL     1       3.191   5.454  18.888  0.00  0.00    +0.000 A 
ENDBRANCH  25  27
ENDBRANCH  22  23
ENDBRANCH  11  22
TORSDOF 6
ENDMDL
MODEL 2
REMARK VINA RESULT:      -8.6      2.528      5.416
REMARK  Name = 
REMARK  8 active torsions:
REMARK  status: ('A' for Active; 'I' for Inactive)
REMARK    1  A    between atoms: C_1  and  O_2
REMARK    2  A    between atoms: O_2  and  C_3
REMARK    3  A    between atoms: C_7  and  C_8
REMARK    4  A    between atoms: C_13  and  O_14
REMARK    5  A    between atoms: O_14  and  C_15
REMARK    6  A    between atoms: C_20  and  O_21
REMARK    7  A    between atoms: O_21  and  C_22
REMARK    8  A    between atoms: N_24  and  C_25
REMARK                            x       y       z     vdW  Elec       q    Type
REMARK                         _______ _______ _______ _____ _____    ______ ____
ROOT
ATOM      1  C   UNL     1      -0.964   9.558  18.465  0.00  0.00    +0.000 C 
ATOM      2  O   UNL     1      -1.120   9.243  19.892  0.00  0.00    +0.000 OA
ATOM      3  C   UNL     1      -0.655  10.219  20.747  0.00  0.00    +0.000 A 
ATOM      4  C   UNL     1      -0.321   9.962  22.061  0.00  0.00    +0.000 A 
ATOM      5  C   UNL     1      -0.641  10.938  22.997  0.00  0.00    +0.000 A 
ATOM      6  C   UNL     1      -1.324  12.084  22.575  0.00  0.00    +0.000 A 
ATOM      7  C   UNL     1      -1.251  12.456  21.228  0.00  0.00    +0.000 A 
ATOM      8  C   UNL     1      -0.712  11.532  20.352  0.00  0.00    +0.000 A 
ATOM      9  C   UNL     1      -0.119  11.722  19.007  0.00  0.00    +0.000 C 
ATOM     10  O   UNL     1      -0.038  12.838  18.508  0.00  0.00    +0.000 OA
ATOM     11  C   UNL     1       0.326  10.396  18.316  0.00  0.00    +0.000 C 
ENDROOT
BRANCH   1  16
ATOM     12  C   UNL     1      -2.891  10.314  15.251  0.00  0.00    +0.000 A 
ATOM     13  C   UNL     1      -3.974  11.067  15.697  0.00  0.00    +0.000 A 
ATOM     14  C   UNL     1      -4.121  11.332  17.064  0.00  0.00    +0.000 A 
ATOM     15  C   UNL     1      -3.191  10.852  18.004  0.00  0.00    +0.000 A 
ATOM     16  C   UNL     1      -2.107  10.080  17.576  0.00  0.00    +0.000 A 
ATOM     17  C   UNL     1      -1.996   9.803  16.188  0.00  0.00    +0.000 A 
BRANCH  12  19
ATOM     18  C   UNL     1      -4.055   9.964  13.217  0.00  0.00    +0.000 C 
ATOM     19  O   UNL     1      -2.813  10.130  13.898  0.00  0.00    +0.000 OA
ENDBRANCH  12  19
ENDBRANCH   1  16
BRANCH   6  20
ATOM     20  O   UNL     1      -1.985  12.760  23.557  0.00  0.00    +0.000 OA
ATOM     21  C   UNL     1      -3.341  12.360  23.751  0.00  0.00    +0.000 C 
ENDBRANCH   6  20
BRANCH  11  22
ATOM     22  O   UNL     1       1.253   9.422  18.837  0.00  0.00    +0.000 OA
BRANCH  22  23
ATOM     23  C   UNL     1       2.122   8.704  18.116  0.00  0.00    +0.000 C 
ATOM     24  O   UNL     1       2.649   9.065  17.094  0.00  0.00    +0.000 OA
ATOM     25  N   UNL     1       2.233   7.505  18.749  0.00  0.00    +0.000 N 
ATOM     26  H   UNL     1       1.620   7.363  19.525  0.00  0.00    +0.000 HD
BRANCH  25  27
ATOM     27  C   UNL     1       2.783   6.291  18.124  0.00  0.00    +0.000 C 
ATOM     28  C   UNL     1       4.246   6.556  17.729  0.00  0.00    +0.000 C 
ATOM     29  C   UNL     1       5.283   5.481  18.041  0.00  0.00    +0.000 C 
ATOM     30  C   UNL     1       5.027   4.589  19.247  0.00  0.00    +0.000 C 
ATOM     31  C   UNL     1       3.594   4.389  19.634  0.00  0.00    +0.000 A 
ATOM     32  C   UNL     1       3.307   3.431  20.623  0.00  0.00    +0.000 A 
ATOM     33  C   UNL     1       2.000   3.208  21.057  0.00  0.00    +0.000 A 
ATOM     34  C   UNL     1       0.953   3.921  20.480  0.00  0.00    +0.000 A 
ATOM     35  C   UNL     1       1.229   4.868  19.497  0.00  0.00    +0.000 A 
ATOM     36  C   UNL     1       2.549   5.144  19.085  0.00  0.00    +0.000 A 
ENDBRANCH  25  27
ENDBRANCH  22  23
ENDBRANCH  11  22
TORSDOF 6
ENDMDL
MODEL 3
REMARK VINA RESULT:      -8.4      0.975      1.622
REMARK  Name = 
REMARK  8 active torsions:
REMARK  status: ('A' for Active; 'I' for Inactive)
REMARK    1  A    between atoms: C_1  and  O_2
REMARK    2  A    between atoms: O_2  and  C_3
REMARK    3  A    between atoms: C_7  and  C_8
REMARK    4  A    between atoms: C_13  and  O_14
REMARK    5  A    between atoms: O_14  and  C_15
REMARK    6  A    between atoms: C_20  and  O_21
REMARK    7  A    between atoms: O_21  and  C_22
REMARK    8  A    between atoms: N_24  and  C_25
REMARK                            x       y       z     vdW  Elec       q    Type
REMARK                         _______ _______ _______ _____ _____    ______ ____
ROOT
ATOM      1  C   UNL     1       1.331  11.476  19.252  0.00  0.00    +0.000 C 
ATOM      2  O   UNL     1       0.597  11.069  18.045  0.00  0.00    +0.000 OA
ATOM      3  C   UNL     1      -0.691  10.637  18.277  0.00  0.00    +0.000 A 
ATOM      4  C   UNL     1      -1.382   9.840  17.387  0.00  0.00    +0.000 A 
ATOM      5  C   UNL     1      -2.739  10.093  17.232  0.00  0.00    +0.000 A 
ATOM      6  C   UNL     1      -3.312  11.161  17.931  0.00  0.00    +0.000 A 
ATOM      7  C   UNL     1      -2.677  11.633  19.085  0.00  0.00    +0.000 A 
ATOM      8  C   UNL     1      -1.395  11.176  19.325  0.00  0.00    +0.000 A 
ATOM      9  C   UNL     1      -0.617  11.125  20.585  0.00  0.00    +0.000 C 
ATOM     10  O   UNL     1      -1.102  11.518  21.639  0.00  0.00    +0.000 OA
ATOM     11  C   UNL     1       0.836  10.584  20.414  0.00  0.00    +0.000 C 
ENDROOT
BRANCH   1  16
ATOM     12  C   UNL     1       1.162  15.288  19.016  0.00  0.00    +0.000 A 
ATOM     13  C   UNL     1       1.876  15.709  20.135  0.00  0.00    +0.000 A 
ATOM     14  C   UNL     1       2.415  14.762  21.014  0.00  0.00    +0.000 A 
ATOM     15  C   UNL     1       2.252  13.382  20.788  0.00  0.00    +0.000 A 
ATOM     16  C   UNL     1       1.523  12.942  19.680  0.00  0.00    +0.000 A 
ATOM     17  C   UNL     1       0.964  13.923  18.819  0.00  0.00    +0.000 A 
BRANCH  12  19
ATOM     18  C   UNL     1      -0.500  16.929  18.623  0.00  0.00    +0.000 C 
ATOM     19  O   UNL     1       0.697  16.282  18.200  0.00  0.00    +0.000 OA
ENDBRANCH  12  19
ENDBRANCH   1  16
BRANCH   6  20
ATOM     20  O   UNL     1      -4.487  11.627  17.417  0.00  0.00    +0.000 OA
ATOM     21  C   UNL     1      -5.660  11.152  18.078  0.00  0.00    +0.000 C 
ENDBRANCH   6  20
BRANCH  11  22
ATOM     22  O   UNL     1       1.221   9.309  19.860  0.00  0.00    +0.000 OA
BRANCH  22  23
ATOM     23  C   UNL     1       1.353   8.166  20.543  0.00  0.00    +0.000 C 
ATOM     24  O   UNL     1       1.093   8.015  21.709  0.00  0.00    +0.000 OA
ATOM     25  N   UNL     1       1.872   7.264  19.666  0.00  0.00    +0.000 N 
ATOM     26  H   UNL     1       2.124   7.624  18.768  0.00  0.00    +0.000 HD
BRANCH  25  27
ATOM     27  C   UNL     1       2.517   6.003  20.066  0.00  0.00    +0.000 C 
ATOM     28  C   UNL     1       1.458   5.083  20.696  0.00  0.00    +0.000 C 
ATOM     29  C   UNL     1       1.444   3.613  20.286  0.00  0.00    +0.000 C 
ATOM     30  C   UNL     1       1.936   3.272  18.887  0.00  0.00    +0.000 C 
ATOM     31  C   UNL     1       2.932   4.213  18.283  0.00  0.00    +0.000 A 
ATOM     32  C   UNL     1       3.546   3.837  17.075  0.00  0.00    +0.000 A 
ATOM     33  C   UNL     1       4.462   4.673  16.438  0.00  0.00    +0.000 A 
ATOM     34  C   UNL     1       4.803   5.890  17.020  0.00  0.00    +0.000 A 
ATOM     35  C   UNL     1       4.203   6.267  18.219  0.00  0.00    +0.000 A 
ATOM     36  C   UNL     1       3.235   5.459  18.850  0.00  0.00    +0.000 A 
ENDBRANCH  25  27
ENDBRANCH  22  23
ENDBRANCH  11  22
TORSDOF 6
ENDMDL
MODEL 4
REMARK VINA RESULT:      -8.4      2.386      5.212
REMARK  Name = 
REMARK  8 active torsions:
REMARK  status: ('A' for Active; 'I' for Inactive)
REMARK    1  A    between atoms: C_1  and  O_2
REMARK    2  A    between atoms: O_2  and  C_3
REMARK    3  A    between atoms: C_7  and  C_8
REMARK    4  A    between atoms: C_13  and  O_14
REMARK    5  A    between atoms: O_14  and  C_15
REMARK    6  A    between atoms: C_20  and  O_21
REMARK    7  A    between atoms: O_21  and  C_22
REMARK    8  A    between atoms: N_24  and  C_25
REMARK                            x       y       z     vdW  Elec       q    Type
REMARK                         _______ _______ _______ _____ _____    ______ ____
ROOT
ATOM      1  C   UNL     1      -0.990   9.624  18.413  0.00  0.00    +0.000 C 
ATOM      2  O   UNL     1      -1.182   9.272  19.826  0.00  0.00    +0.000 OA
ATOM      3  C   UNL     1      -0.670  10.188  20.719  0.00  0.00    +0.000 A 
ATOM      4  C   UNL     1      -0.369   9.867  22.027  0.00  0.00    +0.000 A 
ATOM      5  C   UNL     1      -0.643  10.827  22.993  0.00  0.00    +0.000 A 
ATOM      6  C   UNL     1      -1.250  12.026  22.603  0.00  0.00    +0.000 A 
ATOM      7  C   UNL     1      -1.139  12.439  21.272  0.00  0.00    +0.000 A 
ATOM      8  C   UNL     1      -0.645  11.515  20.370  0.00  0.00    +0.000 A 
ATOM      9  C   UNL     1      -0.024  11.714  19.039  0.00  0.00    +0.000 C 
ATOM     10  O   UNL     1       0.130  12.839  18.579  0.00  0.00    +0.000 OA
ATOM     11  C   UNL     1       0.350  10.388  18.306  0.00  0.00    +0.000 C 
ENDROOT
BRANCH   1  16
ATOM     12  C   UNL     1      -4.334  11.258  17.543  0.00  0.00    +0.000 A 
ATOM     13  C   UNL     1      -4.325  11.286  16.151  0.00  0.00    +0.000 A 
ATOM     14  C   UNL     1      -3.216  10.792  15.453  0.00  0.00    +0.000 A 
ATOM     15  C   UNL     1      -2.103  10.263  16.133  0.00  0.00    +0.000 A 
ATOM     16  C   UNL     1      -2.088  10.244  17.530  0.00  0.00    +0.000 A 
ATOM     17  C   UNL     1      -3.213  10.775  18.214  0.00  0.00    +0.000 A 
BRANCH  12  19
ATOM     18  C   UNL     1      -6.416  10.755  18.557  0.00  0.00    +0.000 C 
ATOM     19  O   UNL     1      -5.470  11.736  18.138  0.00  0.00    +0.000 OA
ENDBRANCH  12  19
ENDBRANCH   1  16
BRANCH   6  20
ATOM     20  O   UNL     1      -1.883  12.707  23.602  0.00  0.00    +0.000 OA
ATOM     21  C   UNL     1      -3.263  12.382  23.768  0.00  0.00    +0.000 C 
ENDBRANCH   6  20
BRANCH  11  22
ATOM     22  O   UNL     1       1.211   9.343  18.803  0.00  0.00    +0.000 OA
BRANCH  22  23
ATOM     23  C   UNL     1       2.090   8.642  18.078  0.00  0.00    +0.000 C 
ATOM     24  O   UNL     1       2.600   9.011  17.051  0.00  0.00    +0.000 OA
ATOM     25  N   UNL     1       2.233   7.448  18.715  0.00  0.00    +0.000 N 
ATOM     26  H   UNL     1       1.629   7.296  19.496  0.00  0.00    +0.000 HD
BRANCH  25  27
ATOM     27  C   UNL     1       2.805   6.245  18.090  0.00  0.00    +0.000 C 
ATOM     28  C   UNL     1       4.273   6.524  17.726  0.00  0.00    +0.000 C 
ATOM     29  C   UNL     1       5.313   5.456  18.049  0.00  0.00    +0.000 C 
ATOM     30  C   UNL     1       5.040   4.551  19.242  0.00  0.00    +0.000 C 
ATOM     31  C   UNL     1       3.601   4.335  19.599  0.00  0.00    +0.000 A 
ATOM     32  C   UNL     1       3.302   3.366  20.573  0.00  0.00    +0.000 A 
ATOM     33  C   UNL     1       1.989   3.129  20.979  0.00  0.00    +0.000 A 
ATOM     34  C   UNL     1       0.948   3.839  20.388  0.00  0.00    +0.000 A 
ATOM     35  C   UNL     1       1.236   4.796  19.419  0.00  0.00    +0.000 A 
ATOM     36  C   UNL     1       2.561   5.087  19.036  0.00  0.00    +0.000 A 
ENDBRANCH  25  27
ENDBRANCH  22  23
ENDBRANCH  11  22
TORSDOF 6
ENDMDL
MODEL 5
REMARK VINA RESULT:      -8.3      2.808      6.878
REMARK  Name = 
REMARK  8 active torsions:
REMARK  status: ('A' for Active; 'I' for Inactive)
REMARK    1  A    between atoms: C_1  and  O_2
REMARK    2  A    between atoms: O_2  and  C_3
REMARK    3  A    between atoms: C_7  and  C_8
REMARK    4  A    between atoms: C_13  and  O_14
REMARK    5  A    between atoms: O_14  and  C_15
REMARK    6  A    between atoms: C_20  and  O_21
REMARK    7  A    between atoms: O_21  and  C_22
REMARK    8  A    between atoms: N_24  and  C_25
REMARK                            x       y       z     vdW  Elec       q    Type
REMARK                         _______ _______ _______ _____ _____    ______ ____
ROOT
ATOM      1  C   UNL     1       0.640  14.030  20.456  0.00  0.00    +0.000 C 
ATOM      2  O   UNL     1       1.073  12.796  21.126  0.00  0.00    +0.000 OA
ATOM      3  C   UNL     1       0.612  11.636  20.543  0.00  0.00    +0.000 A 
ATOM      4  C   UNL     1       0.541  10.437  21.222  0.00  0.00    +0.000 A 
ATOM      5  C   UNL     1       0.860   9.286  20.511  0.00  0.00    +0.000 A 
ATOM      6  C   UNL     1       1.282   9.408  19.183  0.00  0.00    +0.000 A 
ATOM      7  C   UNL     1       0.934  10.557  18.464  0.00  0.00    +0.000 A 
ATOM      8  C   UNL     1       0.405  11.610  19.187  0.00  0.00    +0.000 A 
ATOM      9  C   UNL     1      -0.423  12.756  18.742  0.00  0.00    +0.000 C 
ATOM     10  O   UNL     1      -0.752  12.874  17.568  0.00  0.00    +0.000 OA
ATOM     11  C   UNL     1      -0.768  13.769  19.876  0.00  0.00    +0.000 C 
ENDROOT
BRANCH   1  16
ATOM     12  C   UNL     1       1.769  16.983  18.306  0.00  0.00    +0.000 A 
ATOM     13  C   UNL     1       2.881  16.483  17.634  0.00  0.00    +0.000 A 
ATOM     14  C   UNL     1       3.311  15.173  17.879  0.00  0.00    +0.000 A 
ATOM     15  C   UNL     1       2.637  14.344  18.795  0.00  0.00    +0.000 A 
ATOM     16  C   UNL     1       1.530  14.835  19.491  0.00  0.00    +0.000 A 
ATOM     17  C   UNL     1       1.131  16.175  19.245  0.00  0.00    +0.000 A 
BRANCH  12  19
ATOM     18  C   UNL     1       1.054  18.486  16.620  0.00  0.00    +0.000 C 
ATOM     19  O   UNL     1       1.406  18.261  17.983  0.00  0.00    +0.000 OA
ENDBRANCH  12  19
ENDBRANCH   1  16
BRANCH   6  20
ATOM     20  O   UNL     1       1.985   8.344  18.698  0.00  0.00    +0.000 OA
ATOM     21  C   UNL     1       2.267   7.326  19.659  0.00  0.00    +0.000 C 
ENDBRANCH   6  20
BRANCH  11  22
ATOM     22  O   UNL     1      -1.440  13.475  21.118  0.00  0.00    +0.000 OA
BRANCH  22  23
ATOM     23  C   UNL     1      -2.667  12.954  21.241  0.00  0.00    +0.000 C 
ATOM     24  O   UNL     1      -3.110  12.439  22.235  0.00  0.00    +0.000 OA
ATOM     25  N   UNL     1      -3.256  13.093  20.023  0.00  0.00    +0.000 N 
ATOM     26  H   UNL     1      -2.672  13.448  19.294  0.00  0.00    +0.000 HD
BRANCH  25  27
ATOM     27  C   UNL     1      -4.449  12.345  19.595  0.00  0.00    +0.000 C 
ATOM     28  C   UNL     1      -5.607  13.335  19.384  0.00  0.00    +0.000 C 
ATOM     29  C   UNL     1      -6.470  13.181  18.136  0.00  0.00    +0.000 C 
ATOM     30  C   UNL     1      -5.812  12.588  16.898  0.00  0.00    +0.000 C 
ATOM     31  C   UNL     1      -4.658  11.664  17.136  0.00  0.00    +0.000 A 
ATOM     32  C   UNL     1      -4.143  10.956  16.035  0.00  0.00    +0.000 A 
ATOM     33  C   UNL     1      -3.052  10.098  16.172  0.00  0.00    +0.000 A 
ATOM     34  C   UNL     1      -2.478   9.911  17.425  0.00  0.00    +0.000 A 
ATOM     35  C   UNL     1      -2.985  10.605  18.521  0.00  0.00    +0.000 A 
ATOM     36  C   UNL     1      -4.053  11.516  18.392  0.00  0.00    +0.000 A 
ENDBRANCH  25  27
ENDBRANCH  22  23
ENDBRANCH  11  22
TORSDOF 6
ENDMDL
MODEL 6
REMARK VINA RESULT:      -8.2      2.693      6.604
REMARK  Name = 
REMARK  8 active torsions:
REMARK  status: ('A' for Active; 'I' for Inactive)
REMARK    1  A    between atoms: C_1  and  O_2
REMARK    2  A    between atoms: O_2  and  C_3
REMARK    3  A    between atoms: C_7  and  C_8
REMARK    4  A    between atoms: C_13  and  O_14
REMARK    5  A    between atoms: O_14  and  C_15
REMARK    6  A    between atoms: C_20  and  O_21
REMARK    7  A    between atoms: O_21  and  C_22
REMARK    8  A    between atoms: N_24  and  C_25
REMARK                            x       y       z     vdW  Elec       q    Type
REMARK                         _______ _______ _______ _____ _____    ______ ____
ROOT
ATOM      1  C   UNL     1       0.744  13.845  20.746  0.00  0.00    +0.000 C 
ATOM      2  O   UNL     1       1.130  12.543  21.309  0.00  0.00    +0.000 OA
ATOM      3  C   UNL     1       0.680  11.454  20.593  0.00  0.00    +0.000 A 
ATOM      4  C   UNL     1       0.563  10.196  21.146  0.00  0.00    +0.000 A 
ATOM      5  C   UNL     1       0.897   9.116  20.338  0.00  0.00    +0.000 A 
ATOM      6  C   UNL     1       1.380   9.360  19.047  0.00  0.00    +0.000 A 
ATOM      7  C   UNL     1       1.079  10.581  18.433  0.00  0.00    +0.000 A 
ATOM      8  C   UNL     1       0.533  11.566  19.233  0.00  0.00    +0.000 A 
ATOM      9  C   UNL     1      -0.259  12.765  18.870  0.00  0.00    +0.000 C 
ATOM     10  O   UNL     1      -0.534  13.005  17.700  0.00  0.00    +0.000 OA
ATOM     11  C   UNL     1      -0.641  13.667  20.083  0.00  0.00    +0.000 C 
ENDROOT
BRANCH   1  16
ATOM     12  C   UNL     1       4.034  15.092  19.252  0.00  0.00    +0.000 A 
ATOM     13  C   UNL     1       3.661  16.254  18.582  0.00  0.00    +0.000 A 
ATOM     14  C   UNL     1       2.319  16.655  18.579  0.00  0.00    +0.000 A 
ATOM     15  C   UNL     1       1.332  15.903  19.244  0.00  0.00    +0.000 A 
ATOM     16  C   UNL     1       1.686  14.725  19.906  0.00  0.00    +0.000 A 
ATOM     17  C   UNL     1       3.049  14.327  19.872  0.00  0.00    +0.000 A 
BRANCH  12  19
ATOM     18  C   UNL     1       5.982  14.785  17.939  0.00  0.00    +0.000 C 
ATOM     19  O   UNL     1       5.369  14.795  19.226  0.00  0.00    +0.000 OA
ENDBRANCH  12  19
ENDBRANCH   1  16
BRANCH   6  20
ATOM     20  O   UNL     1       2.089   8.338  18.490  0.00  0.00    +0.000 OA
ATOM     21  C   UNL     1       2.376   7.256  19.376  0.00  0.00    +0.000 C 
ENDBRANCH   6  20
BRANCH  11  22
ATOM     22  O   UNL     1      -1.371  13.264  21.260  0.00  0.00    +0.000 OA
BRANCH  22  23
ATOM     23  C   UNL     1      -2.640  12.840  21.288  0.00  0.00    +0.000 C 
ATOM     24  O   UNL     1      -3.258  12.550  22.280  0.00  0.00    +0.000 OA
ATOM     25  N   UNL     1      -3.039  12.770  19.989  0.00  0.00    +0.000 N 
ATOM     26  H   UNL     1      -2.333  12.946  19.305  0.00  0.00    +0.000 HD
BRANCH  25  27
ATOM     27  C   UNL     1      -4.216  12.014  19.529  0.00  0.00    +0.000 C 
ATOM     28  C   UNL     1      -5.420  12.968  19.455  0.00  0.00    +0.000 C 
ATOM     29  C   UNL     1      -6.322  12.897  18.226  0.00  0.00    +0.000 C 
ATOM     30  C   UNL     1      -5.687  12.457  16.915  0.00  0.00    +0.000 C 
ATOM     31  C   UNL     1      -4.488  11.567  17.023  0.00  0.00    +0.000 A 
ATOM     32  C   UNL     1      -3.986  10.993  15.841  0.00  0.00    +0.000 A 
ATOM     33  C   UNL     1      -2.856  10.175  15.856  0.00  0.00    +0.000 A 
ATOM     34  C   UNL     1      -2.228   9.893  17.066  0.00  0.00    +0.000 A 
ATOM     35  C   UNL     1      -2.722  10.453  18.241  0.00  0.00    +0.000 A 
ATOM     36  C   UNL     1      -3.831  11.324  18.237  0.00  0.00    +0.000 A 
ENDBRANCH  25  27
ENDBRANCH  22  23
ENDBRANCH  11  22
TORSDOF 6
ENDMDL
MODEL 7
REMARK VINA RESULT:      -7.8      2.645      7.530
REMARK  Name = 
REMARK  8 active torsions:
REMARK  status: ('A' for Active; 'I' for Inactive)
REMARK    1  A    between atoms: C_1  and  O_2
REMARK    2  A    between atoms: O_2  and  C_3
REMARK    3  A    between atoms: C_7  and  C_8
REMARK    4  A    between atoms: C_13  and  O_14
REMARK    5  A    between atoms: O_14  and  C_15
REMARK    6  A    between atoms: C_20  and  O_21
REMARK    7  A    between atoms: O_21  and  C_22
REMARK    8  A    between atoms: N_24  and  C_25
REMARK                            x       y       z     vdW  Elec       q    Type
REMARK                         _______ _______ _______ _____ _____    ______ ____
ROOT
ATOM      1  C   UNL     1      -0.341  12.027  19.405  0.00  0.00    +0.000 C 
ATOM      2  O   UNL     1      -0.407  13.217  18.545  0.00  0.00    +0.000 OA
ATOM      3  C   UNL     1       0.374  14.271  18.965  0.00  0.00    +0.000 A 
ATOM      4  C   UNL     1       0.145  15.573  18.570  0.00  0.00    +0.000 A 
ATOM      5  C   UNL     1       1.260  16.365  18.323  0.00  0.00    +0.000 A 
ATOM      6  C   UNL     1       2.533  15.795  18.432  0.00  0.00    +0.000 A 
ATOM      7  C   UNL     1       2.695  14.647  19.216  0.00  0.00    +0.000 A 
ATOM      8  C   UNL     1       1.543  14.007  19.634  0.00  0.00    +0.000 A 
ATOM      9  C   UNL     1       1.325  13.068  20.760  0.00  0.00    +0.000 C 
ATOM     10  O   UNL     1       2.247  12.753  21.502  0.00  0.00    +0.000 OA
ATOM     11  C   UNL     1      -0.132  12.519  20.856  0.00  0.00    +0.000 C 
ENDROOT
BRANCH   1  16
ATOM     12  C   UNL     1       1.312   8.624  19.951  0.00  0.00    +0.000 A 
ATOM     13  C   UNL     1       2.110   8.471  18.821  0.00  0.00    +0.000 A 
ATOM     14  C   UNL     1       2.117   9.464  17.835  0.00  0.00    +0.000 A 
ATOM     15  C   UNL     1       1.329  10.624  17.962  0.00  0.00    +0.000 A 
ATOM     16  C   UNL     1       0.509  10.785  19.081  0.00  0.00    +0.000 A 
ATOM     17  C   UNL     1       0.500   9.751  20.054  0.00  0.00    +0.000 A 
BRANCH  12  19
ATOM     18  C   UNL     1       1.916   6.378  20.404  0.00  0.00    +0.000 C 
ATOM     19  O   UNL     1       1.391   7.617  20.874  0.00  0.00    +0.000 OA
ENDBRANCH  12  19
ENDBRANCH   1  16
BRANCH   6  20
ATOM     20  O   UNL     1       3.524  16.456  17.768  0.00  0.00    +0.000 OA
ATOM     21  C   UNL     1       4.730  16.631  18.511  0.00  0.00    +0.000 C 
ENDBRANCH   6  20
BRANCH  11  22
ATOM     22  O   UNL     1      -1.340  13.298  20.974  0.00  0.00    +0.000 OA
BRANCH  22  23
ATOM     23  C   UNL     1      -2.578  12.808  21.111  0.00  0.00    +0.000 C 
ATOM     24  O   UNL     1      -3.036  12.341  22.122  0.00  0.00    +0.000 OA
ATOM     25  N   UNL     1      -3.158  12.911  19.885  0.00  0.00    +0.000 N 
ATOM     26  H   UNL     1      -2.564  13.224  19.146  0.00  0.00    +0.000 HD
BRANCH  25  27
ATOM     27  C   UNL     1      -4.365  12.170  19.480  0.00  0.00    +0.000 C 
ATOM     28  C   UNL     1      -5.549  13.149  19.416  0.00  0.00    +0.000 C 
ATOM     29  C   UNL     1      -6.489  13.067  18.217  0.00  0.00    +0.000 C 
ATOM     30  C   UNL     1      -5.903  12.578  16.900  0.00  0.00    +0.000 C 
ATOM     31  C   UNL     1      -4.722  11.664  16.996  0.00  0.00    +0.000 A 
ATOM     32  C   UNL     1      -4.268  11.047  15.816  0.00  0.00    +0.000 A 
ATOM     33  C   UNL     1      -3.157  10.205  15.820  0.00  0.00    +0.000 A 
ATOM     34  C   UNL     1      -2.500   9.940  17.018  0.00  0.00    +0.000 A 
ATOM     35  C   UNL     1      -2.946  10.542  18.192  0.00  0.00    +0.000 A 
ATOM     36  C   UNL     1      -4.034  11.438  18.197  0.00  0.00    +0.000 A 
ENDBRANCH  25  27
ENDBRANCH  22  23
ENDBRANCH  11  22
TORSDOF 6
ENDMDL
MODEL 8
REMARK VINA RESULT:      -7.8      1.148      1.228
REMARK  Name = 
REMARK  8 active torsions:
REMARK  status: ('A' for Active; 'I' for Inactive)
REMARK    1  A    between atoms: C_1  and  O_2
REMARK    2  A    between atoms: O_2  and  C_3
REMARK    3  A    between atoms: C_7  and  C_8
REMARK    4  A    between atoms: C_13  and  O_14
REMARK    5  A    between atoms: O_14  and  C_15
REMARK    6  A    between atoms: C_20  and  O_21
REMARK    7  A    between atoms: O_21  and  C_22
REMARK    8  A    between atoms: N_24  and  C_25
REMARK                            x       y       z     vdW  Elec       q    Type
REMARK                         _______ _______ _______ _____ _____    ______ ____
ROOT
ATOM      1  C   UNL     1       1.207  11.589  18.613  0.00  0.00    +0.000 C 
ATOM      2  O   UNL     1       0.224  11.052  17.661  0.00  0.00    +0.000 OA
ATOM      3  C   UNL     1      -0.996  10.734  18.217  0.00  0.00    +0.000 A 
ATOM      4  C   UNL     1      -1.879   9.855  17.624  0.00  0.00    +0.000 A 
ATOM      5  C   UNL     1      -3.232  10.161  17.713  0.00  0.00    +0.000 A 
ATOM      6  C   UNL     1      -3.617  11.352  18.339  0.00  0.00    +0.000 A 
ATOM      7  C   UNL     1      -2.740  11.951  19.250  0.00  0.00    +0.000 A 
ATOM      8  C   UNL     1      -1.448  11.461  19.289  0.00  0.00    +0.000 A 
ATOM      9  C   UNL     1      -0.423  11.552  20.355  0.00  0.00    +0.000 C 
ATOM     10  O   UNL     1      -0.663  12.123  21.412  0.00  0.00    +0.000 OA
ATOM     11  C   UNL     1       0.947  10.909  19.976  0.00  0.00    +0.000 C 
ENDROOT
BRANCH   1  16
ATOM     12  C   UNL     1       3.332  14.734  19.070  0.00  0.00    +0.000 A 
ATOM     13  C   UNL     1       2.384  15.746  19.194  0.00  0.00    +0.000 A 
ATOM     14  C   UNL     1       1.021  15.436  19.111  0.00  0.00    +0.000 A 
ATOM     15  C   UNL     1       0.585  14.113  18.903  0.00  0.00    +0.000 A 
ATOM     16  C   UNL     1       1.523  13.089  18.758  0.00  0.00    +0.000 A 
ATOM     17  C   UNL     1       2.899  13.433  18.820  0.00  0.00    +0.000 A 
BRANCH  12  19
ATOM     18  C   UNL     1       5.517  14.704  18.152  0.00  0.00    +0.000 C 
ATOM     19  O   UNL     1       4.637  15.125  19.192  0.00  0.00    +0.000 OA
ENDBRANCH  12  19
ENDBRANCH   1  16
BRANCH   6  20
ATOM     20  O   UNL     1      -4.861  11.804  18.011  0.00  0.00    +0.000 OA
ATOM     21  C   UNL     1      -5.705  12.096  19.124  0.00  0.00    +0.000 C 
ENDBRANCH   6  20
BRANCH  11  22
ATOM     22  O   UNL     1       1.173   9.546  19.561  0.00  0.00    +0.000 OA
BRANCH  22  23
ATOM     23  C   UNL     1       1.427   8.512  20.372  0.00  0.00    +0.000 C 
ATOM     24  O   UNL     1       1.359   8.534  21.574  0.00  0.00    +0.000 OA
ATOM     25  N   UNL     1       1.809   7.487  19.563  0.00  0.00    +0.000 N 
ATOM     26  H   UNL     1       1.911   7.711  18.594  0.00  0.00    +0.000 HD
BRANCH  25  27
ATOM     27  C   UNL     1       2.525   6.290  20.032  0.00  0.00    +0.000 C 
ATOM     28  C   UNL     1       1.529   5.368  20.755  0.00  0.00    +0.000 C 
ATOM     29  C   UNL     1       1.577   3.873  20.449  0.00  0.00    +0.000 C 
ATOM     30  C   UNL     1       2.052   3.457  19.064  0.00  0.00    +0.000 C 
ATOM     31  C   UNL     1       2.985   4.399  18.369  0.00  0.00    +0.000 A 
ATOM     32  C   UNL     1       3.587   3.967  17.174  0.00  0.00    +0.000 A 
ATOM     33  C   UNL     1       4.445   4.799  16.454  0.00  0.00    +0.000 A 
ATOM     34  C   UNL     1       4.739   6.069  16.940  0.00  0.00    +0.000 A 
ATOM     35  C   UNL     1       4.151   6.502  18.125  0.00  0.00    +0.000 A 
ATOM     36  C   UNL     1       3.240   5.695  18.838  0.00  0.00    +0.000 A 
ENDBRANCH  25  27
ENDBRANCH  22  23
ENDBRANCH  11  22
TORSDOF 6
ENDMDL
MODEL 9
REMARK VINA RESULT:      -7.7      2.558      4.727
REMARK  Name = 
REMARK  8 active torsions:
REMARK  status: ('A' for Active; 'I' for Inactive)
REMARK    1  A    between atoms: C_1  and  O_2
REMARK    2  A    between atoms: O_2  and  C_3
REMARK    3  A    between atoms: C_7  and  C_8
REMARK    4  A    between atoms: C_13  and  O_14
REMARK    5  A    between atoms: O_14  and  C_15
REMARK    6  A    between atoms: C_20  and  O_21
REMARK    7  A    between atoms: O_21  and  C_22
REMARK    8  A    between atoms: N_24  and  C_25
REMARK                            x       y       z     vdW  Elec       q    Type
REMARK                         _______ _______ _______ _____ _____    ______ ____
ROOT
ATOM      1  C   UNL     1       0.087  11.590  21.671  0.00  0.00    +0.000 C 
ATOM      2  O   UNL     1       1.346  12.275  21.343  0.00  0.00    +0.000 OA
ATOM      3  C   UNL     1       1.402  12.789  20.066  0.00  0.00    +0.000 A 
ATOM      4  C   UNL     1       2.591  13.079  19.429  0.00  0.00    +0.000 A 
ATOM      5  C   UNL     1       2.623  14.219  18.635  0.00  0.00    +0.000 A 
ATOM      6  C   UNL     1       1.484  15.028  18.568  0.00  0.00    +0.000 A 
ATOM      7  C   UNL     1       0.239  14.472  18.880  0.00  0.00    +0.000 A 
ATOM      8  C   UNL     1       0.242  13.223  19.472  0.00  0.00    +0.000 A 
ATOM      9  C   UNL     1      -0.825  12.198  19.552  0.00  0.00    +0.000 C 
ATOM     10  O   UNL     1      -1.919  12.389  19.033  0.00  0.00    +0.000 OA
ATOM     11  C   UNL     1      -0.431  10.931  20.372  0.00  0.00    +0.000 C 
ENDROOT
BRANCH   1  16
ATOM     12  C   UNL     1      -1.682  14.205  23.827  0.00  0.00    +0.000 A 
ATOM     13  C   UNL     1      -2.879  13.581  24.168  0.00  0.00    +0.000 A 
ATOM     14  C   UNL     1      -3.156  12.296  23.686  0.00  0.00    +0.000 A 
ATOM     15  C   UNL     1      -2.243  11.615  22.859  0.00  0.00    +0.000 A 
ATOM     16  C   UNL     1      -1.045  12.233  22.493  0.00  0.00    +0.000 A 
ATOM     17  C   UNL     1      -0.800  13.547  22.972  0.00  0.00    +0.000 A 
BRANCH  12  19
ATOM     18  C   UNL     1      -1.850  15.599  25.735  0.00  0.00    +0.000 C 
ATOM     19  O   UNL     1      -1.485  15.446  24.366  0.00  0.00    +0.000 OA
ENDBRANCH  12  19
ENDBRANCH   1  16
BRANCH   6  20
ATOM     20  O   UNL     1       1.707  16.311  18.160  0.00  0.00    +0.000 OA
ATOM     21  C   UNL     1       3.083  16.659  18.006  0.00  0.00    +0.000 C 
ENDBRANCH   6  20
BRANCH  11  22
ATOM     22  O   UNL     1       0.696  10.065  20.129  0.00  0.00    +0.000 OA
BRANCH  22  23
ATOM     23  C   UNL     1       1.031   9.526  18.951  0.00  0.00    +0.000 C 
ATOM     24  O   UNL     1       0.607   9.874  17.879  0.00  0.00    +0.000 OA
ATOM     25  N   UNL     1       1.887   8.508  19.235  0.00  0.00    +0.000 N 
ATOM     26  H   UNL     1       2.023   8.309  20.204  0.00  0.00    +0.000 HD
BRANCH  25  27
ATOM     27  C   UNL     1       2.216   7.422  18.296  0.00  0.00    +0.000 C 
ATOM     28  C   UNL     1       3.420   7.853  17.443  0.00  0.00    +0.000 C 
ATOM     29  C   UNL     1       4.541   6.842  17.213  0.00  0.00    +0.000 C 
ATOM     30  C   UNL     1       4.778   5.802  18.299  0.00  0.00    +0.000 C 
ATOM     31  C   UNL     1       3.596   5.439  19.143  0.00  0.00    +0.000 A 
ATOM     32  C   UNL     1       3.727   4.355  20.030  0.00  0.00    +0.000 A 
ATOM     33  C   UNL     1       2.680   3.975  20.869  0.00  0.00    +0.000 A 
ATOM     34  C   UNL     1       1.469   4.657  20.808  0.00  0.00    +0.000 A 
ATOM     35  C   UNL     1       1.329   5.728  19.929  0.00  0.00    +0.000 A 
ATOM     36  C   UNL     1       2.394   6.160  19.112  0.00  0.00    +0.000 A 
ENDBRANCH  25  27
ENDBRANCH  22  23
ENDBRANCH  11  22
TORSDOF 6
ENDMDL
