MODEL 1
REMARK VINA RESULT:      -6.7      0.000      0.000
REMARK  Name = 
REMARK  9 active torsions:
REMARK  status: ('A' for Active; 'I' for Inactive)
REMARK    1  A    between atoms: C_1  and  O_2
REMARK    2  A    between atoms: O_2  and  C_3
REMARK    3  A    between atoms: C_7  and  O_8
REMARK    4  A    between atoms: O_8  and  C_9
REMARK    5  A    between atoms: C_10  and  C_11
REMARK    6  A    between atoms: N_17  and  C_18
REMARK    7  A    between atoms: C_18  and  C_19
REMARK    8  A    between atoms: C_22  and  S_23
REMARK    9  A    between atoms: S_23  and  C_24
REMARK                            x       y       z     vdW  Elec       q    Type
REMARK                         _______ _______ _______ _____ _____    ______ ____
ROOT
ATOM      1  C   UNL     1       4.755   5.306  17.134  0.00  0.00    +0.000 C 
ATOM      2  C   UNL     1       4.203   4.360  16.061  0.00  0.00    +0.000 C 
ATOM      3  C   UNL     1       5.170   4.284  14.891  0.00  0.00    +0.000 C 
ATOM      4  C   UNL     1       6.500   3.742  15.365  0.00  0.00    +0.000 C 
ATOM      5  C   UNL     1       7.056   4.411  16.608  0.00  0.00    +0.000 C 
ATOM      6  O   UNL     1       8.254   4.270  16.866  0.00  0.00    +0.000 OA
ATOM      7  N   UNL     1       6.185   5.085  17.456  0.00  0.00    +0.000 N 
ENDROOT
BRANCH   1  13
ATOM      8  C   UNL     1       3.104   6.572  18.638  0.00  0.00    +0.000 A 
ATOM      9  C   UNL     1       2.167   6.627  19.679  0.00  0.00    +0.000 A 
ATOM     10  C   UNL     1       1.969   5.543  20.511  0.00  0.00    +0.000 A 
ATOM     11  C   UNL     1       2.675   4.375  20.287  0.00  0.00    +0.000 A 
ATOM     12  C   UNL     1       3.544   4.248  19.188  0.00  0.00    +0.000 A 
ATOM     13  C   UNL     1       3.794   5.365  18.344  0.00  0.00    +0.000 A 
BRANCH   8  15
ATOM     14  C   UNL     1       2.297   8.659  17.865  0.00  0.00    +0.000 C 
ATOM     15  O   UNL     1       3.364   7.699  17.887  0.00  0.00    +0.000 OA
ENDBRANCH   8  15
BRANCH  12  16
ATOM     16  O   UNL     1       4.218   3.071  18.945  0.00  0.00    +0.000 OA
ATOM     17  C   UNL     1       3.408   1.907  18.760  0.00  0.00    +0.000 C 
ENDBRANCH  12  16
ENDBRANCH   1  13
BRANCH   7  18
ATOM     18  C   UNL     1       6.774   5.783  18.607  0.00  0.00    +0.000 C 
BRANCH  18  19
ATOM     19  C   UNL     1       7.482   7.101  18.336  0.00  0.00    +0.000 A 
ATOM     20  C   UNL     1       6.997   8.038  17.409  0.00  0.00    +0.000 A 
ATOM     21  C   UNL     1       7.540   9.316  17.300  0.00  0.00    +0.000 A 
ATOM     22  C   UNL     1       8.567   9.692  18.156  0.00  0.00    +0.000 A 
ATOM     23  C   UNL     1       9.100   8.778  19.066  0.00  0.00    +0.000 A 
ATOM     24  C   UNL     1       8.558   7.491  19.151  0.00  0.00    +0.000 A 
BRANCH  22  25
ATOM     25  S   UNL     1       9.150  11.370  18.120  0.00  0.00    +0.000 S 
ATOM     26  C   UNL     1       9.166  11.796  19.846  0.00  0.00    +0.000 C 
ATOM     27  O   UNL     1      10.525  11.350  17.646  0.00  0.00    +0.000 OA
ATOM     28  O   UNL     1       8.145  12.176  17.463  0.00  0.00    +0.000 OA
ENDBRANCH  22  25
ENDBRANCH  18  19
ENDBRANCH   7  18
TORSDOF 6
ENDMDL
MODEL 2
REMARK VINA RESULT:      -6.6      5.826      9.454
REMARK  Name = 
REMARK  9 active torsions:
REMARK  status: ('A' for Active; 'I' for Inactive)
REMARK    1  A    between atoms: C_1  and  O_2
REMARK    2  A    between atoms: O_2  and  C_3
REMARK    3  A    between atoms: C_7  and  O_8
REMARK    4  A    between atoms: O_8  and  C_9
REMARK    5  A    between atoms: C_10  and  C_11
REMARK    6  A    between atoms: N_17  and  C_18
REMARK    7  A    between atoms: C_18  and  C_19
REMARK    8  A    between atoms: C_22  and  S_23
REMARK    9  A    between atoms: S_23  and  C_24
REMARK                            x       y       z     vdW  Elec       q    Type
REMARK                         _______ _______ _______ _____ _____    ______ ____
ROOT
ATOM      1  C   UNL     1       0.884  12.917  21.080  0.00  0.00    +0.000 C 
ATOM      2  C   UNL     1       1.476  14.265  21.507  0.00  0.00    +0.000 C 
ATOM      3  C   UNL     1       2.929  14.354  21.070  0.00  0.00    +0.000 C 
ATOM      4  C   UNL     1       3.014  14.253  19.564  0.00  0.00    +0.000 C 
ATOM      5  C   UNL     1       2.236  13.100  18.956  0.00  0.00    +0.000 C 
ATOM      6  O   UNL     1       2.509  12.748  17.806  0.00  0.00    +0.000 OA
ATOM      7  N   UNL     1       1.190  12.539  19.680  0.00  0.00    +0.000 N 
ENDROOT
BRANCH   1  13
ATOM      8  C   UNL     1      -1.006  11.905  22.493  0.00  0.00    +0.000 A 
ATOM      9  C   UNL     1      -2.334  11.864  22.940  0.00  0.00    +0.000 A 
ATOM     10  C   UNL     1      -3.305  12.644  22.345  0.00  0.00    +0.000 A 
ATOM     11  C   UNL     1      -2.953  13.508  21.323  0.00  0.00    +0.000 A 
ATOM     12  C   UNL     1      -1.613  13.653  20.921  0.00  0.00    +0.000 A 
ATOM     13  C   UNL     1      -0.604  12.829  21.491  0.00  0.00    +0.000 A 
BRANCH   8  15
ATOM     14  C   UNL     1      -0.565   9.715  23.277  0.00  0.00    +0.000 C 
ATOM     15  O   UNL     1      -0.073  11.041  23.027  0.00  0.00    +0.000 OA
ENDBRANCH   8  15
BRANCH  12  16
ATOM     16  O   UNL     1      -1.260  14.541  19.928  0.00  0.00    +0.000 OA
ATOM     17  C   UNL     1      -1.521  15.922  20.194  0.00  0.00    +0.000 C 
ENDBRANCH  12  16
ENDBRANCH   1  13
BRANCH   7  18
ATOM     18  C   UNL     1       0.512  11.376  19.089  0.00  0.00    +0.000 C 
BRANCH  18  19
ATOM     19  C   UNL     1       1.220  10.034  19.183  0.00  0.00    +0.000 A 
ATOM     20  C   UNL     1       1.177   9.242  20.341  0.00  0.00    +0.000 A 
ATOM     21  C   UNL     1       1.666   7.937  20.361  0.00  0.00    +0.000 A 
ATOM     22  C   UNL     1       2.178   7.388  19.193  0.00  0.00    +0.000 A 
ATOM     23  C   UNL     1       2.271   8.155  18.031  0.00  0.00    +0.000 A 
ATOM     24  C   UNL     1       1.794   9.471  18.032  0.00  0.00    +0.000 A 
BRANCH  22  25
ATOM     25  S   UNL     1       2.656   5.676  19.181  0.00  0.00    +0.000 S 
ATOM     26  C   UNL     1       1.820   5.046  20.617  0.00  0.00    +0.000 C 
ATOM     27  O   UNL     1       2.061   5.060  18.004  0.00  0.00    +0.000 OA
ATOM     28  O   UNL     1       4.081   5.612  19.419  0.00  0.00    +0.000 OA
ENDBRANCH  22  25
ENDBRANCH  18  19
ENDBRANCH   7  18
TORSDOF 6
ENDMDL
MODEL 3
REMARK VINA RESULT:      -6.6      0.149      2.446
REMARK  Name = 
REMARK  9 active torsions:
REMARK  status: ('A' for Active; 'I' for Inactive)
REMARK    1  A    between atoms: C_1  and  O_2
REMARK    2  A    between atoms: O_2  and  C_3
REMARK    3  A    between atoms: C_7  and  O_8
REMARK    4  A    between atoms: O_8  and  C_9
REMARK    5  A    between atoms: C_10  and  C_11
REMARK    6  A    between atoms: N_17  and  C_18
REMARK    7  A    between atoms: C_18  and  C_19
REMARK    8  A    between atoms: C_22  and  S_23
REMARK    9  A    between atoms: S_23  and  C_24
REMARK                            x       y       z     vdW  Elec       q    Type
REMARK                         _______ _______ _______ _____ _____    ______ ____
ROOT
ATOM      1  C   UNL     1       4.779   5.384  17.039  0.00  0.00    +0.000 C 
ATOM      2  C   UNL     1       4.236   4.449  15.951  0.00  0.00    +0.000 C 
ATOM      3  C   UNL     1       5.235   4.348  14.810  0.00  0.00    +0.000 C 
ATOM      4  C   UNL     1       6.538   3.776  15.324  0.00  0.00    +0.000 C 
ATOM      5  C   UNL     1       7.073   4.435  16.582  0.00  0.00    +0.000 C 
ATOM      6  O   UNL     1       8.259   4.268  16.875  0.00  0.00    +0.000 OA
ATOM      7  N   UNL     1       6.193   5.131  17.403  0.00  0.00    +0.000 N 
ENDROOT
BRANCH   1  13
ATOM      8  C   UNL     1       3.559   4.325  19.035  0.00  0.00    +0.000 A 
ATOM      9  C   UNL     1       2.725   4.399  20.159  0.00  0.00    +0.000 A 
ATOM     10  C   UNL     1       2.020   5.552  20.442  0.00  0.00    +0.000 A 
ATOM     11  C   UNL     1       2.172   6.661  19.628  0.00  0.00    +0.000 A 
ATOM     12  C   UNL     1       3.080   6.657  18.554  0.00  0.00    +0.000 A 
ATOM     13  C   UNL     1       3.785   5.468  18.220  0.00  0.00    +0.000 A 
BRANCH   8  15
ATOM     14  C   UNL     1       3.559   1.972  19.293  0.00  0.00    +0.000 C 
ATOM     15  O   UNL     1       4.170   3.133  18.709  0.00  0.00    +0.000 OA
ENDBRANCH   8  15
BRANCH  12  16
ATOM     16  O   UNL     1       3.257   7.774  17.768  0.00  0.00    +0.000 OA
ATOM     17  C   UNL     1       2.226   8.763  17.835  0.00  0.00    +0.000 C 
ENDBRANCH  12  16
ENDBRANCH   1  13
BRANCH   7  18
ATOM     18  C   UNL     1       6.765   5.819  18.570  0.00  0.00    +0.000 C 
BRANCH  18  19
ATOM     19  C   UNL     1       7.489   7.132  18.320  0.00  0.00    +0.000 A 
ATOM     20  C   UNL     1       7.031   8.077  17.389  0.00  0.00    +0.000 A 
ATOM     21  C   UNL     1       7.587   9.352  17.297  0.00  0.00    +0.000 A 
ATOM     22  C   UNL     1       8.599   9.714  18.177  0.00  0.00    +0.000 A 
ATOM     23  C   UNL     1       9.106   8.791  19.092  0.00  0.00    +0.000 A 
ATOM     24  C   UNL     1       8.551   7.508  19.159  0.00  0.00    +0.000 A 
BRANCH  22  25
ATOM     25  S   UNL     1       9.197  11.387  18.162  0.00  0.00    +0.000 S 
ATOM     26  C   UNL     1       9.248  11.780  19.895  0.00  0.00    +0.000 C 
ATOM     27  O   UNL     1      10.563  11.364  17.662  0.00  0.00    +0.000 OA
ATOM     28  O   UNL     1       8.187  12.214  17.539  0.00  0.00    +0.000 OA
ENDBRANCH  22  25
ENDBRANCH  18  19
ENDBRANCH   7  18
TORSDOF 6
ENDMDL
MODEL 4
REMARK VINA RESULT:      -6.5      5.742      9.093
REMARK  Name = 
REMARK  9 active torsions:
REMARK  status: ('A' for Active; 'I' for Inactive)
REMARK    1  A    between atoms: C_1  and  O_2
REMARK    2  A    between atoms: O_2  and  C_3
REMARK    3  A    between atoms: C_7  and  O_8
REMARK    4  A    between atoms: O_8  and  C_9
REMARK    5  A    between atoms: C_10  and  C_11
REMARK    6  A    between atoms: N_17  and  C_18
REMARK    7  A    between atoms: C_18  and  C_19
REMARK    8  A    between atoms: C_22  and  S_23
REMARK    9  A    between atoms: S_23  and  C_24
REMARK                            x       y       z     vdW  Elec       q    Type
REMARK                         _______ _______ _______ _____ _____    ______ ____
ROOT
ATOM      1  C   UNL     1       1.001  12.877  20.970  0.00  0.00    +0.000 C 
ATOM      2  C   UNL     1       1.606  14.224  21.384  0.00  0.00    +0.000 C 
ATOM      3  C   UNL     1       3.060  14.294  20.948  0.00  0.00    +0.000 C 
ATOM      4  C   UNL     1       3.146  14.175  19.442  0.00  0.00    +0.000 C 
ATOM      5  C   UNL     1       2.357  13.024  18.846  0.00  0.00    +0.000 C 
ATOM      6  O   UNL     1       2.628  12.657  17.701  0.00  0.00    +0.000 OA
ATOM      7  N   UNL     1       1.305  12.481  19.575  0.00  0.00    +0.000 N 
ENDROOT
BRANCH   1  13
ATOM      8  C   UNL     1      -1.434  13.660  20.748  0.00  0.00    +0.000 A 
ATOM      9  C   UNL     1      -2.800  13.560  21.044  0.00  0.00    +0.000 A 
ATOM     10  C   UNL     1      -3.249  12.706  22.032  0.00  0.00    +0.000 A 
ATOM     11  C   UNL     1      -2.341  11.911  22.709  0.00  0.00    +0.000 A 
ATOM     12  C   UNL     1      -0.978  11.907  22.365  0.00  0.00    +0.000 A 
ATOM     13  C   UNL     1      -0.488  12.808  21.380  0.00  0.00    +0.000 A 
BRANCH   8  15
ATOM     14  C   UNL     1      -1.341  15.950  20.157  0.00  0.00    +0.000 C 
ATOM     15  O   UNL     1      -0.995  14.595  19.834  0.00  0.00    +0.000 OA
ENDBRANCH   8  15
BRANCH  12  16
ATOM     16  O   UNL     1      -0.082  11.087  23.015  0.00  0.00    +0.000 OA
ATOM     17  C   UNL     1      -0.517   9.746  23.261  0.00  0.00    +0.000 C 
ENDBRANCH  12  16
ENDBRANCH   1  13
BRANCH   7  18
ATOM     18  C   UNL     1       0.616  11.319  18.995  0.00  0.00    +0.000 C 
BRANCH  18  19
ATOM     19  C   UNL     1       1.301   9.967  19.123  0.00  0.00    +0.000 A 
ATOM     20  C   UNL     1       1.212   9.187  20.286  0.00  0.00    +0.000 A 
ATOM     21  C   UNL     1       1.681   7.876  20.333  0.00  0.00    +0.000 A 
ATOM     22  C   UNL     1       2.219   7.307  19.185  0.00  0.00    +0.000 A 
ATOM     23  C   UNL     1       2.358   8.062  18.020  0.00  0.00    +0.000 A 
ATOM     24  C   UNL     1       1.900   9.384  17.994  0.00  0.00    +0.000 A 
BRANCH  22  25
ATOM     25  S   UNL     1       2.672   5.589  19.203  0.00  0.00    +0.000 S 
ATOM     26  C   UNL     1       1.820   4.994  20.645  0.00  0.00    +0.000 C 
ATOM     27  O   UNL     1       2.075   4.963  18.033  0.00  0.00    +0.000 OA
ATOM     28  O   UNL     1       4.094   5.508  19.450  0.00  0.00    +0.000 OA
ENDBRANCH  22  25
ENDBRANCH  18  19
ENDBRANCH   7  18
TORSDOF 6
ENDMDL
MODEL 5
REMARK VINA RESULT:      -6.5      3.667      6.357
REMARK  Name = 
REMARK  9 active torsions:
REMARK  status: ('A' for Active; 'I' for Inactive)
REMARK    1  A    between atoms: C_1  and  O_2
REMARK    2  A    between atoms: O_2  and  C_3
REMARK    3  A    between atoms: C_7  and  O_8
REMARK    4  A    between atoms: O_8  and  C_9
REMARK    5  A    between atoms: C_10  and  C_11
REMARK    6  A    between atoms: N_17  and  C_18
REMARK    7  A    between atoms: C_18  and  C_19
REMARK    8  A    between atoms: C_22  and  S_23
REMARK    9  A    between atoms: S_23  and  C_24
REMARK                            x       y       z     vdW  Elec       q    Type
REMARK                         _______ _______ _______ _____ _____    ______ ____
ROOT
ATOM      1  C   UNL     1       3.923   4.173  19.579  0.00  0.00    +0.000 C 
ATOM      2  C   UNL     1       4.046   2.806  20.264  0.00  0.00    +0.000 C 
ATOM      3  C   UNL     1       3.102   2.736  21.453  0.00  0.00    +0.000 C 
ATOM      4  C   UNL     1       1.675   2.905  20.980  0.00  0.00    +0.000 C 
ATOM      5  C   UNL     1       1.445   4.084  20.053  0.00  0.00    +0.000 C 
ATOM      6  O   UNL     1       0.291   4.487  19.890  0.00  0.00    +0.000 OA
ATOM      7  N   UNL     1       2.525   4.613  19.356  0.00  0.00    +0.000 N 
ENDROOT
BRANCH   1  13
ATOM      8  C   UNL     1       6.167   4.772  18.486  0.00  0.00    +0.000 A 
ATOM      9  C   UNL     1       7.058   4.772  17.404  0.00  0.00    +0.000 A 
ATOM     10  C   UNL     1       6.651   4.355  16.153  0.00  0.00    +0.000 A 
ATOM     11  C   UNL     1       5.359   3.894  15.975  0.00  0.00    +0.000 A 
ATOM     12  C   UNL     1       4.470   3.781  17.059  0.00  0.00    +0.000 A 
ATOM     13  C   UNL     1       4.855   4.243  18.348  0.00  0.00    +0.000 A 
BRANCH   8  15
ATOM     14  C   UNL     1       7.931   5.717  19.750  0.00  0.00    +0.000 C 
ATOM     15  O   UNL     1       6.561   5.292  19.701  0.00  0.00    +0.000 OA
ENDBRANCH   8  15
BRANCH  12  16
ATOM     16  O   UNL     1       3.196   3.286  16.887  0.00  0.00    +0.000 OA
ATOM     17  C   UNL     1       2.993   1.921  17.263  0.00  0.00    +0.000 C 
ENDBRANCH  12  16
ENDBRANCH   1  13
BRANCH   7  18
ATOM     18  C   UNL     1       2.274   5.802  18.528  0.00  0.00    +0.000 C 
BRANCH  18  19
ATOM     19  C   UNL     1       2.039   7.118  19.252  0.00  0.00    +0.000 A 
ATOM     20  C   UNL     1       1.848   8.328  18.568  0.00  0.00    +0.000 A 
ATOM     21  C   UNL     1       1.450   9.492  19.223  0.00  0.00    +0.000 A 
ATOM     22  C   UNL     1       1.198   9.448  20.588  0.00  0.00    +0.000 A 
ATOM     23  C   UNL     1       1.413   8.273  21.311  0.00  0.00    +0.000 A 
ATOM     24  C   UNL     1       1.831   7.117  20.642  0.00  0.00    +0.000 A 
BRANCH  22  25
ATOM     25  S   UNL     1       0.541  10.890  21.392  0.00  0.00    +0.000 S 
ATOM     26  C   UNL     1      -0.960  11.172  20.485  0.00  0.00    +0.000 C 
ATOM     27  O   UNL     1       0.186  10.514  22.752  0.00  0.00    +0.000 OA
ATOM     28  O   UNL     1       1.442  11.991  21.132  0.00  0.00    +0.000 OA
ENDBRANCH  22  25
ENDBRANCH  18  19
ENDBRANCH   7  18
TORSDOF 6
ENDMDL
MODEL 6
REMARK VINA RESULT:      -6.4      3.287      5.885
REMARK  Name = 
REMARK  9 active torsions:
REMARK  status: ('A' for Active; 'I' for Inactive)
REMARK    1  A    between atoms: C_1  and  O_2
REMARK    2  A    between atoms: O_2  and  C_3
REMARK    3  A    between atoms: C_7  and  O_8
REMARK    4  A    between atoms: O_8  and  C_9
REMARK    5  A    between atoms: C_10  and  C_11
REMARK    6  A    between atoms: N_17  and  C_18
REMARK    7  A    between atoms: C_18  and  C_19
REMARK    8  A    between atoms: C_22  and  S_23
REMARK    9  A    between atoms: S_23  and  C_24
REMARK                            x       y       z     vdW  Elec       q    Type
REMARK                         _______ _______ _______ _____ _____    ______ ____
ROOT
ATOM      1  C   UNL     1       4.778   3.989  18.530  0.00  0.00    +0.000 C 
ATOM      2  C   UNL     1       4.614   2.926  17.437  0.00  0.00    +0.000 C 
ATOM      3  C   UNL     1       3.632   1.860  17.895  0.00  0.00    +0.000 C 
ATOM      4  C   UNL     1       2.281   2.490  18.152  0.00  0.00    +0.000 C 
ATOM      5  C   UNL     1       2.313   3.739  19.014  0.00  0.00    +0.000 C 
ATOM      6  O   UNL     1       1.264   4.118  19.539  0.00  0.00    +0.000 OA
ATOM      7  N   UNL     1       3.499   4.458  19.113  0.00  0.00    +0.000 N 
ENDROOT
BRANCH   1  13
ATOM      8  C   UNL     1       5.594   5.673  16.773  0.00  0.00    +0.000 A 
ATOM      9  C   UNL     1       6.412   6.733  16.357  0.00  0.00    +0.000 A 
ATOM     10  C   UNL     1       7.456   7.172  17.146  0.00  0.00    +0.000 A 
ATOM     11  C   UNL     1       7.672   6.583  18.380  0.00  0.00    +0.000 A 
ATOM     12  C   UNL     1       6.807   5.591  18.875  0.00  0.00    +0.000 A 
ATOM     13  C   UNL     1       5.750   5.095  18.062  0.00  0.00    +0.000 A 
BRANCH   8  15
ATOM     14  C   UNL     1       5.114   4.759  14.643  0.00  0.00    +0.000 C 
ATOM     15  O   UNL     1       4.625   5.179  15.925  0.00  0.00    +0.000 OA
ENDBRANCH   8  15
BRANCH  12  16
ATOM     16  O   UNL     1       7.001   5.033  20.119  0.00  0.00    +0.000 OA
ATOM     17  C   UNL     1       8.303   5.198  20.689  0.00  0.00    +0.000 C 
ENDBRANCH  12  16
ENDBRANCH   1  13
BRANCH   7  18
ATOM     18  C   UNL     1       3.508   5.617  20.017  0.00  0.00    +0.000 C 
BRANCH  18  19
ATOM     19  C   UNL     1       2.596   6.782  19.667  0.00  0.00    +0.000 A 
ATOM     20  C   UNL     1       1.795   7.424  20.623  0.00  0.00    +0.000 A 
ATOM     21  C   UNL     1       1.107   8.603  20.339  0.00  0.00    +0.000 A 
ATOM     22  C   UNL     1       1.247   9.183  19.085  0.00  0.00    +0.000 A 
ATOM     23  C   UNL     1       2.005   8.556  18.095  0.00  0.00    +0.000 A 
ATOM     24  C   UNL     1       2.674   7.362  18.389  0.00  0.00    +0.000 A 
BRANCH  22  25
ATOM     25  S   UNL     1       0.496  10.764  18.777  0.00  0.00    +0.000 S 
ATOM     26  C   UNL     1      -0.112  11.208  20.387  0.00  0.00    +0.000 C 
ATOM     27  O   UNL     1       1.557  11.694  18.421  0.00  0.00    +0.000 OA
ATOM     28  O   UNL     1      -0.638  10.554  17.905  0.00  0.00    +0.000 OA
ENDBRANCH  22  25
ENDBRANCH  18  19
ENDBRANCH   7  18
TORSDOF 6
ENDMDL
MODEL 7
REMARK VINA RESULT:      -6.3      3.684      6.513
REMARK  Name = 
REMARK  9 active torsions:
REMARK  status: ('A' for Active; 'I' for Inactive)
REMARK    1  A    between atoms: C_1  and  O_2
REMARK    2  A    between atoms: O_2  and  C_3
REMARK    3  A    between atoms: C_7  and  O_8
REMARK    4  A    between atoms: O_8  and  C_9
REMARK    5  A    between atoms: C_10  and  C_11
REMARK    6  A    between atoms: N_17  and  C_18
REMARK    7  A    between atoms: C_18  and  C_19
REMARK    8  A    between atoms: C_22  and  S_23
REMARK    9  A    between atoms: S_23  and  C_24
REMARK                            x       y       z     vdW  Elec       q    Type
REMARK                         _______ _______ _______ _____ _____    ______ ____
ROOT
ATOM      1  C   UNL     1       3.882   4.166  19.659  0.00  0.00    +0.000 C 
ATOM      2  C   UNL     1       3.974   2.796  20.342  0.00  0.00    +0.000 C 
ATOM      3  C   UNL     1       3.013   2.739  21.519  0.00  0.00    +0.000 C 
ATOM      4  C   UNL     1       1.595   2.933  21.027  0.00  0.00    +0.000 C 
ATOM      5  C   UNL     1       1.397   4.117  20.099  0.00  0.00    +0.000 C 
ATOM      6  O   UNL     1       0.252   4.540  19.922  0.00  0.00    +0.000 OA
ATOM      7  N   UNL     1       2.495   4.630  19.418  0.00  0.00    +0.000 N 
ENDROOT
BRANCH   1  13
ATOM      8  C   UNL     1       4.386   3.752  17.176  0.00  0.00    +0.000 A 
ATOM      9  C   UNL     1       5.200   3.868  16.040  0.00  0.00    +0.000 A 
ATOM     10  C   UNL     1       6.491   4.345  16.140  0.00  0.00    +0.000 A 
ATOM     11  C   UNL     1       6.974   4.751  17.372  0.00  0.00    +0.000 A 
ATOM     12  C   UNL     1       6.152   4.748  18.513  0.00  0.00    +0.000 A 
ATOM     13  C   UNL     1       4.832   4.223  18.441  0.00  0.00    +0.000 A 
BRANCH   8  15
ATOM     14  C   UNL     1       3.103   1.775  17.392  0.00  0.00    +0.000 C 
ATOM     15  O   UNL     1       3.138   3.174  17.072  0.00  0.00    +0.000 OA
ENDBRANCH   8  15
BRANCH  12  16
ATOM     16  O   UNL     1       6.622   5.189  19.731  0.00  0.00    +0.000 OA
ATOM     17  C   UNL     1       7.950   5.720  19.739  0.00  0.00    +0.000 C 
ENDBRANCH  12  16
ENDBRANCH   1  13
BRANCH   7  18
ATOM     18  C   UNL     1       2.274   5.824  18.590  0.00  0.00    +0.000 C 
BRANCH  18  19
ATOM     19  C   UNL     1       2.031   7.139  19.313  0.00  0.00    +0.000 A 
ATOM     20  C   UNL     1       1.825   8.346  18.628  0.00  0.00    +0.000 A 
ATOM     21  C   UNL     1       1.419   9.507  19.284  0.00  0.00    +0.000 A 
ATOM     22  C   UNL     1       1.173   9.462  20.650  0.00  0.00    +0.000 A 
ATOM     23  C   UNL     1       1.402   8.290  21.373  0.00  0.00    +0.000 A 
ATOM     24  C   UNL     1       1.828   7.138  20.703  0.00  0.00    +0.000 A 
BRANCH  22  25
ATOM     25  S   UNL     1       0.506  10.899  21.455  0.00  0.00    +0.000 S 
ATOM     26  C   UNL     1      -0.974  11.198  20.518  0.00  0.00    +0.000 C 
ATOM     27  O   UNL     1       0.119  10.510  22.803  0.00  0.00    +0.000 OA
ATOM     28  O   UNL     1       1.418  11.998  21.227  0.00  0.00    +0.000 OA
ENDBRANCH  22  25
ENDBRANCH  18  19
ENDBRANCH   7  18
TORSDOF 6
ENDMDL
MODEL 8
REMARK VINA RESULT:      -6.3      5.672      9.226
REMARK  Name = 
REMARK  9 active torsions:
REMARK  status: ('A' for Active; 'I' for Inactive)
REMARK    1  A    between atoms: C_1  and  O_2
REMARK    2  A    between atoms: O_2  and  C_3
REMARK    3  A    between atoms: C_7  and  O_8
REMARK    4  A    between atoms: O_8  and  C_9
REMARK    5  A    between atoms: C_10  and  C_11
REMARK    6  A    between atoms: N_17  and  C_18
REMARK    7  A    between atoms: C_18  and  C_19
REMARK    8  A    between atoms: C_22  and  S_23
REMARK    9  A    between atoms: S_23  and  C_24
REMARK                            x       y       z     vdW  Elec       q    Type
REMARK                         _______ _______ _______ _____ _____    ______ ____
ROOT
ATOM      1  C   UNL     1       0.981  12.650  20.983  0.00  0.00    +0.000 C 
ATOM      2  C   UNL     1       1.730  13.901  21.459  0.00  0.00    +0.000 C 
ATOM      3  C   UNL     1       3.149  13.894  20.913  0.00  0.00    +0.000 C 
ATOM      4  C   UNL     1       3.111  13.908  19.401  0.00  0.00    +0.000 C 
ATOM      5  C   UNL     1       2.183  12.883  18.775  0.00  0.00    +0.000 C 
ATOM      6  O   UNL     1       2.335  12.602  17.584  0.00  0.00    +0.000 OA
ATOM      7  N   UNL     1       1.145  12.361  19.539  0.00  0.00    +0.000 N 
ENDROOT
BRANCH   1  13
ATOM      8  C   UNL     1      -0.868  11.745  22.517  0.00  0.00    +0.000 A 
ATOM      9  C   UNL     1      -2.157  11.792  23.064  0.00  0.00    +0.000 A 
ATOM     10  C   UNL     1      -3.108  12.658  22.564  0.00  0.00    +0.000 A 
ATOM     11  C   UNL     1      -2.769  13.520  21.535  0.00  0.00    +0.000 A 
ATOM     12  C   UNL     1      -1.456  13.576  21.034  0.00  0.00    +0.000 A 
ATOM     13  C   UNL     1      -0.473  12.663  21.506  0.00  0.00    +0.000 A 
BRANCH   8  15
ATOM     14  C   UNL     1      -0.552   9.534  23.301  0.00  0.00    +0.000 C 
ATOM     15  O   UNL     1       0.034  10.799  22.959  0.00  0.00    +0.000 OA
ENDBRANCH   8  15
BRANCH  12  16
ATOM     16  O   UNL     1      -1.113  14.461  20.036  0.00  0.00    +0.000 OA
ATOM     17  C   UNL     1      -1.488  15.825  20.245  0.00  0.00    +0.000 C 
ENDBRANCH  12  16
ENDBRANCH   1  13
BRANCH   7  18
ATOM     18  C   UNL     1       0.317  11.316  18.920  0.00  0.00    +0.000 C 
BRANCH  18  19
ATOM     19  C   UNL     1       0.875   9.901  18.907  0.00  0.00    +0.000 A 
ATOM     20  C   UNL     1       1.391   9.308  17.744  0.00  0.00    +0.000 A 
ATOM     21  C   UNL     1       2.068   8.091  17.775  0.00  0.00    +0.000 A 
ATOM     22  C   UNL     1       2.273   7.460  18.995  0.00  0.00    +0.000 A 
ATOM     23  C   UNL     1       1.743   7.999  20.168  0.00  0.00    +0.000 A 
ATOM     24  C   UNL     1       1.049   9.213  20.119  0.00  0.00    +0.000 A 
BRANCH  22  25
ATOM     25  S   UNL     1       3.270   5.991  19.051  0.00  0.00    +0.000 S 
ATOM     26  C   UNL     1       2.448   4.938  17.879  0.00  0.00    +0.000 C 
ATOM     27  O   UNL     1       4.581   6.326  18.518  0.00  0.00    +0.000 OA
ATOM     28  O   UNL     1       3.125   5.406  20.366  0.00  0.00    +0.000 OA
ENDBRANCH  22  25
ENDBRANCH  18  19
ENDBRANCH   7  18
TORSDOF 6
ENDMDL
MODEL 9
REMARK VINA RESULT:      -6.2      3.266      5.981
REMARK  Name = 
REMARK  9 active torsions:
REMARK  status: ('A' for Active; 'I' for Inactive)
REMARK    1  A    between atoms: C_1  and  O_2
REMARK    2  A    between atoms: O_2  and  C_3
REMARK    3  A    between atoms: C_7  and  O_8
REMARK    4  A    between atoms: O_8  and  C_9
REMARK    5  A    between atoms: C_10  and  C_11
REMARK    6  A    between atoms: N_17  and  C_18
REMARK    7  A    between atoms: C_18  and  C_19
REMARK    8  A    between atoms: C_22  and  S_23
REMARK    9  A    between atoms: S_23  and  C_24
REMARK                            x       y       z     vdW  Elec       q    Type
REMARK                         _______ _______ _______ _____ _____    ______ ____
ROOT
ATOM      1  C   UNL     1       4.857   4.055  18.460  0.00  0.00    +0.000 C 
ATOM      2  C   UNL     1       4.729   3.023  17.333  0.00  0.00    +0.000 C 
ATOM      3  C   UNL     1       3.765   1.923  17.746  0.00  0.00    +0.000 C 
ATOM      4  C   UNL     1       2.398   2.515  18.006  0.00  0.00    +0.000 C 
ATOM      5  C   UNL     1       2.393   3.738  18.906  0.00  0.00    +0.000 C 
ATOM      6  O   UNL     1       1.329   4.077  19.430  0.00  0.00    +0.000 OA
ATOM      7  N   UNL     1       3.561   4.479  19.041  0.00  0.00    +0.000 N 
ENDROOT
BRANCH   1  13
ATOM      8  C   UNL     1       6.858   5.599  18.908  0.00  0.00    +0.000 A 
ATOM      9  C   UNL     1       7.784   6.575  18.514  0.00  0.00    +0.000 A 
ATOM     10  C   UNL     1       7.639   7.243  17.315  0.00  0.00    +0.000 A 
ATOM     11  C   UNL     1       6.589   6.916  16.475  0.00  0.00    +0.000 A 
ATOM     12  C   UNL     1       5.704   5.870  16.789  0.00  0.00    +0.000 A 
ATOM     13  C   UNL     1       5.810   5.197  18.037  0.00  0.00    +0.000 A 
BRANCH   8  15
ATOM     14  C   UNL     1       8.232   5.202  20.795  0.00  0.00    +0.000 C 
ATOM     15  O   UNL     1       6.960   5.019  20.156  0.00  0.00    +0.000 OA
ENDBRANCH   8  15
BRANCH  12  16
ATOM     16  O   UNL     1       4.682   5.521  15.934  0.00  0.00    +0.000 OA
ATOM     17  C   UNL     1       5.074   5.024  14.652  0.00  0.00    +0.000 C 
ENDBRANCH  12  16
ENDBRANCH   1  13
BRANCH   7  18
ATOM     18  C   UNL     1       3.534   5.609  19.981  0.00  0.00    +0.000 C 
BRANCH  18  19
ATOM     19  C   UNL     1       2.620   6.776  19.642  0.00  0.00    +0.000 A 
ATOM     20  C   UNL     1       1.810   7.400  20.603  0.00  0.00    +0.000 A 
ATOM     21  C   UNL     1       1.119   8.580  20.332  0.00  0.00    +0.000 A 
ATOM     22  C   UNL     1       1.263   9.179  19.088  0.00  0.00    +0.000 A 
ATOM     23  C   UNL     1       2.029   8.569  18.093  0.00  0.00    +0.000 A 
ATOM     24  C   UNL     1       2.702   7.375  18.373  0.00  0.00    +0.000 A 
BRANCH  22  25
ATOM     25  S   UNL     1       0.508  10.761  18.799  0.00  0.00    +0.000 S 
ATOM     26  C   UNL     1      -0.042  11.215  20.427  0.00  0.00    +0.000 C 
ATOM     27  O   UNL     1       1.558  11.685  18.401  0.00  0.00    +0.000 OA
ATOM     28  O   UNL     1      -0.657  10.551  17.968  0.00  0.00    +0.000 OA
ENDBRANCH  22  25
ENDBRANCH  18  19
ENDBRANCH   7  18
TORSDOF 6
ENDMDL
