MODEL 1
REMARK VINA RESULT:      -7.6      0.000      0.000
REMARK  Name = 
REMARK  12 active torsions:
REMARK  status: ('A' for Active; 'I' for Inactive)
REMARK    1  A    between atoms: C_1  and  O_2
REMARK    2  A    between atoms: O_2  and  C_3
REMARK    3  A    between atoms: C_3  and  C_5
REMARK    4  A    between atoms: C_7  and  O_8
REMARK    5  A    between atoms: O_8  and  C_9
REMARK    6  A    between atoms: C_9  and  C_10
REMARK    7  A    between atoms: C_10  and  S_11
REMARK    8  A    between atoms: S_11  and  C_12
REMARK    9  A    between atoms: C_14  and  C_15
REMARK   10  A    between atoms: C_26  and  C_27
REMARK   11  A    between atoms: C_27  and  O_29
REMARK   12  A    between atoms: O_29  and  C_30
REMARK                            x       y       z     vdW  Elec       q    Type
REMARK                         _______ _______ _______ _____ _____    ______ ____
ROOT
ATOM      1  C   UNL     1       3.136   3.348  18.583  0.00  0.00    +0.000 C 
ENDROOT
BRANCH   1   2
ATOM      2  O   UNL     1       3.361   4.009  17.325  0.00  0.00    +0.000 OA
BRANCH   2   5
ATOM      3  C   UNL     1       6.794   5.362  17.566  0.00  0.00    +0.000 A 
ATOM      4  C   UNL     1       5.532   4.965  17.999  0.00  0.00    +0.000 A 
ATOM      5  C   UNL     1       4.645   4.436  17.061  0.00  0.00    +0.000 A 
ATOM      6  C   UNL     1       5.064   4.318  15.730  0.00  0.00    +0.000 A 
ATOM      7  C   UNL     1       6.351   4.734  15.388  0.00  0.00    +0.000 A 
ATOM      8  N   UNL     1       7.214   5.251  16.288  0.00  0.00    +0.000 NA
BRANCH   3   9
ATOM      9  C   UNL     1       7.762   5.961  18.533  0.00  0.00    +0.000 C 
ATOM     10  O   UNL     1       8.067   7.144  18.546  0.00  0.00    +0.000 OA
BRANCH   9  12
ATOM     11  C   UNL     1       8.435   5.408  20.715  0.00  0.00    +0.000 C 
ATOM     12  O   UNL     1       8.242   5.000  19.363  0.00  0.00    +0.000 OA
ENDBRANCH   9  12
ENDBRANCH   3   9
BRANCH   7  13
ATOM     13  C   UNL     1       6.851   4.630  13.979  0.00  0.00    +0.000 C 
ATOM     14  O   UNL     1       7.617   5.429  13.467  0.00  0.00    +0.000 OA
BRANCH  13  15
ATOM     15  O   UNL     1       6.324   3.527  13.377  0.00  0.00    +0.000 OA
ATOM     16  C   UNL     1       6.526   3.446  11.967  0.00  0.00    +0.000 C 
ENDBRANCH  13  15
ENDBRANCH   7  13
ENDBRANCH   2   5
ENDBRANCH   1   2
BRANCH   1  17
ATOM     17  C   UNL     1       1.775   3.748  19.184  0.00  0.00    +0.000 C 
BRANCH  17  18
ATOM     18  S   UNL     1       2.059   4.655  20.741  0.00  0.00    +0.000 S 
BRANCH  18  19
ATOM     19  C   UNL     1       1.880   6.321  20.275  0.00  0.00    +0.000 A 
ATOM     20  N   UNL     1       1.345   7.232  21.014  0.00  0.00    +0.000 NA
ATOM     21  C   UNL     1       1.276   8.496  20.464  0.00  0.00    +0.000 A 
ATOM     22  C   UNL     1       1.749   8.829  19.254  0.00  0.00    +0.000 A 
ATOM     23  C   UNL     1       2.367   7.771  18.445  0.00  0.00    +0.000 A 
ATOM     24  O   UNL     1       2.822   7.994  17.333  0.00  0.00    +0.000 OA
ATOM     25  N   UNL     1       2.374   6.540  19.025  0.00  0.00    +0.000 N 
ATOM     26  H   UNL     1       2.770   5.775  18.501  0.00  0.00    +0.000 HD
BRANCH  21  27
ATOM     27  C   UNL     1       0.576   9.548  21.225  0.00  0.00    +0.000 A 
ATOM     28  C   UNL     1      -0.004   9.238  22.464  0.00  0.00    +0.000 A 
ATOM     29  C   UNL     1      -0.725  10.203  23.170  0.00  0.00    +0.000 A 
ATOM     30  C   UNL     1      -0.869  11.487  22.647  0.00  0.00    +0.000 A 
ATOM     31  C   UNL     1      -0.284  11.809  21.421  0.00  0.00    +0.000 A 
ATOM     32  C   UNL     1       0.435  10.843  20.711  0.00  0.00    +0.000 A 
ENDBRANCH  21  27
ENDBRANCH  18  19
ENDBRANCH  17  18
ENDBRANCH   1  17
TORSDOF 10
ENDMDL
MODEL 2
REMARK VINA RESULT:      -7.5      4.223      5.748
REMARK  Name = 
REMARK  12 active torsions:
REMARK  status: ('A' for Active; 'I' for Inactive)
REMARK    1  A    between atoms: C_1  and  O_2
REMARK    2  A    between atoms: O_2  and  C_3
REMARK    3  A    between atoms: C_3  and  C_5
REMARK    4  A    between atoms: C_7  and  O_8
REMARK    5  A    between atoms: O_8  and  C_9
REMARK    6  A    between atoms: C_9  and  C_10
REMARK    7  A    between atoms: C_10  and  S_11
REMARK    8  A    between atoms: S_11  and  C_12
REMARK    9  A    between atoms: C_14  and  C_15
REMARK   10  A    between atoms: C_26  and  C_27
REMARK   11  A    between atoms: C_27  and  O_29
REMARK   12  A    between atoms: O_29  and  C_30
REMARK                            x       y       z     vdW  Elec       q    Type
REMARK                         _______ _______ _______ _____ _____    ______ ____
ROOT
ATOM      1  C   UNL     1       1.350   8.995  18.587  0.00  0.00    +0.000 C 
ENDROOT
BRANCH   1   2
ATOM      2  O   UNL     1       2.130   8.069  19.365  0.00  0.00    +0.000 OA
BRANCH   2   5
ATOM      3  C   UNL     1       2.918   4.689  18.089  0.00  0.00    +0.000 A 
ATOM      4  C   UNL     1       2.255   5.666  18.826  0.00  0.00    +0.000 A 
ATOM      5  C   UNL     1       2.672   6.991  18.698  0.00  0.00    +0.000 A 
ATOM      6  C   UNL     1       3.731   7.283  17.829  0.00  0.00    +0.000 A 
ATOM      7  C   UNL     1       4.332   6.240  17.123  0.00  0.00    +0.000 A 
ATOM      8  N   UNL     1       3.937   4.954  17.243  0.00  0.00    +0.000 NA
BRANCH   3   9
ATOM      9  C   UNL     1       2.521   3.255  18.218  0.00  0.00    +0.000 C 
ATOM     10  O   UNL     1       2.134   2.569  17.284  0.00  0.00    +0.000 OA
BRANCH   9  12
ATOM     11  C   UNL     1       3.965   2.471  19.897  0.00  0.00    +0.000 C 
ATOM     12  O   UNL     1       2.648   2.854  19.509  0.00  0.00    +0.000 OA
ENDBRANCH   9  12
ENDBRANCH   3   9
BRANCH   7  13
ATOM     13  C   UNL     1       5.468   6.496  16.180  0.00  0.00    +0.000 C 
ATOM     14  O   UNL     1       5.540   6.026  15.057  0.00  0.00    +0.000 OA
BRANCH  13  15
ATOM     15  O   UNL     1       6.384   7.317  16.765  0.00  0.00    +0.000 OA
ATOM     16  C   UNL     1       7.394   6.659  17.529  0.00  0.00    +0.000 C 
ENDBRANCH  13  15
ENDBRANCH   7  13
ENDBRANCH   2   5
ENDBRANCH   1   2
BRANCH   1  17
ATOM     17  C   UNL     1       0.362   9.773  19.478  0.00  0.00    +0.000 C 
BRANCH  17  18
ATOM     18  S   UNL     1       0.127  11.442  18.780  0.00  0.00    +0.000 S 
BRANCH  18  19
ATOM     19  C   UNL     1      -1.515  11.412  18.208  0.00  0.00    +0.000 A 
ATOM     20  N   UNL     1      -2.545  11.692  18.932  0.00  0.00    +0.000 NA
ATOM     21  C   UNL     1      -3.771  11.596  18.306  0.00  0.00    +0.000 A 
ATOM     22  C   UNL     1      -3.946  11.270  17.017  0.00  0.00    +0.000 A 
ATOM     23  C   UNL     1      -2.751  10.973  16.217  0.00  0.00    +0.000 A 
ATOM     24  O   UNL     1      -2.827  10.668  15.036  0.00  0.00    +0.000 OA
ATOM     25  N   UNL     1      -1.575  11.049  16.897  0.00  0.00    +0.000 N 
ATOM     26  H   UNL     1      -0.727  10.835  16.397  0.00  0.00    +0.000 HD
BRANCH  21  27
ATOM     27  C   UNL     1      -4.984  11.801  19.118  0.00  0.00    +0.000 A 
ATOM     28  C   UNL     1      -4.903  12.531  20.314  0.00  0.00    +0.000 A 
ATOM     29  C   UNL     1      -6.028  12.681  21.129  0.00  0.00    +0.000 A 
ATOM     30  C   UNL     1      -7.242  12.109  20.755  0.00  0.00    +0.000 A 
ATOM     31  C   UNL     1      -7.336  11.393  19.561  0.00  0.00    +0.000 A 
ATOM     32  C   UNL     1      -6.211  11.237  18.745  0.00  0.00    +0.000 A 
ENDBRANCH  21  27
ENDBRANCH  18  19
ENDBRANCH  17  18
ENDBRANCH   1  17
TORSDOF 10
ENDMDL
MODEL 3
REMARK VINA RESULT:      -7.4      2.586      8.931
REMARK  Name = 
REMARK  12 active torsions:
REMARK  status: ('A' for Active; 'I' for Inactive)
REMARK    1  A    between atoms: C_1  and  O_2
REMARK    2  A    between atoms: O_2  and  C_3
REMARK    3  A    between atoms: C_3  and  C_5
REMARK    4  A    between atoms: C_7  and  O_8
REMARK    5  A    between atoms: O_8  and  C_9
REMARK    6  A    between atoms: C_9  and  C_10
REMARK    7  A    between atoms: C_10  and  S_11
REMARK    8  A    between atoms: S_11  and  C_12
REMARK    9  A    between atoms: C_14  and  C_15
REMARK   10  A    between atoms: C_26  and  C_27
REMARK   11  A    between atoms: C_27  and  O_29
REMARK   12  A    between atoms: O_29  and  C_30
REMARK                            x       y       z     vdW  Elec       q    Type
REMARK                         _______ _______ _______ _____ _____    ______ ____
ROOT
ATOM      1  C   UNL     1       2.164   5.325  19.450  0.00  0.00    +0.000 C 
ENDROOT
BRANCH   1   2
ATOM      2  O   UNL     1       1.982   5.966  20.725  0.00  0.00    +0.000 OA
BRANCH   2   5
ATOM      3  C   UNL     1       0.607   9.290  21.581  0.00  0.00    +0.000 A 
ATOM      4  C   UNL     1       0.951   7.953  21.759  0.00  0.00    +0.000 A 
ATOM      5  C   UNL     1       1.588   7.287  20.712  0.00  0.00    +0.000 A 
ATOM      6  C   UNL     1       1.860   7.991  19.532  0.00  0.00    +0.000 A 
ATOM      7  C   UNL     1       1.486   9.333  19.445  0.00  0.00    +0.000 A 
ATOM      8  N   UNL     1       0.866   9.985  20.452  0.00  0.00    +0.000 NA
BRANCH   3   9
ATOM      9  C   UNL     1      -0.101  10.032  22.667  0.00  0.00    +0.000 C 
ATOM     10  O   UNL     1       0.118   9.867  23.858  0.00  0.00    +0.000 OA
BRANCH   9  12
ATOM     11  C   UNL     1      -0.956  12.219  22.631  0.00  0.00    +0.000 C 
ATOM     12  O   UNL     1      -1.008  10.886  22.130  0.00  0.00    +0.000 OA
ENDBRANCH   9  12
ENDBRANCH   3   9
BRANCH   7  13
ATOM     13  C   UNL     1       1.753  10.134  18.207  0.00  0.00    +0.000 C 
ATOM     14  O   UNL     1       2.202   9.663  17.175  0.00  0.00    +0.000 OA
BRANCH  13  15
ATOM     15  O   UNL     1       1.423  11.439  18.416  0.00  0.00    +0.000 OA
ATOM     16  C   UNL     1       2.447  12.384  18.109  0.00  0.00    +0.000 C 
ENDBRANCH  13  15
ENDBRANCH   7  13
ENDBRANCH   2   5
ENDBRANCH   1   2
BRANCH   1  17
ATOM     17  C   UNL     1       2.826   3.942  19.613  0.00  0.00    +0.000 C 
BRANCH  17  18
ATOM     18  S   UNL     1       2.977   3.162  17.971  0.00  0.00    +0.000 S 
BRANCH  18  19
ATOM     19  C   UNL     1       4.494   3.769  17.375  0.00  0.00    +0.000 A 
ATOM     20  N   UNL     1       4.790   3.891  16.125  0.00  0.00    +0.000 NA
ATOM     21  C   UNL     1       6.052   4.377  15.846  0.00  0.00    +0.000 A 
ATOM     22  C   UNL     1       6.948   4.751  16.771  0.00  0.00    +0.000 A 
ATOM     23  C   UNL     1       6.572   4.614  18.184  0.00  0.00    +0.000 A 
ATOM     24  O   UNL     1       7.332   4.932  19.086  0.00  0.00    +0.000 OA
ATOM     25  N   UNL     1       5.331   4.096  18.397  0.00  0.00    +0.000 N 
ATOM     26  H   UNL     1       5.033   3.964  19.351  0.00  0.00    +0.000 HD
BRANCH  21  27
ATOM     27  C   UNL     1       6.478   4.433  14.436  0.00  0.00    +0.000 A 
ATOM     28  C   UNL     1       5.913   3.549  13.505  0.00  0.00    +0.000 A 
ATOM     29  C   UNL     1       6.349   3.544  12.178  0.00  0.00    +0.000 A 
ATOM     30  C   UNL     1       7.349   4.424  11.769  0.00  0.00    +0.000 A 
ATOM     31  C   UNL     1       7.907   5.317  12.685  0.00  0.00    +0.000 A 
ATOM     32  C   UNL     1       7.475   5.322  14.015  0.00  0.00    +0.000 A 
ENDBRANCH  21  27
ENDBRANCH  18  19
ENDBRANCH  17  18
ENDBRANCH   1  17
TORSDOF 10
ENDMDL
MODEL 4
REMARK VINA RESULT:      -7.4      4.499      5.989
REMARK  Name = 
REMARK  12 active torsions:
REMARK  status: ('A' for Active; 'I' for Inactive)
REMARK    1  A    between atoms: C_1  and  O_2
REMARK    2  A    between atoms: O_2  and  C_3
REMARK    3  A    between atoms: C_3  and  C_5
REMARK    4  A    between atoms: C_7  and  O_8
REMARK    5  A    between atoms: O_8  and  C_9
REMARK    6  A    between atoms: C_9  and  C_10
REMARK    7  A    between atoms: C_10  and  S_11
REMARK    8  A    between atoms: S_11  and  C_12
REMARK    9  A    between atoms: C_14  and  C_15
REMARK   10  A    between atoms: C_26  and  C_27
REMARK   11  A    between atoms: C_27  and  O_29
REMARK   12  A    between atoms: O_29  and  C_30
REMARK                            x       y       z     vdW  Elec       q    Type
REMARK                         _______ _______ _______ _____ _____    ______ ____
ROOT
ATOM      1  C   UNL     1       1.946   9.122  18.575  0.00  0.00    +0.000 C 
ENDROOT
BRANCH   1   2
ATOM      2  O   UNL     1       1.872   7.772  19.069  0.00  0.00    +0.000 OA
BRANCH   2   5
ATOM      3  C   UNL     1       4.677   6.136  17.301  0.00  0.00    +0.000 A 
ATOM      4  C   UNL     1       3.766   7.137  17.624  0.00  0.00    +0.000 A 
ATOM      5  C   UNL     1       2.843   6.893  18.640  0.00  0.00    +0.000 A 
ATOM      6  C   UNL     1       2.877   5.657  19.298  0.00  0.00    +0.000 A 
ATOM      7  C   UNL     1       3.831   4.714  18.914  0.00  0.00    +0.000 A 
ATOM      8  N   UNL     1       4.726   4.941  17.929  0.00  0.00    +0.000 NA
BRANCH   3   9
ATOM      9  C   UNL     1       5.663   6.347  16.200  0.00  0.00    +0.000 C 
ATOM     10  O   UNL     1       5.355   6.677  15.065  0.00  0.00    +0.000 OA
BRANCH   9  12
ATOM     11  C   UNL     1       7.537   7.201  17.331  0.00  0.00    +0.000 C 
ATOM     12  O   UNL     1       6.921   6.110  16.652  0.00  0.00    +0.000 OA
ENDBRANCH   9  12
ENDBRANCH   3   9
BRANCH   7  13
ATOM     13  C   UNL     1       3.913   3.376  19.584  0.00  0.00    +0.000 C 
ATOM     14  O   UNL     1       4.960   2.805  19.839  0.00  0.00    +0.000 OA
BRANCH  13  15
ATOM     15  O   UNL     1       2.661   2.913  19.855  0.00  0.00    +0.000 OA
ATOM     16  C   UNL     1       2.016   2.232  18.779  0.00  0.00    +0.000 C 
ENDBRANCH  13  15
ENDBRANCH   7  13
ENDBRANCH   2   5
ENDBRANCH   1   2
BRANCH   1  17
ATOM     17  C   UNL     1       0.640   9.526  17.864  0.00  0.00    +0.000 C 
BRANCH  17  18
ATOM     18  S   UNL     1      -0.480  10.299  19.080  0.00  0.00    +0.000 S 
BRANCH  18  19
ATOM     19  C   UNL     1      -1.883  10.701  18.135  0.00  0.00    +0.000 A 
ATOM     20  N   UNL     1      -2.944  11.263  18.608  0.00  0.00    +0.000 NA
ATOM     21  C   UNL     1      -3.964  11.488  17.705  0.00  0.00    +0.000 A 
ATOM     22  C   UNL     1      -3.905  11.196  16.398  0.00  0.00    +0.000 A 
ATOM     23  C   UNL     1      -2.677  10.571  15.890  0.00  0.00    +0.000 A 
ATOM     24  O   UNL     1      -2.545  10.274  14.712  0.00  0.00    +0.000 OA
ATOM     25  N   UNL     1      -1.722  10.341  16.832  0.00  0.00    +0.000 N 
ATOM     26  H   UNL     1      -0.867   9.895  16.537  0.00  0.00    +0.000 HD
BRANCH  21  27
ATOM     27  C   UNL     1      -5.236  12.030  18.217  0.00  0.00    +0.000 A 
ATOM     28  C   UNL     1      -6.244  12.403  17.315  0.00  0.00    +0.000 A 
ATOM     29  C   UNL     1      -7.431  12.977  17.778  0.00  0.00    +0.000 A 
ATOM     30  C   UNL     1      -7.622  13.179  19.143  0.00  0.00    +0.000 A 
ATOM     31  C   UNL     1      -6.631  12.799  20.049  0.00  0.00    +0.000 A 
ATOM     32  C   UNL     1      -5.440  12.227  19.589  0.00  0.00    +0.000 A 
ENDBRANCH  21  27
ENDBRANCH  18  19
ENDBRANCH  17  18
ENDBRANCH   1  17
TORSDOF 10
ENDMDL
MODEL 5
REMARK VINA RESULT:      -7.4      5.991      8.922
REMARK  Name = 
REMARK  12 active torsions:
REMARK  status: ('A' for Active; 'I' for Inactive)
REMARK    1  A    between atoms: C_1  and  O_2
REMARK    2  A    between atoms: O_2  and  C_3
REMARK    3  A    between atoms: C_3  and  C_5
REMARK    4  A    between atoms: C_7  and  O_8
REMARK    5  A    between atoms: O_8  and  C_9
REMARK    6  A    between atoms: C_9  and  C_10
REMARK    7  A    between atoms: C_10  and  S_11
REMARK    8  A    between atoms: S_11  and  C_12
REMARK    9  A    between atoms: C_14  and  C_15
REMARK   10  A    between atoms: C_26  and  C_27
REMARK   11  A    between atoms: C_27  and  O_29
REMARK   12  A    between atoms: O_29  and  C_30
REMARK                            x       y       z     vdW  Elec       q    Type
REMARK                         _______ _______ _______ _____ _____    ______ ____
ROOT
ATOM      1  C   UNL     1       8.795   9.614  18.645  0.00  0.00    +0.000 C 
ENDROOT
BRANCH   1   2
ATOM      2  O   UNL     1       9.237  10.739  17.863  0.00  0.00    +0.000 OA
BRANCH   2   5
ATOM      3  C   UNL     1       9.597  13.378  20.427  0.00  0.00    +0.000 A 
ATOM      4  C   UNL     1       9.419  12.097  19.912  0.00  0.00    +0.000 A 
ATOM      5  C   UNL     1       9.412  11.934  18.527  0.00  0.00    +0.000 A 
ATOM      6  C   UNL     1       9.592  13.060  17.715  0.00  0.00    +0.000 A 
ATOM      7  C   UNL     1       9.772  14.305  18.318  0.00  0.00    +0.000 A 
ATOM      8  N   UNL     1       9.777  14.474  19.658  0.00  0.00    +0.000 NA
BRANCH   3   9
ATOM      9  C   UNL     1       9.583  13.601  21.904  0.00  0.00    +0.000 C 
ATOM     10  O   UNL     1       9.976  14.626  22.441  0.00  0.00    +0.000 OA
BRANCH   9  12
ATOM     11  C   UNL     1       8.318  12.775  23.702  0.00  0.00    +0.000 C 
ATOM     12  O   UNL     1       9.086  12.505  22.532  0.00  0.00    +0.000 OA
ENDBRANCH   9  12
ENDBRANCH   3   9
BRANCH   7  13
ATOM     13  C   UNL     1       9.970  15.544  17.497  0.00  0.00    +0.000 C 
ATOM     14  O   UNL     1       9.258  16.531  17.573  0.00  0.00    +0.000 OA
BRANCH  13  15
ATOM     15  O   UNL     1      11.045  15.391  16.674  0.00  0.00    +0.000 OA
ATOM     16  C   UNL     1      12.316  15.607  17.285  0.00  0.00    +0.000 C 
ENDBRANCH  13  15
ENDBRANCH   7  13
ENDBRANCH   2   5
ENDBRANCH   1   2
BRANCH   1  17
ATOM     17  C   UNL     1       7.936   8.653  17.799  0.00  0.00    +0.000 C 
BRANCH  17  18
ATOM     18  S   UNL     1       7.991   6.993  18.554  0.00  0.00    +0.000 S 
BRANCH  18  19
ATOM     19  C   UNL     1       6.899   6.066  17.567  0.00  0.00    +0.000 A 
ATOM     20  N   UNL     1       5.799   5.543  17.990  0.00  0.00    +0.000 NA
ATOM     21  C   UNL     1       5.072   4.826  17.061  0.00  0.00    +0.000 A 
ATOM     22  C   UNL     1       5.416   4.675  15.774  0.00  0.00    +0.000 A 
ATOM     23  C   UNL     1       6.667   5.297  15.321  0.00  0.00    +0.000 A 
ATOM     24  O   UNL     1       7.050   5.206  14.164  0.00  0.00    +0.000 OA
ATOM     25  N   UNL     1       7.358   5.959  16.289  0.00  0.00    +0.000 N 
ATOM     26  H   UNL     1       8.233   6.388  16.033  0.00  0.00    +0.000 HD
BRANCH  21  27
ATOM     27  C   UNL     1       3.863   4.118  17.522  0.00  0.00    +0.000 A 
ATOM     28  C   UNL     1       3.898   2.727  17.699  0.00  0.00    +0.000 A 
ATOM     29  C   UNL     1       2.746   2.032  18.073  0.00  0.00    +0.000 A 
ATOM     30  C   UNL     1       1.552   2.720  18.277  0.00  0.00    +0.000 A 
ATOM     31  C   UNL     1       1.510   4.105  18.116  0.00  0.00    +0.000 A 
ATOM     32  C   UNL     1       2.661   4.804  17.738  0.00  0.00    +0.000 A 
ENDBRANCH  21  27
ENDBRANCH  18  19
ENDBRANCH  17  18
ENDBRANCH   1  17
TORSDOF 10
ENDMDL
MODEL 6
REMARK VINA RESULT:      -7.4      0.788      3.605
REMARK  Name = 
REMARK  12 active torsions:
REMARK  status: ('A' for Active; 'I' for Inactive)
REMARK    1  A    between atoms: C_1  and  O_2
REMARK    2  A    between atoms: O_2  and  C_3
REMARK    3  A    between atoms: C_3  and  C_5
REMARK    4  A    between atoms: C_7  and  O_8
REMARK    5  A    between atoms: O_8  and  C_9
REMARK    6  A    between atoms: C_9  and  C_10
REMARK    7  A    between atoms: C_10  and  S_11
REMARK    8  A    between atoms: S_11  and  C_12
REMARK    9  A    between atoms: C_14  and  C_15
REMARK   10  A    between atoms: C_26  and  C_27
REMARK   11  A    between atoms: C_27  and  O_29
REMARK   12  A    between atoms: O_29  and  C_30
REMARK                            x       y       z     vdW  Elec       q    Type
REMARK                         _______ _______ _______ _____ _____    ______ ____
ROOT
ATOM      1  C   UNL     1       4.059   3.493  18.619  0.00  0.00    +0.000 C 
ENDROOT
BRANCH   1   2
ATOM      2  O   UNL     1       4.369   3.188  17.247  0.00  0.00    +0.000 OA
BRANCH   2   5
ATOM      3  C   UNL     1       6.558   4.848  14.772  0.00  0.00    +0.000 A 
ATOM      4  C   UNL     1       5.622   3.942  15.262  0.00  0.00    +0.000 A 
ATOM      5  C   UNL     1       5.268   4.015  16.609  0.00  0.00    +0.000 A 
ATOM      6  C   UNL     1       5.862   5.000  17.408  0.00  0.00    +0.000 A 
ATOM      7  C   UNL     1       6.786   5.872  16.830  0.00  0.00    +0.000 A 
ATOM      8  N   UNL     1       7.137   5.805  15.529  0.00  0.00    +0.000 NA
BRANCH   3   9
ATOM      9  C   UNL     1       6.985   4.784  13.343  0.00  0.00    +0.000 C 
ATOM     10  O   UNL     1       7.902   5.444  12.877  0.00  0.00    +0.000 OA
BRANCH   9  12
ATOM     11  C   UNL     1       6.909   2.940  11.890  0.00  0.00    +0.000 C 
ATOM     12  O   UNL     1       6.204   3.906  12.664  0.00  0.00    +0.000 OA
ENDBRANCH   9  12
ENDBRANCH   3   9
BRANCH   7  13
ATOM     13  C   UNL     1       7.451   6.944  17.639  0.00  0.00    +0.000 C 
ATOM     14  O   UNL     1       7.259   8.137  17.477  0.00  0.00    +0.000 OA
BRANCH  13  15
ATOM     15  O   UNL     1       8.283   6.384  18.561  0.00  0.00    +0.000 OA
ATOM     16  C   UNL     1       7.636   5.765  19.672  0.00  0.00    +0.000 C 
ENDBRANCH  13  15
ENDBRANCH   7  13
ENDBRANCH   2   5
ENDBRANCH   1   2
BRANCH   1  17
ATOM     17  C   UNL     1       2.682   4.174  18.738  0.00  0.00    +0.000 C 
BRANCH  17  18
ATOM     18  S   UNL     1       2.552   4.960  20.380  0.00  0.00    +0.000 S 
BRANCH  18  19
ATOM     19  C   UNL     1       2.085   6.594  20.008  0.00  0.00    +0.000 A 
ATOM     20  N   UNL     1       1.433   7.366  20.810  0.00  0.00    +0.000 NA
ATOM     21  C   UNL     1       1.137   8.626  20.330  0.00  0.00    +0.000 A 
ATOM     22  C   UNL     1       1.506   9.092  19.128  0.00  0.00    +0.000 A 
ATOM     23  C   UNL     1       2.260   8.191  18.246  0.00  0.00    +0.000 A 
ATOM     24  O   UNL     1       2.633   8.540  17.136  0.00  0.00    +0.000 OA
ATOM     25  N   UNL     1       2.491   6.952  18.759  0.00  0.00    +0.000 N 
ATOM     26  H   UNL     1       2.988   6.290  18.184  0.00  0.00    +0.000 HD
BRANCH  21  27
ATOM     27  C   UNL     1       0.302   9.508  21.165  0.00  0.00    +0.000 A 
ATOM     28  C   UNL     1      -0.245  10.675  20.611  0.00  0.00    +0.000 A 
ATOM     29  C   UNL     1      -0.986  11.555  21.403  0.00  0.00    +0.000 A 
ATOM     30  C   UNL     1      -1.190  11.276  22.753  0.00  0.00    +0.000 A 
ATOM     31  C   UNL     1      -0.661  10.111  23.310  0.00  0.00    +0.000 A 
ATOM     32  C   UNL     1       0.084   9.230  22.521  0.00  0.00    +0.000 A 
ENDBRANCH  21  27
ENDBRANCH  18  19
ENDBRANCH  17  18
ENDBRANCH   1  17
TORSDOF 10
ENDMDL
MODEL 7
REMARK VINA RESULT:      -7.4      4.422      5.931
REMARK  Name = 
REMARK  12 active torsions:
REMARK  status: ('A' for Active; 'I' for Inactive)
REMARK    1  A    between atoms: C_1  and  O_2
REMARK    2  A    between atoms: O_2  and  C_3
REMARK    3  A    between atoms: C_3  and  C_5
REMARK    4  A    between atoms: C_7  and  O_8
REMARK    5  A    between atoms: O_8  and  C_9
REMARK    6  A    between atoms: C_9  and  C_10
REMARK    7  A    between atoms: C_10  and  S_11
REMARK    8  A    between atoms: S_11  and  C_12
REMARK    9  A    between atoms: C_14  and  C_15
REMARK   10  A    between atoms: C_26  and  C_27
REMARK   11  A    between atoms: C_27  and  O_29
REMARK   12  A    between atoms: O_29  and  C_30
REMARK                            x       y       z     vdW  Elec       q    Type
REMARK                         _______ _______ _______ _____ _____    ______ ____
ROOT
ATOM      1  C   UNL     1       1.757   8.661  18.431  0.00  0.00    +0.000 C 
ENDROOT
BRANCH   1   2
ATOM      2  O   UNL     1       2.950   8.526  17.638  0.00  0.00    +0.000 OA
BRANCH   2   5
ATOM      3  C   UNL     1       5.306   5.717  17.159  0.00  0.00    +0.000 A 
ATOM      4  C   UNL     1       4.765   6.988  16.989  0.00  0.00    +0.000 A 
ATOM      5  C   UNL     1       3.613   7.319  17.703  0.00  0.00    +0.000 A 
ATOM      6  C   UNL     1       3.056   6.365  18.564  0.00  0.00    +0.000 A 
ATOM      7  C   UNL     1       3.672   5.118  18.677  0.00  0.00    +0.000 A 
ATOM      8  N   UNL     1       4.784   4.787  17.988  0.00  0.00    +0.000 NA
BRANCH   3   9
ATOM      9  C   UNL     1       6.523   5.313  16.392  0.00  0.00    +0.000 C 
ATOM     10  O   UNL     1       7.473   6.053  16.185  0.00  0.00    +0.000 OA
BRANCH   9  12
ATOM     11  C   UNL     1       6.169   3.874  14.570  0.00  0.00    +0.000 C 
ATOM     12  O   UNL     1       6.398   4.030  15.968  0.00  0.00    +0.000 OA
ENDBRANCH   9  12
ENDBRANCH   3   9
BRANCH   7  13
ATOM     13  C   UNL     1       3.119   4.060  19.584  0.00  0.00    +0.000 C 
ATOM     14  O   UNL     1       2.769   4.264  20.734  0.00  0.00    +0.000 OA
BRANCH  13  15
ATOM     15  O   UNL     1       3.072   2.865  18.932  0.00  0.00    +0.000 OA
ATOM     16  C   UNL     1       1.942   2.678  18.080  0.00  0.00    +0.000 C 
ENDBRANCH  13  15
ENDBRANCH   7  13
ENDBRANCH   2   5
ENDBRANCH   1   2
BRANCH   1  17
ATOM     17  C   UNL     1       0.758   9.631  17.770  0.00  0.00    +0.000 C 
BRANCH  17  18
ATOM     18  S   UNL     1      -0.408  10.232  19.038  0.00  0.00    +0.000 S 
BRANCH  18  19
ATOM     19  C   UNL     1      -1.822  10.655  18.117  0.00  0.00    +0.000 A 
ATOM     20  N   UNL     1      -2.866  11.231  18.608  0.00  0.00    +0.000 NA
ATOM     21  C   UNL     1      -3.898  11.472  17.722  0.00  0.00    +0.000 A 
ATOM     22  C   UNL     1      -3.864  11.181  16.413  0.00  0.00    +0.000 A 
ATOM     23  C   UNL     1      -2.653  10.539  15.885  0.00  0.00    +0.000 A 
ATOM     24  O   UNL     1      -2.545  10.243  14.705  0.00  0.00    +0.000 OA
ATOM     25  N   UNL     1      -1.687  10.295  16.811  0.00  0.00    +0.000 N 
ATOM     26  H   UNL     1      -0.843   9.838  16.502  0.00  0.00    +0.000 HD
BRANCH  21  27
ATOM     27  C   UNL     1      -5.154  12.030  18.255  0.00  0.00    +0.000 A 
ATOM     28  C   UNL     1      -5.331  12.141  19.642  0.00  0.00    +0.000 A 
ATOM     29  C   UNL     1      -6.538  12.608  20.167  0.00  0.00    +0.000 A 
ATOM     30  C   UNL     1      -7.577  12.971  19.312  0.00  0.00    +0.000 A 
ATOM     31  C   UNL     1      -7.406  12.876  17.930  0.00  0.00    +0.000 A 
ATOM     32  C   UNL     1      -6.200  12.406  17.402  0.00  0.00    +0.000 A 
ENDBRANCH  21  27
ENDBRANCH  18  19
ENDBRANCH  17  18
ENDBRANCH   1  17
TORSDOF 10
ENDMDL
MODEL 8
REMARK VINA RESULT:      -7.2      5.452      8.687
REMARK  Name = 
REMARK  12 active torsions:
REMARK  status: ('A' for Active; 'I' for Inactive)
REMARK    1  A    between atoms: C_1  and  O_2
REMARK    2  A    between atoms: O_2  and  C_3
REMARK    3  A    between atoms: C_3  and  C_5
REMARK    4  A    between atoms: C_7  and  O_8
REMARK    5  A    between atoms: O_8  and  C_9
REMARK    6  A    between atoms: C_9  and  C_10
REMARK    7  A    between atoms: C_10  and  S_11
REMARK    8  A    between atoms: S_11  and  C_12
REMARK    9  A    between atoms: C_14  and  C_15
REMARK   10  A    between atoms: C_26  and  C_27
REMARK   11  A    between atoms: C_27  and  O_29
REMARK   12  A    between atoms: O_29  and  C_30
REMARK                            x       y       z     vdW  Elec       q    Type
REMARK                         _______ _______ _______ _____ _____    ______ ____
ROOT
ATOM      1  C   UNL     1       8.459   9.150  17.660  0.00  0.00    +0.000 C 
ENDROOT
BRANCH   1   2
ATOM      2  O   UNL     1       8.977   9.398  18.979  0.00  0.00    +0.000 OA
BRANCH   2   5
ATOM      3  C   UNL     1      10.685  12.670  18.760  0.00  0.00    +0.000 A 
ATOM      4  C   UNL     1      10.248  11.415  18.348  0.00  0.00    +0.000 A 
ATOM      5  C   UNL     1       9.476  10.659  19.230  0.00  0.00    +0.000 A 
ATOM      6  C   UNL     1       9.169  11.196  20.486  0.00  0.00    +0.000 A 
ATOM      7  C   UNL     1       9.643  12.466  20.812  0.00  0.00    +0.000 A 
ATOM      8  N   UNL     1      10.394  13.204  19.966  0.00  0.00    +0.000 NA
BRANCH   3   9
ATOM      9  C   UNL     1      11.537  13.500  17.857  0.00  0.00    +0.000 C 
ATOM     10  O   UNL     1      12.278  13.035  17.004  0.00  0.00    +0.000 OA
BRANCH   9  12
ATOM     11  C   UNL     1      11.298  15.675  17.003  0.00  0.00    +0.000 C 
ATOM     12  O   UNL     1      11.365  14.817  18.138  0.00  0.00    +0.000 OA
ENDBRANCH   9  12
ENDBRANCH   3   9
BRANCH   7  13
ATOM     13  C   UNL     1       9.344  13.089  22.142  0.00  0.00    +0.000 C 
ATOM     14  O   UNL     1       9.576  14.255  22.416  0.00  0.00    +0.000 OA
BRANCH  13  15
ATOM     15  O   UNL     1       8.784  12.167  22.973  0.00  0.00    +0.000 OA
ATOM     16  C   UNL     1       8.346  12.668  24.235  0.00  0.00    +0.000 C 
ENDBRANCH  13  15
ENDBRANCH   7  13
ENDBRANCH   2   5
ENDBRANCH   1   2
BRANCH   1  17
ATOM     17  C   UNL     1       7.225   8.229  17.712  0.00  0.00    +0.000 C 
BRANCH  17  18
ATOM     18  S   UNL     1       7.732   6.598  18.354  0.00  0.00    +0.000 S 
BRANCH  18  19
ATOM     19  C   UNL     1       6.435   5.550  17.859  0.00  0.00    +0.000 A 
ATOM     20  N   UNL     1       5.348   5.368  18.528  0.00  0.00    +0.000 NA
ATOM     21  C   UNL     1       4.440   4.483  17.982  0.00  0.00    +0.000 A 
ATOM     22  C   UNL     1       4.604   3.846  16.813  0.00  0.00    +0.000 A 
ATOM     23  C   UNL     1       5.846   4.087  16.069  0.00  0.00    +0.000 A 
ATOM     24  O   UNL     1       6.071   3.545  14.997  0.00  0.00    +0.000 OA
ATOM     25  N   UNL     1       6.717   4.940  16.674  0.00  0.00    +0.000 N 
ATOM     26  H   UNL     1       7.594   5.124  16.212  0.00  0.00    +0.000 HD
BRANCH  21  27
ATOM     27  C   UNL     1       3.231   4.160  18.761  0.00  0.00    +0.000 A 
ATOM     28  C   UNL     1       2.304   3.237  18.253  0.00  0.00    +0.000 A 
ATOM     29  C   UNL     1       1.123   2.966  18.947  0.00  0.00    +0.000 A 
ATOM     30  C   UNL     1       0.858   3.610  20.154  0.00  0.00    +0.000 A 
ATOM     31  C   UNL     1       1.780   4.519  20.674  0.00  0.00    +0.000 A 
ATOM     32  C   UNL     1       2.963   4.796  19.980  0.00  0.00    +0.000 A 
ENDBRANCH  21  27
ENDBRANCH  18  19
ENDBRANCH  17  18
ENDBRANCH   1  17
TORSDOF 10
ENDMDL
MODEL 9
REMARK VINA RESULT:      -7.2      3.905      5.749
REMARK  Name = 
REMARK  12 active torsions:
REMARK  status: ('A' for Active; 'I' for Inactive)
REMARK    1  A    between atoms: C_1  and  O_2
REMARK    2  A    between atoms: O_2  and  C_3
REMARK    3  A    between atoms: C_3  and  C_5
REMARK    4  A    between atoms: C_7  and  O_8
REMARK    5  A    between atoms: O_8  and  C_9
REMARK    6  A    between atoms: C_9  and  C_10
REMARK    7  A    between atoms: C_10  and  S_11
REMARK    8  A    between atoms: S_11  and  C_12
REMARK    9  A    between atoms: C_14  and  C_15
REMARK   10  A    between atoms: C_26  and  C_27
REMARK   11  A    between atoms: C_27  and  O_29
REMARK   12  A    between atoms: O_29  and  C_30
REMARK                            x       y       z     vdW  Elec       q    Type
REMARK                         _______ _______ _______ _____ _____    ______ ____
ROOT
ATOM      1  C   UNL     1       2.310   7.309  19.600  0.00  0.00    +0.000 C 
ENDROOT
BRANCH   1   2
ATOM      2  O   UNL     1       2.986   7.016  18.364  0.00  0.00    +0.000 OA
BRANCH   2   5
ATOM      3  C   UNL     1       5.960   4.890  17.812  0.00  0.00    +0.000 A 
ATOM      4  C   UNL     1       5.131   6.002  17.695  0.00  0.00    +0.000 A 
ATOM      5  C   UNL     1       3.919   6.002  18.385  0.00  0.00    +0.000 A 
ATOM      6  C   UNL     1       3.591   4.890  19.171  0.00  0.00    +0.000 A 
ATOM      7  C   UNL     1       4.487   3.822  19.236  0.00  0.00    +0.000 A 
ATOM      8  N   UNL     1       5.661   3.812  18.569  0.00  0.00    +0.000 NA
BRANCH   3   9
ATOM      9  C   UNL     1       7.254   4.838  17.067  0.00  0.00    +0.000 C 
ATOM     10  O   UNL     1       8.226   4.198  17.437  0.00  0.00    +0.000 OA
BRANCH   9  12
ATOM     11  C   UNL     1       7.002   4.886  14.733  0.00  0.00    +0.000 C 
ATOM     12  O   UNL     1       7.176   5.605  15.950  0.00  0.00    +0.000 OA
ENDBRANCH   9  12
ENDBRANCH   3   9
BRANCH   7  13
ATOM     13  C   UNL     1       4.187   2.608  20.062  0.00  0.00    +0.000 C 
ATOM     14  O   UNL     1       5.040   1.846  20.486  0.00  0.00    +0.000 OA
BRANCH  13  15
ATOM     15  O   UNL     1       2.844   2.496  20.256  0.00  0.00    +0.000 OA
ATOM     16  C   UNL     1       2.409   2.632  21.608  0.00  0.00    +0.000 C 
ENDBRANCH  13  15
ENDBRANCH   7  13
ENDBRANCH   2   5
ENDBRANCH   1   2
BRANCH   1  17
ATOM     17  C   UNL     1       1.560   8.653  19.518  0.00  0.00    +0.000 C 
BRANCH  17  18
ATOM     18  S   UNL     1       1.964   9.459  17.932  0.00  0.00    +0.000 S 
BRANCH  18  19
ATOM     19  C   UNL     1       1.534  11.122  18.204  0.00  0.00    +0.000 A 
ATOM     20  N   UNL     1       2.368  12.105  18.177  0.00  0.00    +0.000 NA
ATOM     21  C   UNL     1       1.840  13.355  18.435  0.00  0.00    +0.000 A 
ATOM     22  C   UNL     1       0.544  13.602  18.672  0.00  0.00    +0.000 A 
ATOM     23  C   UNL     1      -0.381  12.462  18.681  0.00  0.00    +0.000 A 
ATOM     24  O   UNL     1      -1.577  12.604  18.889  0.00  0.00    +0.000 OA
ATOM     25  N   UNL     1       0.202  11.253  18.456  0.00  0.00    +0.000 N 
ATOM     26  H   UNL     1      -0.388  10.435  18.471  0.00  0.00    +0.000 HD
BRANCH  21  27
ATOM     27  C   UNL     1       2.770  14.496  18.521  0.00  0.00    +0.000 A 
ATOM     28  C   UNL     1       4.111  14.329  18.144  0.00  0.00    +0.000 A 
ATOM     29  C   UNL     1       5.021  15.380  18.279  0.00  0.00    +0.000 A 
ATOM     30  C   UNL     1       4.598  16.608  18.787  0.00  0.00    +0.000 A 
ATOM     31  C   UNL     1       3.263  16.788  19.151  0.00  0.00    +0.000 A 
ATOM     32  C   UNL     1       2.351  15.736  19.021  0.00  0.00    +0.000 A 
ENDBRANCH  21  27
ENDBRANCH  18  19
ENDBRANCH  17  18
ENDBRANCH   1  17
TORSDOF 10
ENDMDL
