MODEL 1
REMARK VINA RESULT:      -7.5      0.000      0.000
REMARK  Name = 
REMARK  7 active torsions:
REMARK  status: ('A' for Active; 'I' for Inactive)
REMARK    1  A    between atoms: C_2  and  C_3
REMARK    2  A    between atoms: C_3  and  C_4
REMARK    3  A    between atoms: C_4  and  C_5
REMARK    4  A    between atoms: C_18  and  N_19
REMARK    5  A    between atoms: N_19  and  C_20
REMARK    6  A    between atoms: N_19  and  C_27
REMARK    7  A    between atoms: C_20  and  C_21
REMARK                            x       y       z     vdW  Elec       q    Type
REMARK                         _______ _______ _______ _____ _____    ______ ____
ROOT
ATOM      1  O   UNL     1       2.720   8.966  17.134  0.00  0.00    +0.000 OA
ATOM      2  C   UNL     1       2.082   9.165  18.170  0.00  0.00    +0.000 C 
ATOM      3  N   UNL     1       1.952  10.457  18.712  0.00  0.00    +0.000 N 
ATOM      4  C   UNL     1       1.142  10.727  19.888  0.00  0.00    +0.000 C 
ATOM      5  C   UNL     1       1.219  12.138  20.446  0.00  0.00    +0.000 C 
ATOM      6  C   UNL     1       1.164  13.267  19.409  0.00  0.00    +0.000 C 
ATOM      7  C   UNL     1       2.298  12.984  18.403  0.00  0.00    +0.000 C 
ATOM      8  C   UNL     1       2.405  11.559  17.865  0.00  0.00    +0.000 C 
ATOM      9  C   UNL     1      -0.177  13.535  18.681  0.00  0.00    +0.000 C 
ATOM     10  C   UNL     1      -1.336  14.062  19.587  0.00  0.00    +0.000 C 
ATOM     11  C   UNL     1      -0.760  15.275  20.361  0.00  0.00    +0.000 C 
ATOM     12  C   UNL     1       0.588  14.992  21.007  0.00  0.00    +0.000 C 
ATOM     13  O   UNL     1       1.536  14.510  20.053  0.00  0.00    +0.000 OA
ENDROOT
BRANCH   2  14
ATOM     14  C   UNL     1       1.383   8.010  18.894  0.00  0.00    +0.000 C 
BRANCH  14  15
ATOM     15  C   UNL     1       2.394   7.009  19.477  0.00  0.00    +0.000 C 
BRANCH  15  16
ATOM     16  C   UNL     1       1.948   5.565  19.382  0.00  0.00    +0.000 A 
ATOM     17  C   UNL     1       1.980   4.884  18.155  0.00  0.00    +0.000 A 
ATOM     18  C   UNL     1       1.587   3.546  18.071  0.00  0.00    +0.000 A 
ATOM     19  C   UNL     1       1.156   2.870  19.213  0.00  0.00    +0.000 A 
ATOM     20  C   UNL     1       1.126   3.536  20.434  0.00  0.00    +0.000 A 
ATOM     21  C   UNL     1       1.518   4.873  20.522  0.00  0.00    +0.000 A 
ENDBRANCH  15  16
ENDBRANCH  14  15
ENDBRANCH   2  14
BRANCH  10  22
ATOM     22  N   UNL     1      -1.969  13.046  20.464  0.00  0.00    +0.000 NA
BRANCH  22  23
ATOM     23  C   UNL     1      -2.264  13.469  21.853  0.00  0.00    +0.000 C 
ATOM     24  C   UNL     1      -2.902  12.469  22.791  0.00  0.00    +0.000 C 
ATOM     25  C   UNL     1      -1.499  12.922  23.030  0.00  0.00    +0.000 C 
ENDBRANCH  22  23
BRANCH  22  26
ATOM     26  C   UNL     1      -3.084  12.289  19.856  0.00  0.00    +0.000 C 
BRANCH  26  27
ATOM     27  C   UNL     1      -2.958  11.471  18.581  0.00  0.00    +0.000 A 
ATOM     28  C   UNL     1      -1.959  10.542  18.273  0.00  0.00    +0.000 A 
ATOM     29  C   UNL     1      -1.979   9.849  17.053  0.00  0.00    +0.000 A 
ATOM     30  C   UNL     1      -3.016  10.048  16.140  0.00  0.00    +0.000 A 
ATOM     31  C   UNL     1      -4.022  10.954  16.441  0.00  0.00    +0.000 A 
ATOM     32  C   UNL     1      -3.998  11.654  17.640  0.00  0.00    +0.000 A 
ENDBRANCH  26  27
ENDBRANCH  22  26
ENDBRANCH  10  22
TORSDOF 7
ENDMDL
MODEL 2
REMARK VINA RESULT:      -7.3      4.244      7.145
REMARK  Name = 
REMARK  7 active torsions:
REMARK  status: ('A' for Active; 'I' for Inactive)
REMARK    1  A    between atoms: C_2  and  C_3
REMARK    2  A    between atoms: C_3  and  C_4
REMARK    3  A    between atoms: C_4  and  C_5
REMARK    4  A    between atoms: C_18  and  N_19
REMARK    5  A    between atoms: N_19  and  C_20
REMARK    6  A    between atoms: N_19  and  C_27
REMARK    7  A    between atoms: C_20  and  C_21
REMARK                            x       y       z     vdW  Elec       q    Type
REMARK                         _______ _______ _______ _____ _____    ______ ____
ROOT
ATOM      1  O   UNL     1      -7.623  11.749  19.409  0.00  0.00    +0.000 OA
ATOM      2  C   UNL     1      -6.634  12.486  19.407  0.00  0.00    +0.000 C 
ATOM      3  N   UNL     1      -6.279  13.235  20.544  0.00  0.00    +0.000 N 
ATOM      4  C   UNL     1      -5.077  14.050  20.592  0.00  0.00    +0.000 C 
ATOM      5  C   UNL     1      -4.904  14.921  21.825  0.00  0.00    +0.000 C 
ATOM      6  C   UNL     1      -5.224  14.246  23.166  0.00  0.00    +0.000 C 
ATOM      7  C   UNL     1      -6.662  13.701  23.042  0.00  0.00    +0.000 C 
ATOM      8  C   UNL     1      -6.997  12.914  21.777  0.00  0.00    +0.000 C 
ATOM      9  C   UNL     1      -4.257  13.158  23.692  0.00  0.00    +0.000 C 
ATOM     10  C   UNL     1      -2.829  13.662  24.077  0.00  0.00    +0.000 C 
ATOM     11  C   UNL     1      -3.039  14.864  25.032  0.00  0.00    +0.000 C 
ATOM     12  C   UNL     1      -4.046  15.879  24.510  0.00  0.00    +0.000 C 
ATOM     13  O   UNL     1      -5.295  15.263  24.194  0.00  0.00    +0.000 OA
ENDROOT
BRANCH   2  14
ATOM     14  C   UNL     1      -5.738  12.592  18.170  0.00  0.00    +0.000 C 
BRANCH  14  15
ATOM     15  C   UNL     1      -5.357  11.206  17.623  0.00  0.00    +0.000 C 
BRANCH  15  16
ATOM     16  C   UNL     1      -3.875  10.906  17.703  0.00  0.00    +0.000 A 
ATOM     17  C   UNL     1      -3.311   9.874  16.936  0.00  0.00    +0.000 A 
ATOM     18  C   UNL     1      -1.940   9.609  16.995  0.00  0.00    +0.000 A 
ATOM     19  C   UNL     1      -1.115  10.373  17.820  0.00  0.00    +0.000 A 
ATOM     20  C   UNL     1      -1.664  11.400  18.580  0.00  0.00    +0.000 A 
ATOM     21  C   UNL     1      -3.034  11.668  18.524  0.00  0.00    +0.000 A 
ENDBRANCH  15  16
ENDBRANCH  14  15
ENDBRANCH   2  14
BRANCH  10  22
ATOM     22  N   UNL     1      -1.931  13.963  22.935  0.00  0.00    +0.000 NA
BRANCH  22  23
ATOM     23  C   UNL     1      -0.646  14.620  23.264  0.00  0.00    +0.000 C 
ATOM     24  C   UNL     1       0.231  15.101  22.129  0.00  0.00    +0.000 C 
ATOM     25  C   UNL     1      -0.422  16.093  23.035  0.00  0.00    +0.000 C 
ENDBRANCH  22  23
BRANCH  22  26
ATOM     26  C   UNL     1      -1.772  12.874  21.947  0.00  0.00    +0.000 C 
BRANCH  26  27
ATOM     27  C   UNL     1      -0.924  11.634  22.182  0.00  0.00    +0.000 A 
ATOM     28  C   UNL     1      -1.120  10.654  23.159  0.00  0.00    +0.000 A 
ATOM     29  C   UNL     1      -0.258   9.551  23.249  0.00  0.00    +0.000 A 
ATOM     30  C   UNL     1       0.790   9.393  22.341  0.00  0.00    +0.000 A 
ATOM     31  C   UNL     1       0.986  10.350  21.356  0.00  0.00    +0.000 A 
ATOM     32  C   UNL     1       0.145  11.452  21.274  0.00  0.00    +0.000 A 
ENDBRANCH  26  27
ENDBRANCH  22  26
ENDBRANCH  10  22
TORSDOF 7
ENDMDL
MODEL 3
REMARK VINA RESULT:      -7.3      3.454      5.543
REMARK  Name = 
REMARK  7 active torsions:
REMARK  status: ('A' for Active; 'I' for Inactive)
REMARK    1  A    between atoms: C_2  and  C_3
REMARK    2  A    between atoms: C_3  and  C_4
REMARK    3  A    between atoms: C_4  and  C_5
REMARK    4  A    between atoms: C_18  and  N_19
REMARK    5  A    between atoms: N_19  and  C_20
REMARK    6  A    between atoms: N_19  and  C_27
REMARK    7  A    between atoms: C_20  and  C_21
REMARK                            x       y       z     vdW  Elec       q    Type
REMARK                         _______ _______ _______ _____ _____    ______ ____
ROOT
ATOM      1  O   UNL     1       1.053  12.221  19.879  0.00  0.00    +0.000 OA
ATOM      2  C   UNL     1       0.080  11.796  20.507  0.00  0.00    +0.000 C 
ATOM      3  N   UNL     1      -0.507  12.547  21.541  0.00  0.00    +0.000 N 
ATOM      4  C   UNL     1      -1.700  12.102  22.242  0.00  0.00    +0.000 C 
ATOM      5  C   UNL     1      -2.129  12.940  23.435  0.00  0.00    +0.000 C 
ATOM      6  C   UNL     1      -2.088  14.460  23.229  0.00  0.00    +0.000 C 
ATOM      7  C   UNL     1      -0.651  14.795  22.777  0.00  0.00    +0.000 C 
ATOM      8  C   UNL     1      -0.057  13.933  21.667  0.00  0.00    +0.000 C 
ATOM      9  C   UNL     1      -3.135  15.105  22.288  0.00  0.00    +0.000 C 
ATOM     10  C   UNL     1      -4.616  15.028  22.782  0.00  0.00    +0.000 C 
ATOM     11  C   UNL     1      -4.615  15.577  24.232  0.00  0.00    +0.000 C 
ATOM     12  C   UNL     1      -3.531  14.966  25.106  0.00  0.00    +0.000 C 
ATOM     13  O   UNL     1      -2.238  15.109  24.515  0.00  0.00    +0.000 OA
ENDROOT
BRANCH   2  14
ATOM     14  C   UNL     1      -0.543  10.439  20.163  0.00  0.00    +0.000 C 
BRANCH  14  15
ATOM     15  C   UNL     1      -0.369  10.094  18.675  0.00  0.00    +0.000 C 
BRANCH  15  16
ATOM     16  C   UNL     1      -1.593  10.387  17.834  0.00  0.00    +0.000 A 
ATOM     17  C   UNL     1      -1.826   9.689  16.639  0.00  0.00    +0.000 A 
ATOM     18  C   UNL     1      -2.966   9.945  15.873  0.00  0.00    +0.000 A 
ATOM     19  C   UNL     1      -3.890  10.903  16.292  0.00  0.00    +0.000 A 
ATOM     20  C   UNL     1      -3.670  11.597  17.477  0.00  0.00    +0.000 A 
ATOM     21  C   UNL     1      -2.531  11.343  18.245  0.00  0.00    +0.000 A 
ENDBRANCH  15  16
ENDBRANCH  14  15
ENDBRANCH   2  14
BRANCH  10  22
ATOM     22  N   UNL     1      -5.260  13.698  22.653  0.00  0.00    +0.000 NA
BRANCH  22  23
ATOM     23  C   UNL     1      -6.712  13.640  22.941  0.00  0.00    +0.000 C 
ATOM     24  C   UNL     1      -7.269  12.392  23.589  0.00  0.00    +0.000 C 
ATOM     25  C   UNL     1      -7.246  13.678  24.349  0.00  0.00    +0.000 C 
ENDBRANCH  22  23
BRANCH  22  26
ATOM     26  C   UNL     1      -4.894  12.929  21.445  0.00  0.00    +0.000 C 
BRANCH  26  27
ATOM     27  C   UNL     1      -5.739  12.879  20.182  0.00  0.00    +0.000 A 
ATOM     28  C   UNL     1      -5.981  13.929  19.291  0.00  0.00    +0.000 A 
ATOM     29  C   UNL     1      -6.777  13.731  18.153  0.00  0.00    +0.000 A 
ATOM     30  C   UNL     1      -7.311  12.473  17.869  0.00  0.00    +0.000 A 
ATOM     31  C   UNL     1      -7.064  11.419  18.736  0.00  0.00    +0.000 A 
ATOM     32  C   UNL     1      -6.291  11.614  19.872  0.00  0.00    +0.000 A 
ENDBRANCH  26  27
ENDBRANCH  22  26
ENDBRANCH  10  22
TORSDOF 7
ENDMDL
MODEL 4
REMARK VINA RESULT:      -7.0      4.307      7.293
REMARK  Name = 
REMARK  7 active torsions:
REMARK  status: ('A' for Active; 'I' for Inactive)
REMARK    1  A    between atoms: C_2  and  C_3
REMARK    2  A    between atoms: C_3  and  C_4
REMARK    3  A    between atoms: C_4  and  C_5
REMARK    4  A    between atoms: C_18  and  N_19
REMARK    5  A    between atoms: N_19  and  C_20
REMARK    6  A    between atoms: N_19  and  C_27
REMARK    7  A    between atoms: C_20  and  C_21
REMARK                            x       y       z     vdW  Elec       q    Type
REMARK                         _______ _______ _______ _____ _____    ______ ____
ROOT
ATOM      1  O   UNL     1      -7.767  11.147  20.434  0.00  0.00    +0.000 OA
ATOM      2  C   UNL     1      -6.852  11.943  20.212  0.00  0.00    +0.000 C 
ATOM      3  N   UNL     1      -6.444  12.877  21.181  0.00  0.00    +0.000 N 
ATOM      4  C   UNL     1      -5.319  13.773  20.970  0.00  0.00    +0.000 C 
ATOM      5  C   UNL     1      -5.092  14.829  22.039  0.00  0.00    +0.000 C 
ATOM      6  C   UNL     1      -5.206  14.342  23.490  0.00  0.00    +0.000 C 
ATOM      7  C   UNL     1      -6.596  13.684  23.616  0.00  0.00    +0.000 C 
ATOM      8  C   UNL     1      -6.994  12.695  22.523  0.00  0.00    +0.000 C 
ATOM      9  C   UNL     1      -4.097  13.416  24.046  0.00  0.00    +0.000 C 
ATOM     10  C   UNL     1      -2.685  14.071  24.184  0.00  0.00    +0.000 C 
ATOM     11  C   UNL     1      -2.896  15.386  24.978  0.00  0.00    +0.000 C 
ATOM     12  C   UNL     1      -4.037  16.237  24.441  0.00  0.00    +0.000 C 
ATOM     13  O   UNL     1      -5.255  15.494  24.366  0.00  0.00    +0.000 OA
ENDROOT
BRANCH   2  14
ATOM     14  C   UNL     1      -6.106  11.926  18.874  0.00  0.00    +0.000 C 
BRANCH  14  15
ATOM     15  C   UNL     1      -4.591  11.748  19.070  0.00  0.00    +0.000 C 
BRANCH  15  16
ATOM     16  C   UNL     1      -3.886  11.155  17.869  0.00  0.00    +0.000 A 
ATOM     17  C   UNL     1      -2.662  10.484  18.016  0.00  0.00    +0.000 A 
ATOM     18  C   UNL     1      -2.020   9.919  16.911  0.00  0.00    +0.000 A 
ATOM     19  C   UNL     1      -2.595  10.016  15.644  0.00  0.00    +0.000 A 
ATOM     20  C   UNL     1      -3.810  10.676  15.489  0.00  0.00    +0.000 A 
ATOM     21  C   UNL     1      -4.454  11.241  16.591  0.00  0.00    +0.000 A 
ENDBRANCH  15  16
ENDBRANCH  14  15
ENDBRANCH   2  14
BRANCH  10  22
ATOM     22  N   UNL     1      -1.945  14.261  22.912  0.00  0.00    +0.000 NA
BRANCH  22  23
ATOM     23  C   UNL     1      -0.578  14.820  23.023  0.00  0.00    +0.000 C 
ATOM     24  C   UNL     1       0.009  15.534  21.826  0.00  0.00    +0.000 C 
ATOM     25  C   UNL     1      -0.326  16.306  23.061  0.00  0.00    +0.000 C 
ENDBRANCH  22  23
BRANCH  22  26
ATOM     26  C   UNL     1      -2.016  13.131  21.961  0.00  0.00    +0.000 C 
BRANCH  26  27
ATOM     27  C   UNL     1      -1.193  11.859  22.091  0.00  0.00    +0.000 A 
ATOM     28  C   UNL     1      -1.228  10.939  23.144  0.00  0.00    +0.000 A 
ATOM     29  C   UNL     1      -0.414   9.797  23.122  0.00  0.00    +0.000 A 
ATOM     30  C   UNL     1       0.418   9.538  22.032  0.00  0.00    +0.000 A 
ATOM     31  C   UNL     1       0.450  10.434  20.973  0.00  0.00    +0.000 A 
ATOM     32  C   UNL     1      -0.342  11.575  20.998  0.00  0.00    +0.000 A 
ENDBRANCH  26  27
ENDBRANCH  22  26
ENDBRANCH  10  22
TORSDOF 7
ENDMDL
MODEL 5
REMARK VINA RESULT:      -7.0      2.384      4.227
REMARK  Name = 
REMARK  7 active torsions:
REMARK  status: ('A' for Active; 'I' for Inactive)
REMARK    1  A    between atoms: C_2  and  C_3
REMARK    2  A    between atoms: C_3  and  C_4
REMARK    3  A    between atoms: C_4  and  C_5
REMARK    4  A    between atoms: C_18  and  N_19
REMARK    5  A    between atoms: N_19  and  C_20
REMARK    6  A    between atoms: N_19  and  C_27
REMARK    7  A    between atoms: C_20  and  C_21
REMARK                            x       y       z     vdW  Elec       q    Type
REMARK                         _______ _______ _______ _____ _____    ______ ____
ROOT
ATOM      1  O   UNL     1       1.586  12.130  21.166  0.00  0.00    +0.000 OA
ATOM      2  C   UNL     1       0.479  11.589  21.195  0.00  0.00    +0.000 C 
ATOM      3  N   UNL     1      -0.615  12.196  21.839  0.00  0.00    +0.000 N 
ATOM      4  C   UNL     1      -1.947  11.615  21.819  0.00  0.00    +0.000 C 
ATOM      5  C   UNL     1      -2.991  12.300  22.685  0.00  0.00    +0.000 C 
ATOM      6  C   UNL     1      -3.005  13.833  22.623  0.00  0.00    +0.000 C 
ATOM      7  C   UNL     1      -1.574  14.292  22.974  0.00  0.00    +0.000 C 
ATOM      8  C   UNL     1      -0.426  13.583  22.260  0.00  0.00    +0.000 C 
ATOM      9  C   UNL     1      -3.508  14.513  21.326  0.00  0.00    +0.000 C 
ATOM     10  C   UNL     1      -5.023  14.303  21.006  0.00  0.00    +0.000 C 
ATOM     11  C   UNL     1      -5.794  14.698  22.291  0.00  0.00    +0.000 C 
ATOM     12  C   UNL     1      -5.229  14.061  23.552  0.00  0.00    +0.000 C 
ATOM     13  O   UNL     1      -3.835  14.336  23.698  0.00  0.00    +0.000 OA
ENDROOT
BRANCH   2  14
ATOM     14  C   UNL     1       0.246  10.243  20.501  0.00  0.00    +0.000 C 
BRANCH  14  15
ATOM     15  C   UNL     1       1.115  10.095  19.241  0.00  0.00    +0.000 C 
BRANCH  15  16
ATOM     16  C   UNL     1       1.786   8.744  19.119  0.00  0.00    +0.000 A 
ATOM     17  C   UNL     1       2.477   8.389  17.950  0.00  0.00    +0.000 A 
ATOM     18  C   UNL     1       3.114   7.150  17.845  0.00  0.00    +0.000 A 
ATOM     19  C   UNL     1       3.069   6.248  18.908  0.00  0.00    +0.000 A 
ATOM     20  C   UNL     1       2.391   6.592  20.073  0.00  0.00    +0.000 A 
ATOM     21  C   UNL     1       1.753   7.830  20.181  0.00  0.00    +0.000 A 
ENDBRANCH  15  16
ENDBRANCH  14  15
ENDBRANCH   2  14
BRANCH  10  22
ATOM     22  N   UNL     1      -5.384  12.960  20.488  0.00  0.00    +0.000 NA
BRANCH  22  23
ATOM     23  C   UNL     1      -6.688  12.414  20.929  0.00  0.00    +0.000 C 
ATOM     24  C   UNL     1      -7.728  12.095  19.878  0.00  0.00    +0.000 C 
ATOM     25  C   UNL     1      -7.088  10.988  20.652  0.00  0.00    +0.000 C 
ENDBRANCH  22  23
BRANCH  22  26
ATOM     26  C   UNL     1      -5.142  12.749  19.045  0.00  0.00    +0.000 C 
BRANCH  26  27
ATOM     27  C   UNL     1      -4.153  11.737  18.489  0.00  0.00    +0.000 A 
ATOM     28  C   UNL     1      -4.434  10.436  18.061  0.00  0.00    +0.000 A 
ATOM     29  C   UNL     1      -3.415   9.615  17.556  0.00  0.00    +0.000 A 
ATOM     30  C   UNL     1      -2.110  10.093  17.437  0.00  0.00    +0.000 A 
ATOM     31  C   UNL     1      -1.821  11.389  17.843  0.00  0.00    +0.000 A 
ATOM     32  C   UNL     1      -2.823  12.199  18.359  0.00  0.00    +0.000 A 
ENDBRANCH  26  27
ENDBRANCH  22  26
ENDBRANCH  10  22
TORSDOF 7
ENDMDL
MODEL 6
REMARK VINA RESULT:      -6.9      0.809      1.556
REMARK  Name = 
REMARK  7 active torsions:
REMARK  status: ('A' for Active; 'I' for Inactive)
REMARK    1  A    between atoms: C_2  and  C_3
REMARK    2  A    between atoms: C_3  and  C_4
REMARK    3  A    between atoms: C_4  and  C_5
REMARK    4  A    between atoms: C_18  and  N_19
REMARK    5  A    between atoms: N_19  and  C_20
REMARK    6  A    between atoms: N_19  and  C_27
REMARK    7  A    between atoms: C_20  and  C_21
REMARK                            x       y       z     vdW  Elec       q    Type
REMARK                         _______ _______ _______ _____ _____    ______ ____
ROOT
ATOM      1  O   UNL     1       2.704   9.086  17.047  0.00  0.00    +0.000 OA
ATOM      2  C   UNL     1       2.032   9.233  18.071  0.00  0.00    +0.000 C 
ATOM      3  N   UNL     1       1.891  10.493  18.678  0.00  0.00    +0.000 N 
ATOM      4  C   UNL     1       1.042  10.704  19.839  0.00  0.00    +0.000 C 
ATOM      5  C   UNL     1       1.108  12.081  20.478  0.00  0.00    +0.000 C 
ATOM      6  C   UNL     1       1.096  13.267  19.504  0.00  0.00    +0.000 C 
ATOM      7  C   UNL     1       2.262  13.031  18.522  0.00  0.00    +0.000 C 
ATOM      8  C   UNL     1       2.379  11.638  17.910  0.00  0.00    +0.000 C 
ATOM      9  C   UNL     1      -0.217  13.586  18.747  0.00  0.00    +0.000 C 
ATOM     10  C   UNL     1      -1.403  14.070  19.641  0.00  0.00    +0.000 C 
ATOM     11  C   UNL     1      -0.848  15.234  20.501  0.00  0.00    +0.000 C 
ATOM     12  C   UNL     1       0.476  14.905  21.175  0.00  0.00    +0.000 C 
ATOM     13  O   UNL     1       1.453  14.469  20.229  0.00  0.00    +0.000 OA
ENDROOT
BRANCH   2  14
ATOM     14  C   UNL     1       1.302   8.045  18.705  0.00  0.00    +0.000 C 
BRANCH  14  15
ATOM     15  C   UNL     1       2.275   7.098  19.426  0.00  0.00    +0.000 C 
BRANCH  15  16
ATOM     16  C   UNL     1       2.696   5.906  18.593  0.00  0.00    +0.000 A 
ATOM     17  C   UNL     1       1.856   4.789  18.464  0.00  0.00    +0.000 A 
ATOM     18  C   UNL     1       2.236   3.697  17.679  0.00  0.00    +0.000 A 
ATOM     19  C   UNL     1       3.461   3.708  17.012  0.00  0.00    +0.000 A 
ATOM     20  C   UNL     1       4.298   4.812  17.130  0.00  0.00    +0.000 A 
ATOM     21  C   UNL     1       3.922   5.905  17.913  0.00  0.00    +0.000 A 
ENDBRANCH  15  16
ENDBRANCH  14  15
ENDBRANCH   2  14
BRANCH  10  22
ATOM     22  N   UNL     1      -2.073  13.013  20.438  0.00  0.00    +0.000 NA
BRANCH  22  23
ATOM     23  C   UNL     1      -2.314  13.319  21.867  0.00  0.00    +0.000 C 
ATOM     24  C   UNL     1      -3.735  13.560  22.323  0.00  0.00    +0.000 C 
ATOM     25  C   UNL     1      -3.002  12.343  22.786  0.00  0.00    +0.000 C 
ENDBRANCH  22  23
BRANCH  22  26
ATOM     26  C   UNL     1      -3.240  12.374  19.793  0.00  0.00    +0.000 C 
BRANCH  26  27
ATOM     27  C   UNL     1      -3.161  11.555  18.515  0.00  0.00    +0.000 A 
ATOM     28  C   UNL     1      -4.024  11.625  17.417  0.00  0.00    +0.000 A 
ATOM     29  C   UNL     1      -3.819  10.810  16.294  0.00  0.00    +0.000 A 
ATOM     30  C   UNL     1      -2.728   9.942  16.236  0.00  0.00    +0.000 A 
ATOM     31  C   UNL     1      -1.853   9.876  17.311  0.00  0.00    +0.000 A 
ATOM     32  C   UNL     1      -2.063  10.668  18.432  0.00  0.00    +0.000 A 
ENDBRANCH  26  27
ENDBRANCH  22  26
ENDBRANCH  10  22
TORSDOF 7
ENDMDL
MODEL 7
REMARK VINA RESULT:      -6.9      0.754      1.469
REMARK  Name = 
REMARK  7 active torsions:
REMARK  status: ('A' for Active; 'I' for Inactive)
REMARK    1  A    between atoms: C_2  and  C_3
REMARK    2  A    between atoms: C_3  and  C_4
REMARK    3  A    between atoms: C_4  and  C_5
REMARK    4  A    between atoms: C_18  and  N_19
REMARK    5  A    between atoms: N_19  and  C_20
REMARK    6  A    between atoms: N_19  and  C_27
REMARK    7  A    between atoms: C_20  and  C_21
REMARK                            x       y       z     vdW  Elec       q    Type
REMARK                         _______ _______ _______ _____ _____    ______ ____
ROOT
ATOM      1  O   UNL     1       2.602   8.901  17.213  0.00  0.00    +0.000 OA
ATOM      2  C   UNL     1       2.073   9.145  18.300  0.00  0.00    +0.000 C 
ATOM      3  N   UNL     1       1.942  10.464  18.769  0.00  0.00    +0.000 N 
ATOM      4  C   UNL     1       1.254  10.782  20.009  0.00  0.00    +0.000 C 
ATOM      5  C   UNL     1       1.324  12.230  20.464  0.00  0.00    +0.000 C 
ATOM      6  C   UNL     1       1.103  13.283  19.369  0.00  0.00    +0.000 C 
ATOM      7  C   UNL     1       2.132  12.976  18.262  0.00  0.00    +0.000 C 
ATOM      8  C   UNL     1       2.246  11.523  17.808  0.00  0.00    +0.000 C 
ATOM      9  C   UNL     1      -0.321  13.446  18.782  0.00  0.00    +0.000 C 
ATOM     10  C   UNL     1      -1.397  13.987  19.776  0.00  0.00    +0.000 C 
ATOM     11  C   UNL     1      -0.798  15.273  20.402  0.00  0.00    +0.000 C 
ATOM     12  C   UNL     1       0.624  15.089  20.909  0.00  0.00    +0.000 C 
ATOM     13  O   UNL     1       1.483  14.581  19.887  0.00  0.00    +0.000 OA
ENDROOT
BRANCH   2  14
ATOM     14  C   UNL     1       1.513   8.015  19.170  0.00  0.00    +0.000 C 
BRANCH  14  15
ATOM     15  C   UNL     1       2.580   6.952  19.478  0.00  0.00    +0.000 C 
BRANCH  15  16
ATOM     16  C   UNL     1       2.064   5.531  19.406  0.00  0.00    +0.000 A 
ATOM     17  C   UNL     1       1.569   4.889  20.553  0.00  0.00    +0.000 A 
ATOM     18  C   UNL     1       1.073   3.585  20.483  0.00  0.00    +0.000 A 
ATOM     19  C   UNL     1       1.066   2.904  19.265  0.00  0.00    +0.000 A 
ATOM     20  C   UNL     1       1.550   3.532  18.123  0.00  0.00    +0.000 A 
ATOM     21  C   UNL     1       2.046   4.837  18.189  0.00  0.00    +0.000 A 
ENDBRANCH  15  16
ENDBRANCH  14  15
ENDBRANCH   2  14
BRANCH  10  22
ATOM     22  N   UNL     1      -1.882  13.010  20.783  0.00  0.00    +0.000 NA
BRANCH  22  23
ATOM     23  C   UNL     1      -2.512  13.575  21.998  0.00  0.00    +0.000 C 
ATOM     24  C   UNL     1      -2.970  12.625  23.081  0.00  0.00    +0.000 C 
ATOM     25  C   UNL     1      -1.824  13.548  23.338  0.00  0.00    +0.000 C 
ENDBRANCH  22  23
BRANCH  22  26
ATOM     26  C   UNL     1      -2.635  11.859  20.239  0.00  0.00    +0.000 C 
BRANCH  26  27
ATOM     27  C   UNL     1      -3.650  11.966  19.113  0.00  0.00    +0.000 A 
ATOM     28  C   UNL     1      -3.521  11.462  17.815  0.00  0.00    +0.000 A 
ATOM     29  C   UNL     1      -4.554  11.627  16.879  0.00  0.00    +0.000 A 
ATOM     30  C   UNL     1      -5.743  12.263  17.237  0.00  0.00    +0.000 A 
ATOM     31  C   UNL     1      -5.890  12.752  18.527  0.00  0.00    +0.000 A 
ATOM     32  C   UNL     1      -4.865  12.606  19.452  0.00  0.00    +0.000 A 
ENDBRANCH  26  27
ENDBRANCH  22  26
ENDBRANCH  10  22
TORSDOF 7
ENDMDL
MODEL 8
REMARK VINA RESULT:      -6.7      3.324      5.535
REMARK  Name = 
REMARK  7 active torsions:
REMARK  status: ('A' for Active; 'I' for Inactive)
REMARK    1  A    between atoms: C_2  and  C_3
REMARK    2  A    between atoms: C_3  and  C_4
REMARK    3  A    between atoms: C_4  and  C_5
REMARK    4  A    between atoms: C_18  and  N_19
REMARK    5  A    between atoms: N_19  and  C_20
REMARK    6  A    between atoms: N_19  and  C_27
REMARK    7  A    between atoms: C_20  and  C_21
REMARK                            x       y       z     vdW  Elec       q    Type
REMARK                         _______ _______ _______ _____ _____    ______ ____
ROOT
ATOM      1  O   UNL     1       1.239  11.797  18.771  0.00  0.00    +0.000 OA
ATOM      2  C   UNL     1       0.398  11.412  19.586  0.00  0.00    +0.000 C 
ATOM      3  N   UNL     1       0.086  12.170  20.729  0.00  0.00    +0.000 N 
ATOM      4  C   UNL     1      -0.955  11.776  21.662  0.00  0.00    +0.000 C 
ATOM      5  C   UNL     1      -1.074  12.608  22.927  0.00  0.00    +0.000 C 
ATOM      6  C   UNL     1      -0.989  14.128  22.733  0.00  0.00    +0.000 C 
ATOM      7  C   UNL     1       0.337  14.395  21.991  0.00  0.00    +0.000 C 
ATOM      8  C   UNL     1       0.632  13.526  20.771  0.00  0.00    +0.000 C 
ATOM      9  C   UNL     1      -2.172  14.851  22.042  0.00  0.00    +0.000 C 
ATOM     10  C   UNL     1      -3.517  14.843  22.838  0.00  0.00    +0.000 C 
ATOM     11  C   UNL     1      -3.179  15.358  24.260  0.00  0.00    +0.000 C 
ATOM     12  C   UNL     1      -1.972  14.670  24.878  0.00  0.00    +0.000 C 
ATOM     13  O   UNL     1      -0.827  14.756  24.028  0.00  0.00    +0.000 OA
ENDROOT
BRANCH   2  14
ATOM     14  C   UNL     1      -0.361  10.099  19.368  0.00  0.00    +0.000 C 
BRANCH  14  15
ATOM     15  C   UNL     1      -0.662   9.857  17.880  0.00  0.00    +0.000 C 
BRANCH  15  16
ATOM     16  C   UNL     1      -2.011  10.383  17.437  0.00  0.00    +0.000 A 
ATOM     17  C   UNL     1      -2.844  11.068  18.335  0.00  0.00    +0.000 A 
ATOM     18  C   UNL     1      -4.080  11.571  17.921  0.00  0.00    +0.000 A 
ATOM     19  C   UNL     1      -4.499  11.396  16.602  0.00  0.00    +0.000 A 
ATOM     20  C   UNL     1      -3.679  10.723  15.703  0.00  0.00    +0.000 A 
ATOM     21  C   UNL     1      -2.442  10.219  16.114  0.00  0.00    +0.000 A 
ENDBRANCH  15  16
ENDBRANCH  14  15
ENDBRANCH   2  14
BRANCH  10  22
ATOM     22  N   UNL     1      -4.251  13.553  22.834  0.00  0.00    +0.000 NA
BRANCH  22  23
ATOM     23  C   UNL     1      -5.292  13.386  23.874  0.00  0.00    +0.000 C 
ATOM     24  C   UNL     1      -6.569  14.186  23.750  0.00  0.00    +0.000 C 
ATOM     25  C   UNL     1      -6.603  12.702  23.585  0.00  0.00    +0.000 C 
ENDBRANCH  22  23
BRANCH  22  26
ATOM     26  C   UNL     1      -4.697  13.080  21.507  0.00  0.00    +0.000 C 
BRANCH  26  27
ATOM     27  C   UNL     1      -5.539  13.908  20.550  0.00  0.00    +0.000 A 
ATOM     28  C   UNL     1      -5.360  15.257  20.224  0.00  0.00    +0.000 A 
ATOM     29  C   UNL     1      -6.214  15.890  19.309  0.00  0.00    +0.000 A 
ATOM     30  C   UNL     1      -7.235  15.177  18.679  0.00  0.00    +0.000 A 
ATOM     31  C   UNL     1      -7.413  13.835  18.980  0.00  0.00    +0.000 A 
ATOM     32  C   UNL     1      -6.580  13.208  19.898  0.00  0.00    +0.000 A 
ENDBRANCH  26  27
ENDBRANCH  22  26
ENDBRANCH  10  22
TORSDOF 7
ENDMDL
MODEL 9
REMARK VINA RESULT:      -6.6      1.517      2.114
REMARK  Name = 
REMARK  7 active torsions:
REMARK  status: ('A' for Active; 'I' for Inactive)
REMARK    1  A    between atoms: C_2  and  C_3
REMARK    2  A    between atoms: C_3  and  C_4
REMARK    3  A    between atoms: C_4  and  C_5
REMARK    4  A    between atoms: C_18  and  N_19
REMARK    5  A    between atoms: N_19  and  C_20
REMARK    6  A    between atoms: N_19  and  C_27
REMARK    7  A    between atoms: C_20  and  C_21
REMARK                            x       y       z     vdW  Elec       q    Type
REMARK                         _______ _______ _______ _____ _____    ______ ____
ROOT
ATOM      1  O   UNL     1       2.641  10.876  17.316  0.00  0.00    +0.000 OA
ATOM      2  C   UNL     1       1.971  10.766  18.345  0.00  0.00    +0.000 C 
ATOM      3  N   UNL     1       1.684  11.881  19.152  0.00  0.00    +0.000 N 
ATOM      4  C   UNL     1       0.833  11.790  20.327  0.00  0.00    +0.000 C 
ATOM      5  C   UNL     1       0.738  13.040  21.186  0.00  0.00    +0.000 C 
ATOM      6  C   UNL     1       0.566  14.360  20.422  0.00  0.00    +0.000 C 
ATOM      7  C   UNL     1       1.739  14.436  19.423  0.00  0.00    +0.000 C 
ATOM      8  C   UNL     1       2.017  13.188  18.588  0.00  0.00    +0.000 C 
ATOM      9  C   UNL     1      -0.786  14.635  19.720  0.00  0.00    +0.000 C 
ATOM     10  C   UNL     1      -2.011  14.815  20.674  0.00  0.00    +0.000 C 
ATOM     11  C   UNL     1      -1.590  15.880  21.719  0.00  0.00    +0.000 C 
ATOM     12  C   UNL     1      -0.228  15.610  22.338  0.00  0.00    +0.000 C 
ATOM     13  O   UNL     1       0.782  15.461  21.339  0.00  0.00    +0.000 OA
ENDROOT
BRANCH   2  14
ATOM     14  C   UNL     1       1.401   9.408  18.768  0.00  0.00    +0.000 C 
BRANCH  14  15
ATOM     15  C   UNL     1       1.699   8.317  17.727  0.00  0.00    +0.000 C 
BRANCH  15  16
ATOM     16  C   UNL     1       2.718   7.297  18.187  0.00  0.00    +0.000 A 
ATOM     17  C   UNL     1       2.473   6.496  19.313  0.00  0.00    +0.000 A 
ATOM     18  C   UNL     1       3.405   5.540  19.726  0.00  0.00    +0.000 A 
ATOM     19  C   UNL     1       4.595   5.372  19.019  0.00  0.00    +0.000 A 
ATOM     20  C   UNL     1       4.845   6.158  17.898  0.00  0.00    +0.000 A 
ATOM     21  C   UNL     1       3.916   7.114  17.483  0.00  0.00    +0.000 A 
ENDBRANCH  15  16
ENDBRANCH  14  15
ENDBRANCH   2  14
BRANCH  10  22
ATOM     22  N   UNL     1      -2.534  13.565  21.280  0.00  0.00    +0.000 NA
BRANCH  22  23
ATOM     23  C   UNL     1      -2.802  13.603  22.736  0.00  0.00    +0.000 C 
ATOM     24  C   UNL     1      -4.238  13.542  23.206  0.00  0.00    +0.000 C 
ATOM     25  C   UNL     1      -3.317  12.399  23.482  0.00  0.00    +0.000 C 
ENDBRANCH  22  23
BRANCH  22  26
ATOM     26  C   UNL     1      -3.614  12.896  20.524  0.00  0.00    +0.000 C 
BRANCH  26  27
ATOM     27  C   UNL     1      -3.379  12.012  19.310  0.00  0.00    +0.000 A 
ATOM     28  C   UNL     1      -2.186  11.374  18.954  0.00  0.00    +0.000 A 
ATOM     29  C   UNL     1      -2.121  10.573  17.804  0.00  0.00    +0.000 A 
ATOM     30  C   UNL     1      -3.253  10.370  17.013  0.00  0.00    +0.000 A 
ATOM     31  C   UNL     1      -4.446  10.984  17.365  0.00  0.00    +0.000 A 
ATOM     32  C   UNL     1      -4.512  11.791  18.493  0.00  0.00    +0.000 A 
ENDBRANCH  26  27
ENDBRANCH  22  26
ENDBRANCH  10  22
TORSDOF 7
ENDMDL
