MODEL 1
REMARK VINA RESULT:      -7.9      0.000      0.000
REMARK  Name = 
REMARK  6 active torsions:
REMARK  status: ('A' for Active; 'I' for Inactive)
REMARK    1  A    between atoms: N_1  and  C_2
REMARK    2  A    between atoms: C_2  and  C_3
REMARK    3  A    between atoms: C_3  and  C_4
REMARK    4  A    between atoms: N_9  and  C_10
REMARK    5  A    between atoms: C_10  and  C_11
REMARK    6  A    between atoms: C_14  and  C_15
REMARK                            x       y       z     vdW  Elec       q    Type
REMARK                         _______ _______ _______ _____ _____    ______ ____
ROOT
ATOM      1  C   UNL     1       2.876   4.831  19.931  0.00  0.00    +0.000 C 
ATOM      2  C   UNL     1       1.580   5.681  19.773  0.00  0.00    +0.000 C 
ATOM      3  C   UNL     1       1.832   7.180  19.786  0.00  0.00    +0.000 C 
ATOM      4  C   UNL     1       2.838   7.526  18.710  0.00  0.00    +0.000 C 
ATOM      5  C   UNL     1       4.104   6.705  18.894  0.00  0.00    +0.000 C 
ATOM      6  N   UNL     1       3.870   5.240  18.872  0.00  0.00    +0.000 NA
ENDROOT
BRANCH   1   7
ATOM      7  C   UNL     1       2.467   3.291  19.920  0.00  0.00    +0.000 C 
ATOM      8  C   UNL     1       1.066   2.988  20.605  0.00  0.00    +0.000 C 
ATOM      9  C   UNL     1       1.793   2.672  21.912  0.00  0.00    +0.000 C 
ATOM     10  C   UNL     1       3.065   2.417  21.101  0.00  0.00    +0.000 C 
BRANCH   7  11
ATOM     11  C   UNL     1       2.575   2.682  18.497  0.00  0.00    +0.000 C 
BRANCH  11  12
ATOM     12  N   UNL     1       3.143   1.327  18.452  0.00  0.00    +0.000 NA
ATOM     13  H   UNL     1       3.841   1.250  19.192  0.00  0.00    +0.000 HD
ATOM     14  H   UNL     1       3.670   1.206  17.588  0.00  0.00    +0.000 HD
ENDBRANCH  11  12
ENDBRANCH   7  11
ENDBRANCH   1   7
BRANCH   6  15
ATOM     15  C   UNL     1       5.182   4.558  19.051  0.00  0.00    +0.000 C 
BRANCH  15  16
ATOM     16  C   UNL     1       6.108   4.620  17.867  0.00  0.00    +0.000 A 
ATOM     17  N   UNL     1       7.438   4.465  17.967  0.00  0.00    +0.000 NA
ATOM     18  O   UNL     1       7.857   4.465  16.631  0.00  0.00    +0.000 OA
ATOM     19  C   UNL     1       6.728   4.574  15.866  0.00  0.00    +0.000 A 
ATOM     20  N   UNL     1       5.631   4.688  16.581  0.00  0.00    +0.000 NA
BRANCH  19  21
ATOM     21  C   UNL     1       6.873   4.459  14.423  0.00  0.00    +0.000 A 
ATOM     22  C   UNL     1       6.138   3.538  13.663  0.00  0.00    +0.000 A 
ATOM     23  C   UNL     1       6.266   3.501  12.274  0.00  0.00    +0.000 A 
ATOM     24  C   UNL     1       7.127   4.384  11.626  0.00  0.00    +0.000 A 
ATOM     25  C   UNL     1       7.875   5.296  12.368  0.00  0.00    +0.000 A 
ATOM     26  C   UNL     1       7.751   5.330  13.757  0.00  0.00    +0.000 A 
ENDBRANCH  19  21
ENDBRANCH  15  16
ENDBRANCH   6  15
TORSDOF 6
ENDMDL
MODEL 2
REMARK VINA RESULT:      -7.8      1.032      1.595
REMARK  Name = 
REMARK  6 active torsions:
REMARK  status: ('A' for Active; 'I' for Inactive)
REMARK    1  A    between atoms: N_1  and  C_2
REMARK    2  A    between atoms: C_2  and  C_3
REMARK    3  A    between atoms: C_3  and  C_4
REMARK    4  A    between atoms: N_9  and  C_10
REMARK    5  A    between atoms: C_10  and  C_11
REMARK    6  A    between atoms: C_14  and  C_15
REMARK                            x       y       z     vdW  Elec       q    Type
REMARK                         _______ _______ _______ _____ _____    ______ ____
ROOT
ATOM      1  C   UNL     1       2.866   4.458  20.146  0.00  0.00    +0.000 C 
ATOM      2  C   UNL     1       1.556   5.299  20.094  0.00  0.00    +0.000 C 
ATOM      3  C   UNL     1       1.796   6.800  20.146  0.00  0.00    +0.000 C 
ATOM      4  C   UNL     1       2.735   7.194  19.027  0.00  0.00    +0.000 C 
ATOM      5  C   UNL     1       4.016   6.380  19.108  0.00  0.00    +0.000 C 
ATOM      6  N   UNL     1       3.793   4.914  19.048  0.00  0.00    +0.000 NA
ENDROOT
BRANCH   1   7
ATOM      7  C   UNL     1       2.469   2.915  20.105  0.00  0.00    +0.000 C 
ATOM      8  C   UNL     1       3.233   2.080  18.990  0.00  0.00    +0.000 C 
ATOM      9  C   UNL     1       2.051   2.295  18.045  0.00  0.00    +0.000 C 
ATOM     10  C   UNL     1       1.170   2.566  19.266  0.00  0.00    +0.000 C 
BRANCH   7  11
ATOM     11  C   UNL     1       2.572   2.263  21.509  0.00  0.00    +0.000 C 
BRANCH  11  12
ATOM     12  N   UNL     1       1.403   2.482  22.373  0.00  0.00    +0.000 NA
ATOM     13  H   UNL     1       0.933   3.333  22.063  0.00  0.00    +0.000 HD
ATOM     14  H   UNL     1       1.713   2.690  23.322  0.00  0.00    +0.000 HD
ENDBRANCH  11  12
ENDBRANCH   7  11
ENDBRANCH   1   7
BRANCH   6  15
ATOM     15  C   UNL     1       5.119   4.240  19.125  0.00  0.00    +0.000 C 
BRANCH  15  16
ATOM     16  C   UNL     1       6.021   4.451  17.940  0.00  0.00    +0.000 A 
ATOM     17  N   UNL     1       7.359   4.518  18.039  0.00  0.00    +0.000 NA
ATOM     18  O   UNL     1       7.770   4.584  16.702  0.00  0.00    +0.000 OA
ATOM     19  C   UNL     1       6.638   4.501  15.939  0.00  0.00    +0.000 A 
ATOM     20  N   UNL     1       5.539   4.433  16.655  0.00  0.00    +0.000 NA
BRANCH  19  21
ATOM     21  C   UNL     1       6.800   4.406  14.495  0.00  0.00    +0.000 A 
ATOM     22  C   UNL     1       6.060   3.508  13.712  0.00  0.00    +0.000 A 
ATOM     23  C   UNL     1       6.205   3.490  12.324  0.00  0.00    +0.000 A 
ATOM     24  C   UNL     1       7.087   4.371  11.701  0.00  0.00    +0.000 A 
ATOM     25  C   UNL     1       7.839   5.259  12.466  0.00  0.00    +0.000 A 
ATOM     26  C   UNL     1       7.699   5.274  13.854  0.00  0.00    +0.000 A 
ENDBRANCH  19  21
ENDBRANCH  15  16
ENDBRANCH   6  15
TORSDOF 6
ENDMDL
MODEL 3
REMARK VINA RESULT:      -7.8      3.585      7.681
REMARK  Name = 
REMARK  6 active torsions:
REMARK  status: ('A' for Active; 'I' for Inactive)
REMARK    1  A    between atoms: N_1  and  C_2
REMARK    2  A    between atoms: C_2  and  C_3
REMARK    3  A    between atoms: C_3  and  C_4
REMARK    4  A    between atoms: N_9  and  C_10
REMARK    5  A    between atoms: C_10  and  C_11
REMARK    6  A    between atoms: C_14  and  C_15
REMARK                            x       y       z     vdW  Elec       q    Type
REMARK                         _______ _______ _______ _____ _____    ______ ____
ROOT
ATOM      1  C   UNL     1       4.256   4.831  18.011  0.00  0.00    +0.000 C 
ATOM      2  C   UNL     1       5.642   4.343  18.527  0.00  0.00    +0.000 C 
ATOM      3  C   UNL     1       6.818   4.957  17.783  0.00  0.00    +0.000 C 
ATOM      4  C   UNL     1       6.718   6.465  17.850  0.00  0.00    +0.000 C 
ATOM      5  C   UNL     1       5.369   6.924  17.320  0.00  0.00    +0.000 C 
ATOM      6  N   UNL     1       4.215   6.338  18.046  0.00  0.00    +0.000 NA
ENDROOT
BRANCH   1   7
ATOM      7  C   UNL     1       3.122   4.099  18.858  0.00  0.00    +0.000 C 
ATOM      8  C   UNL     1       3.280   2.520  18.923  0.00  0.00    +0.000 C 
ATOM      9  C   UNL     1       2.321   2.394  17.738  0.00  0.00    +0.000 C 
ATOM     10  C   UNL     1       1.780   3.785  18.075  0.00  0.00    +0.000 C 
BRANCH   7  11
ATOM     11  C   UNL     1       2.961   4.736  20.264  0.00  0.00    +0.000 C 
BRANCH  11  12
ATOM     12  N   UNL     1       1.589   5.147  20.596  0.00  0.00    +0.000 NA
ATOM     13  H   UNL     1       1.129   5.445  19.735  0.00  0.00    +0.000 HD
ATOM     14  H   UNL     1       1.614   5.984  21.178  0.00  0.00    +0.000 HD
ENDBRANCH  11  12
ENDBRANCH   7  11
ENDBRANCH   1   7
BRANCH   6  15
ATOM     15  C   UNL     1       2.964   6.874  17.439  0.00  0.00    +0.000 C 
BRANCH  15  16
ATOM     16  C   UNL     1       2.351   8.046  18.154  0.00  0.00    +0.000 A 
ATOM     17  N   UNL     1       2.036   9.198  17.538  0.00  0.00    +0.000 NA
ATOM     18  O   UNL     1       1.386   9.925  18.542  0.00  0.00    +0.000 OA
ATOM     19  C   UNL     1       1.337   9.115  19.644  0.00  0.00    +0.000 A 
ATOM     20  N   UNL     1       1.930   7.957  19.458  0.00  0.00    +0.000 NA
BRANCH  19  21
ATOM     21  C   UNL     1       0.583   9.583  20.797  0.00  0.00    +0.000 A 
ATOM     22  C   UNL     1       0.582   8.904  22.024  0.00  0.00    +0.000 A 
ATOM     23  C   UNL     1      -0.109   9.420  23.121  0.00  0.00    +0.000 A 
ATOM     24  C   UNL     1      -0.806  10.622  23.007  0.00  0.00    +0.000 A 
ATOM     25  C   UNL     1      -0.827  11.301  21.791  0.00  0.00    +0.000 A 
ATOM     26  C   UNL     1      -0.140  10.784  20.693  0.00  0.00    +0.000 A 
ENDBRANCH  19  21
ENDBRANCH  15  16
ENDBRANCH   6  15
TORSDOF 6
ENDMDL
MODEL 4
REMARK VINA RESULT:      -7.7      3.581      7.695
REMARK  Name = 
REMARK  6 active torsions:
REMARK  status: ('A' for Active; 'I' for Inactive)
REMARK    1  A    between atoms: N_1  and  C_2
REMARK    2  A    between atoms: C_2  and  C_3
REMARK    3  A    between atoms: C_3  and  C_4
REMARK    4  A    between atoms: N_9  and  C_10
REMARK    5  A    between atoms: C_10  and  C_11
REMARK    6  A    between atoms: C_14  and  C_15
REMARK                            x       y       z     vdW  Elec       q    Type
REMARK                         _______ _______ _______ _____ _____    ______ ____
ROOT
ATOM      1  C   UNL     1       4.270   4.735  18.107  0.00  0.00    +0.000 C 
ATOM      2  C   UNL     1       5.689   4.297  18.578  0.00  0.00    +0.000 C 
ATOM      3  C   UNL     1       6.816   4.942  17.786  0.00  0.00    +0.000 C 
ATOM      4  C   UNL     1       6.669   6.447  17.844  0.00  0.00    +0.000 C 
ATOM      5  C   UNL     1       5.287   6.856  17.358  0.00  0.00    +0.000 C 
ATOM      6  N   UNL     1       4.180   6.240  18.131  0.00  0.00    +0.000 NA
ENDROOT
BRANCH   1   7
ATOM      7  C   UNL     1       3.191   3.975  19.001  0.00  0.00    +0.000 C 
ATOM      8  C   UNL     1       3.289   2.391  18.926  0.00  0.00    +0.000 C 
ATOM      9  C   UNL     1       2.218   2.395  17.835  0.00  0.00    +0.000 C 
ATOM     10  C   UNL     1       1.769   3.771  18.330  0.00  0.00    +0.000 C 
BRANCH   7  11
ATOM     11  C   UNL     1       3.189   4.501  20.461  0.00  0.00    +0.000 C 
BRANCH  11  12
ATOM     12  N   UNL     1       2.041   5.351  20.804  0.00  0.00    +0.000 NA
ATOM     13  H   UNL     1       2.021   5.466  21.818  0.00  0.00    +0.000 HD
ATOM     14  H   UNL     1       1.174   4.863  20.583  0.00  0.00    +0.000 HD
ENDBRANCH  11  12
ENDBRANCH   7  11
ENDBRANCH   1   7
BRANCH   6  15
ATOM     15  C   UNL     1       2.892   6.729  17.564  0.00  0.00    +0.000 C 
BRANCH  15  16
ATOM     16  C   UNL     1       2.324   7.957  18.219  0.00  0.00    +0.000 A 
ATOM     17  N   UNL     1       2.030   9.080  17.544  0.00  0.00    +0.000 NA
ATOM     18  O   UNL     1       1.418   9.882  18.514  0.00  0.00    +0.000 OA
ATOM     19  C   UNL     1       1.364   9.137  19.661  0.00  0.00    +0.000 A 
ATOM     20  N   UNL     1       1.921   7.954  19.532  0.00  0.00    +0.000 NA
BRANCH  19  21
ATOM     21  C   UNL     1       0.643   9.692  20.796  0.00  0.00    +0.000 A 
ATOM     22  C   UNL     1      -0.127  10.860  20.702  0.00  0.00    +0.000 A 
ATOM     23  C   UNL     1      -0.850  11.325  21.802  0.00  0.00    +0.000 A 
ATOM     24  C   UNL     1      -0.815  10.628  23.008  0.00  0.00    +0.000 A 
ATOM     25  C   UNL     1      -0.044   9.474  23.122  0.00  0.00    +0.000 A 
ATOM     26  C   UNL     1       0.682   9.011  22.025  0.00  0.00    +0.000 A 
ENDBRANCH  19  21
ENDBRANCH  15  16
ENDBRANCH   6  15
TORSDOF 6
ENDMDL
MODEL 5
REMARK VINA RESULT:      -7.6      4.123      6.065
REMARK  Name = 
REMARK  6 active torsions:
REMARK  status: ('A' for Active; 'I' for Inactive)
REMARK    1  A    between atoms: N_1  and  C_2
REMARK    2  A    between atoms: C_2  and  C_3
REMARK    3  A    between atoms: C_3  and  C_4
REMARK    4  A    between atoms: N_9  and  C_10
REMARK    5  A    between atoms: C_10  and  C_11
REMARK    6  A    between atoms: C_14  and  C_15
REMARK                            x       y       z     vdW  Elec       q    Type
REMARK                         _______ _______ _______ _____ _____    ______ ____
ROOT
ATOM      1  C   UNL     1       5.083   4.937  17.013  0.00  0.00    +0.000 C 
ATOM      2  C   UNL     1       4.572   4.154  15.767  0.00  0.00    +0.000 C 
ATOM      3  C   UNL     1       5.398   4.401  14.514  0.00  0.00    +0.000 C 
ATOM      4  C   UNL     1       6.848   4.073  14.800  0.00  0.00    +0.000 C 
ATOM      5  C   UNL     1       7.335   4.865  16.003  0.00  0.00    +0.000 C 
ATOM      6  N   UNL     1       6.542   4.623  17.234  0.00  0.00    +0.000 NA
ENDROOT
BRANCH   1   7
ATOM      7  C   UNL     1       4.122   4.604  18.239  0.00  0.00    +0.000 C 
ATOM      8  C   UNL     1       2.634   5.128  18.057  0.00  0.00    +0.000 C 
ATOM      9  C   UNL     1       3.003   6.393  18.832  0.00  0.00    +0.000 C 
ATOM     10  C   UNL     1       4.177   5.629  19.448  0.00  0.00    +0.000 C 
BRANCH   7  11
ATOM     11  C   UNL     1       4.179   3.100  18.616  0.00  0.00    +0.000 C 
BRANCH  11  12
ATOM     12  N   UNL     1       5.190   2.759  19.627  0.00  0.00    +0.000 NA
ATOM     13  H   UNL     1       6.109   2.799  19.184  0.00  0.00    +0.000 HD
ATOM     14  H   UNL     1       5.081   1.785  19.906  0.00  0.00    +0.000 HD
ENDBRANCH  11  12
ENDBRANCH   7  11
ENDBRANCH   1   7
BRANCH   6  15
ATOM     15  C   UNL     1       7.126   5.443  18.332  0.00  0.00    +0.000 C 
BRANCH  15  16
ATOM     16  C   UNL     1       7.441   6.869  17.973  0.00  0.00    +0.000 A 
ATOM     17  N   UNL     1       6.744   7.568  17.062  0.00  0.00    +0.000 NA
ATOM     18  O   UNL     1       7.296   8.851  17.159  0.00  0.00    +0.000 OA
ATOM     19  C   UNL     1       8.235   8.800  18.152  0.00  0.00    +0.000 A 
ATOM     20  N   UNL     1       8.370   7.601  18.671  0.00  0.00    +0.000 NA
BRANCH  19  21
ATOM     21  C   UNL     1       8.866  10.049  18.552  0.00  0.00    +0.000 A 
ATOM     22  C   UNL     1       8.851  11.195  17.744  0.00  0.00    +0.000 A 
ATOM     23  C   UNL     1       9.419  12.388  18.193  0.00  0.00    +0.000 A 
ATOM     24  C   UNL     1      10.007  12.452  19.454  0.00  0.00    +0.000 A 
ATOM     25  C   UNL     1      10.043  11.319  20.264  0.00  0.00    +0.000 A 
ATOM     26  C   UNL     1       9.480  10.125  19.814  0.00  0.00    +0.000 A 
ENDBRANCH  19  21
ENDBRANCH  15  16
ENDBRANCH   6  15
TORSDOF 6
ENDMDL
MODEL 6
REMARK VINA RESULT:      -7.5      0.400      1.062
REMARK  Name = 
REMARK  6 active torsions:
REMARK  status: ('A' for Active; 'I' for Inactive)
REMARK    1  A    between atoms: N_1  and  C_2
REMARK    2  A    between atoms: C_2  and  C_3
REMARK    3  A    between atoms: C_3  and  C_4
REMARK    4  A    between atoms: N_9  and  C_10
REMARK    5  A    between atoms: C_10  and  C_11
REMARK    6  A    between atoms: C_14  and  C_15
REMARK                            x       y       z     vdW  Elec       q    Type
REMARK                         _______ _______ _______ _____ _____    ______ ____
ROOT
ATOM      1  C   UNL     1       2.795   5.048  19.803  0.00  0.00    +0.000 C 
ATOM      2  C   UNL     1       1.553   5.974  19.642  0.00  0.00    +0.000 C 
ATOM      3  C   UNL     1       1.900   7.454  19.608  0.00  0.00    +0.000 C 
ATOM      4  C   UNL     1       2.906   7.705  18.505  0.00  0.00    +0.000 C 
ATOM      5  C   UNL     1       4.121   6.810  18.693  0.00  0.00    +0.000 C 
ATOM      6  N   UNL     1       3.794   5.363  18.717  0.00  0.00    +0.000 NA
ENDROOT
BRANCH   1   7
ATOM      7  C   UNL     1       2.289   3.538  19.845  0.00  0.00    +0.000 C 
ATOM      8  C   UNL     1       1.199   3.250  20.963  0.00  0.00    +0.000 C 
ATOM      9  C   UNL     1       2.311   2.787  21.904  0.00  0.00    +0.000 C 
ATOM     10  C   UNL     1       3.193   2.537  20.679  0.00  0.00    +0.000 C 
BRANCH   7  11
ATOM     11  C   UNL     1       1.842   3.048  18.442  0.00  0.00    +0.000 C 
BRANCH  11  12
ATOM     12  N   UNL     1       2.865   2.295  17.701  0.00  0.00    +0.000 NA
ATOM     13  H   UNL     1       2.431   1.911  16.861  0.00  0.00    +0.000 HD
ATOM     14  H   UNL     1       3.147   1.477  18.241  0.00  0.00    +0.000 HD
ENDBRANCH  11  12
ENDBRANCH   7  11
ENDBRANCH   1   7
BRANCH   6  15
ATOM     15  C   UNL     1       5.063   4.604  18.894  0.00  0.00    +0.000 C 
BRANCH  15  16
ATOM     16  C   UNL     1       6.018   4.664  17.734  0.00  0.00    +0.000 A 
ATOM     17  N   UNL     1       7.336   4.435  17.854  0.00  0.00    +0.000 NA
ATOM     18  O   UNL     1       7.785   4.467  16.529  0.00  0.00    +0.000 OA
ATOM     19  C   UNL     1       6.681   4.666  15.746  0.00  0.00    +0.000 A 
ATOM     20  N   UNL     1       5.575   4.808  16.442  0.00  0.00    +0.000 NA
BRANCH  19  21
ATOM     21  C   UNL     1       6.853   4.600  14.302  0.00  0.00    +0.000 A 
ATOM     22  C   UNL     1       7.695   5.477  13.603  0.00  0.00    +0.000 A 
ATOM     23  C   UNL     1       7.876   5.342  12.226  0.00  0.00    +0.000 A 
ATOM     24  C   UNL     1       7.219   4.329  11.531  0.00  0.00    +0.000 A 
ATOM     25  C   UNL     1       6.368   3.458  12.208  0.00  0.00    +0.000 A 
ATOM     26  C   UNL     1       6.184   3.596  13.583  0.00  0.00    +0.000 A 
ENDBRANCH  19  21
ENDBRANCH  15  16
ENDBRANCH   6  15
TORSDOF 6
ENDMDL
MODEL 7
REMARK VINA RESULT:      -7.5      1.077      1.929
REMARK  Name = 
REMARK  6 active torsions:
REMARK  status: ('A' for Active; 'I' for Inactive)
REMARK    1  A    between atoms: N_1  and  C_2
REMARK    2  A    between atoms: C_2  and  C_3
REMARK    3  A    between atoms: C_3  and  C_4
REMARK    4  A    between atoms: N_9  and  C_10
REMARK    5  A    between atoms: C_10  and  C_11
REMARK    6  A    between atoms: C_14  and  C_15
REMARK                            x       y       z     vdW  Elec       q    Type
REMARK                         _______ _______ _______ _____ _____    ______ ____
ROOT
ATOM      1  C   UNL     1       2.728   4.273  20.102  0.00  0.00    +0.000 C 
ATOM      2  C   UNL     1       1.427   5.129  20.103  0.00  0.00    +0.000 C 
ATOM      3  C   UNL     1       1.677   6.614  20.311  0.00  0.00    +0.000 C 
ATOM      4  C   UNL     1       2.646   7.108  19.259  0.00  0.00    +0.000 C 
ATOM      5  C   UNL     1       3.919   6.277  19.290  0.00  0.00    +0.000 C 
ATOM      6  N   UNL     1       3.687   4.827  19.078  0.00  0.00    +0.000 NA
ENDROOT
BRANCH   1   7
ATOM      7  C   UNL     1       2.321   2.746  19.897  0.00  0.00    +0.000 C 
ATOM      8  C   UNL     1       3.219   1.973  18.839  0.00  0.00    +0.000 C 
ATOM      9  C   UNL     1       2.181   2.280  17.760  0.00  0.00    +0.000 C 
ATOM     10  C   UNL     1       1.145   2.486  18.867  0.00  0.00    +0.000 C 
BRANCH   7  11
ATOM     11  C   UNL     1       2.222   1.996  21.251  0.00  0.00    +0.000 C 
BRANCH  11  12
ATOM     12  N   UNL     1       2.142   2.869  22.431  0.00  0.00    +0.000 NA
ATOM     13  H   UNL     1       1.833   3.791  22.124  0.00  0.00    +0.000 HD
ATOM     14  H   UNL     1       3.078   3.023  22.807  0.00  0.00    +0.000 HD
ENDBRANCH  11  12
ENDBRANCH   7  11
ENDBRANCH   1   7
BRANCH   6  15
ATOM     15  C   UNL     1       5.005   4.135  19.120  0.00  0.00    +0.000 C 
BRANCH  15  16
ATOM     16  C   UNL     1       5.917   4.413  17.957  0.00  0.00    +0.000 A 
ATOM     17  N   UNL     1       7.251   4.517  18.078  0.00  0.00    +0.000 NA
ATOM     18  O   UNL     1       7.680   4.640  16.752  0.00  0.00    +0.000 OA
ATOM     19  C   UNL     1       6.562   4.551  15.968  0.00  0.00    +0.000 A 
ATOM     20  N   UNL     1       5.455   4.426  16.664  0.00  0.00    +0.000 NA
BRANCH  19  21
ATOM     21  C   UNL     1       6.747   4.510  14.525  0.00  0.00    +0.000 A 
ATOM     22  C   UNL     1       7.677   5.324  13.861  0.00  0.00    +0.000 A 
ATOM     23  C   UNL     1       7.862   5.211  12.483  0.00  0.00    +0.000 A 
ATOM     24  C   UNL     1       7.124   4.283  11.751  0.00  0.00    +0.000 A 
ATOM     25  C   UNL     1       6.187   3.478  12.393  0.00  0.00    +0.000 A 
ATOM     26  C   UNL     1       5.998   3.593  13.770  0.00  0.00    +0.000 A 
ENDBRANCH  19  21
ENDBRANCH  15  16
ENDBRANCH   6  15
TORSDOF 6
ENDMDL
MODEL 8
REMARK VINA RESULT:      -7.5      3.300      7.642
REMARK  Name = 
REMARK  6 active torsions:
REMARK  status: ('A' for Active; 'I' for Inactive)
REMARK    1  A    between atoms: N_1  and  C_2
REMARK    2  A    between atoms: C_2  and  C_3
REMARK    3  A    between atoms: C_3  and  C_4
REMARK    4  A    between atoms: N_9  and  C_10
REMARK    5  A    between atoms: C_10  and  C_11
REMARK    6  A    between atoms: C_14  and  C_15
REMARK                            x       y       z     vdW  Elec       q    Type
REMARK                         _______ _______ _______ _____ _____    ______ ____
ROOT
ATOM      1  C   UNL     1       4.606   4.446  17.921  0.00  0.00    +0.000 C 
ATOM      2  C   UNL     1       4.285   3.122  17.166  0.00  0.00    +0.000 C 
ATOM      3  C   UNL     1       3.195   2.294  17.828  0.00  0.00    +0.000 C 
ATOM      4  C   UNL     1       1.951   3.141  17.984  0.00  0.00    +0.000 C 
ATOM      5  C   UNL     1       2.278   4.417  18.744  0.00  0.00    +0.000 C 
ATOM      6  N   UNL     1       3.334   5.237  18.100  0.00  0.00    +0.000 NA
ENDROOT
BRANCH   1   7
ATOM      7  C   UNL     1       5.770   5.199  17.135  0.00  0.00    +0.000 C 
ATOM      8  C   UNL     1       7.181   4.473  17.217  0.00  0.00    +0.000 C 
ATOM      9  C   UNL     1       7.552   5.368  18.400  0.00  0.00    +0.000 C 
ATOM     10  C   UNL     1       6.490   6.365  17.933  0.00  0.00    +0.000 C 
BRANCH   7  11
ATOM     11  C   UNL     1       5.355   5.525  15.676  0.00  0.00    +0.000 C 
BRANCH  11  12
ATOM     12  N   UNL     1       5.154   6.955  15.401  0.00  0.00    +0.000 NA
ATOM     13  H   UNL     1       4.652   7.042  14.517  0.00  0.00    +0.000 HD
ATOM     14  H   UNL     1       6.055   7.400  15.230  0.00  0.00    +0.000 HD
ENDBRANCH  11  12
ENDBRANCH   7  11
ENDBRANCH   1   7
BRANCH   6  15
ATOM     15  C   UNL     1       3.549   6.453  18.933  0.00  0.00    +0.000 C 
BRANCH  15  16
ATOM     16  C   UNL     1       2.785   7.674  18.501  0.00  0.00    +0.000 A 
ATOM     17  N   UNL     1       2.841   8.173  17.255  0.00  0.00    +0.000 NA
ATOM     18  O   UNL     1       1.890   9.199  17.282  0.00  0.00    +0.000 OA
ATOM     19  C   UNL     1       1.327   9.179  18.529  0.00  0.00    +0.000 A 
ATOM     20  N   UNL     1       1.855   8.270  19.317  0.00  0.00    +0.000 NA
BRANCH  19  21
ATOM     21  C   UNL     1       0.200  10.065  18.778  0.00  0.00    +0.000 A 
ATOM     22  C   UNL     1      -0.857  10.215  17.868  0.00  0.00    +0.000 A 
ATOM     23  C   UNL     1      -1.947  11.031  18.173  0.00  0.00    +0.000 A 
ATOM     24  C   UNL     1      -1.996  11.706  19.391  0.00  0.00    +0.000 A 
ATOM     25  C   UNL     1      -0.948  11.579  20.300  0.00  0.00    +0.000 A 
ATOM     26  C   UNL     1       0.143  10.767  19.994  0.00  0.00    +0.000 A 
ENDBRANCH  19  21
ENDBRANCH  15  16
ENDBRANCH   6  15
TORSDOF 6
ENDMDL
MODEL 9
REMARK VINA RESULT:      -7.4      1.091      1.603
REMARK  Name = 
REMARK  6 active torsions:
REMARK  status: ('A' for Active; 'I' for Inactive)
REMARK    1  A    between atoms: N_1  and  C_2
REMARK    2  A    between atoms: C_2  and  C_3
REMARK    3  A    between atoms: C_3  and  C_4
REMARK    4  A    between atoms: N_9  and  C_10
REMARK    5  A    between atoms: C_10  and  C_11
REMARK    6  A    between atoms: C_14  and  C_15
REMARK                            x       y       z     vdW  Elec       q    Type
REMARK                         _______ _______ _______ _____ _____    ______ ____
ROOT
ATOM      1  C   UNL     1       3.136   4.212  20.204  0.00  0.00    +0.000 C 
ATOM      2  C   UNL     1       1.684   4.757  20.347  0.00  0.00    +0.000 C 
ATOM      3  C   UNL     1       1.618   6.261  20.560  0.00  0.00    +0.000 C 
ATOM      4  C   UNL     1       2.346   6.956  19.430  0.00  0.00    +0.000 C 
ATOM      5  C   UNL     1       3.768   6.429  19.321  0.00  0.00    +0.000 C 
ATOM      6  N   UNL     1       3.842   4.964  19.104  0.00  0.00    +0.000 NA
ENDROOT
BRANCH   1   7
ATOM      7  C   UNL     1       3.059   2.632  20.009  0.00  0.00    +0.000 C 
ATOM      8  C   UNL     1       3.608   2.126  18.607  0.00  0.00    +0.000 C 
ATOM      9  C   UNL     1       2.181   2.152  18.059  0.00  0.00    +0.000 C 
ATOM     10  C   UNL     1       1.666   2.074  19.497  0.00  0.00    +0.000 C 
BRANCH   7  11
ATOM     11  C   UNL     1       3.700   1.878  21.204  0.00  0.00    +0.000 C 
BRANCH  11  12
ATOM     12  N   UNL     1       5.160   1.729  21.122  0.00  0.00    +0.000 NA
ATOM     13  H   UNL     1       5.503   2.346  20.384  0.00  0.00    +0.000 HD
ATOM     14  H   UNL     1       5.392   0.790  20.801  0.00  0.00    +0.000 HD
ENDBRANCH  11  12
ENDBRANCH   7  11
ENDBRANCH   1   7
BRANCH   6  15
ATOM     15  C   UNL     1       5.279   4.582  19.005  0.00  0.00    +0.000 C 
BRANCH  15  16
ATOM     16  C   UNL     1       5.966   4.979  17.727  0.00  0.00    +0.000 A 
ATOM     17  N   UNL     1       7.072   5.741  17.695  0.00  0.00    +0.000 NA
ATOM     18  O   UNL     1       7.419   5.735  16.339  0.00  0.00    +0.000 OA
ATOM     19  C   UNL     1       6.511   4.932  15.705  0.00  0.00    +0.000 A 
ATOM     20  N   UNL     1       5.591   4.458  16.514  0.00  0.00    +0.000 NA
BRANCH  19  21
ATOM     21  C   UNL     1       6.729   4.643  14.295  0.00  0.00    +0.000 A 
ATOM     22  C   UNL     1       6.011   3.653  13.609  0.00  0.00    +0.000 A 
ATOM     23  C   UNL     1       6.211   3.449  12.243  0.00  0.00    +0.000 A 
ATOM     24  C   UNL     1       7.129   4.231  11.545  0.00  0.00    +0.000 A 
ATOM     25  C   UNL     1       7.861   5.209  12.215  0.00  0.00    +0.000 A 
ATOM     26  C   UNL     1       7.664   5.411  13.581  0.00  0.00    +0.000 A 
ENDBRANCH  19  21
ENDBRANCH  15  16
ENDBRANCH   6  15
TORSDOF 6
ENDMDL
