MODEL 1
REMARK VINA RESULT:      -8.9      0.000      0.000
REMARK  Name = 
REMARK  6 active torsions:
REMARK  status: ('A' for Active; 'I' for Inactive)
REMARK    1  A    between atoms: C_1  and  O_2
REMARK    2  A    between atoms: O_2  and  C_3
REMARK    3  A    between atoms: C_7  and  C_8
REMARK    4  A    between atoms: C_10  and  C_11
REMARK    5  A    between atoms: C_11  and  N_12
REMARK    6  A    between atoms: N_12  and  C_13
REMARK                            x       y       z     vdW  Elec       q    Type
REMARK                         _______ _______ _______ _____ _____    ______ ____
ROOT
ATOM      1  C   UNL     1       6.757   4.564  15.938  0.00  0.00    +0.000 A 
ATOM      2  N   UNL     1       5.681   4.651  16.697  0.00  0.00    +0.000 NA
ATOM      3  C   UNL     1       6.182   4.696  17.977  0.00  0.00    +0.000 A 
ATOM      4  C   UNL     1       7.556   4.627  17.935  0.00  0.00    +0.000 A 
ATOM      5  O   UNL     1       7.940   4.549  16.634  0.00  0.00    +0.000 OA
ENDROOT
BRANCH   1  10
ATOM      6  C   UNL     1       6.063   3.449  12.428  0.00  0.00    +0.000 A 
ATOM      7  C   UNL     1       6.954   4.251  11.710  0.00  0.00    +0.000 A 
ATOM      8  C   UNL     1       7.781   5.170  12.358  0.00  0.00    +0.000 A 
ATOM      9  C   UNL     1       7.716   5.279  13.750  0.00  0.00    +0.000 A 
ATOM     10  C   UNL     1       6.835   4.468  14.487  0.00  0.00    +0.000 A 
ATOM     11  C   UNL     1       6.004   3.564  13.817  0.00  0.00    +0.000 A 
BRANCH   6  13
ATOM     12  C   UNL     1       4.074   3.066  11.167  0.00  0.00    +0.000 C 
ATOM     13  O   UNL     1       5.318   2.586  11.671  0.00  0.00    +0.000 OA
ENDBRANCH   6  13
ENDBRANCH   1  10
BRANCH   3  14
ATOM     14  C   UNL     1       5.285   4.740  19.150  0.00  0.00    +0.000 C 
BRANCH  14  15
ATOM     15  N   UNL     1       4.555   5.998  19.199  0.00  0.00    +0.000 NA
ATOM     16  H   UNL     1       4.858   6.456  20.057  0.00  0.00    +0.000 HD
BRANCH  15  17
ATOM     17  C   UNL     1       3.085   5.900  19.241  0.00  0.00    +0.000 C 
ATOM     18  C   UNL     1       2.729   5.542  17.761  0.00  0.00    +0.000 C 
ATOM     19  C   UNL     1       1.458   4.724  17.803  0.00  0.00    +0.000 C 
ATOM     20  C   UNL     1       1.734   3.930  19.038  0.00  0.00    +0.000 A 
ATOM     21  C   UNL     1       1.241   2.677  19.346  0.00  0.00    +0.000 A 
ATOM     22  C   UNL     1       1.292   2.275  20.673  0.00  0.00    +0.000 A 
ATOM     23  C   UNL     1       1.777   3.159  21.650  0.00  0.00    +0.000 A 
ATOM     24  C   UNL     1       2.392   4.373  21.294  0.00  0.00    +0.000 A 
ATOM     25  C   UNL     1       2.472   4.704  19.957  0.00  0.00    +0.000 A 
ENDBRANCH  15  17
ENDBRANCH  14  15
ENDBRANCH   3  14
TORSDOF 5
ENDMDL
MODEL 2
REMARK VINA RESULT:      -8.3      4.600      6.605
REMARK  Name = 
REMARK  6 active torsions:
REMARK  status: ('A' for Active; 'I' for Inactive)
REMARK    1  A    between atoms: C_1  and  O_2
REMARK    2  A    between atoms: O_2  and  C_3
REMARK    3  A    between atoms: C_7  and  C_8
REMARK    4  A    between atoms: C_10  and  C_11
REMARK    5  A    between atoms: C_11  and  N_12
REMARK    6  A    between atoms: N_12  and  C_13
REMARK                            x       y       z     vdW  Elec       q    Type
REMARK                         _______ _______ _______ _____ _____    ______ ____
ROOT
ATOM      1  C   UNL     1       8.073   8.425  17.984  0.00  0.00    +0.000 A 
ATOM      2  N   UNL     1       7.347   7.980  16.976  0.00  0.00    +0.000 NA
ATOM      3  C   UNL     1       7.217   6.635  17.230  0.00  0.00    +0.000 A 
ATOM      4  C   UNL     1       7.883   6.321  18.393  0.00  0.00    +0.000 A 
ATOM      5  O   UNL     1       8.431   7.460  18.892  0.00  0.00    +0.000 OA
ENDROOT
BRANCH   1  10
ATOM      6  C   UNL     1       9.951  11.294  19.495  0.00  0.00    +0.000 A 
ATOM      7  C   UNL     1       9.461  12.363  18.741  0.00  0.00    +0.000 A 
ATOM      8  C   UNL     1       8.524  12.161  17.726  0.00  0.00    +0.000 A 
ATOM      9  C   UNL     1       8.067  10.865  17.471  0.00  0.00    +0.000 A 
ATOM     10  C   UNL     1       8.541   9.781  18.233  0.00  0.00    +0.000 A 
ATOM     11  C   UNL     1       9.490  10.004  19.235  0.00  0.00    +0.000 A 
BRANCH   6  13
ATOM     12  C   UNL     1      12.066  12.259  20.036  0.00  0.00    +0.000 C 
ATOM     13  O   UNL     1      10.858  11.633  20.463  0.00  0.00    +0.000 OA
ENDBRANCH   6  13
ENDBRANCH   1  10
BRANCH   3  14
ATOM     14  C   UNL     1       6.506   5.743  16.292  0.00  0.00    +0.000 C 
BRANCH  14  15
ATOM     15  N   UNL     1       5.064   5.867  16.448  0.00  0.00    +0.000 NA
ATOM     16  H   UNL     1       4.846   6.835  16.214  0.00  0.00    +0.000 HD
BRANCH  15  17
ATOM     17  C   UNL     1       4.525   5.602  17.794  0.00  0.00    +0.000 C 
ATOM     18  C   UNL     1       3.423   6.702  17.938  0.00  0.00    +0.000 C 
ATOM     19  C   UNL     1       2.357   6.136  18.848  0.00  0.00    +0.000 C 
ATOM     20  C   UNL     1       2.371   4.720  18.369  0.00  0.00    +0.000 A 
ATOM     21  C   UNL     1       1.325   3.820  18.412  0.00  0.00    +0.000 A 
ATOM     22  C   UNL     1       1.631   2.473  18.285  0.00  0.00    +0.000 A 
ATOM     23  C   UNL     1       2.972   2.071  18.179  0.00  0.00    +0.000 A 
ATOM     24  C   UNL     1       4.004   3.012  18.007  0.00  0.00    +0.000 A 
ATOM     25  C   UNL     1       3.677   4.352  17.986  0.00  0.00    +0.000 A 
ENDBRANCH  15  17
ENDBRANCH  14  15
ENDBRANCH   3  14
TORSDOF 5
ENDMDL
MODEL 3
REMARK VINA RESULT:      -8.2      1.310      2.429
REMARK  Name = 
REMARK  6 active torsions:
REMARK  status: ('A' for Active; 'I' for Inactive)
REMARK    1  A    between atoms: C_1  and  O_2
REMARK    2  A    between atoms: O_2  and  C_3
REMARK    3  A    between atoms: C_7  and  C_8
REMARK    4  A    between atoms: C_10  and  C_11
REMARK    5  A    between atoms: C_11  and  N_12
REMARK    6  A    between atoms: N_12  and  C_13
REMARK                            x       y       z     vdW  Elec       q    Type
REMARK                         _______ _______ _______ _____ _____    ______ ____
ROOT
ATOM      1  C   UNL     1       6.237   4.513  15.854  0.00  0.00    +0.000 A 
ATOM      2  N   UNL     1       5.434   3.785  16.606  0.00  0.00    +0.000 NA
ATOM      3  C   UNL     1       5.576   4.327  17.862  0.00  0.00    +0.000 A 
ATOM      4  C   UNL     1       6.474   5.368  17.815  0.00  0.00    +0.000 A 
ATOM      5  O   UNL     1       6.902   5.505  16.532  0.00  0.00    +0.000 OA
ENDROOT
BRANCH   1  10
ATOM      6  C   UNL     1       5.996   3.334  12.305  0.00  0.00    +0.000 A 
ATOM      7  C   UNL     1       6.996   4.100  11.699  0.00  0.00    +0.000 A 
ATOM      8  C   UNL     1       7.751   5.014  12.435  0.00  0.00    +0.000 A 
ATOM      9  C   UNL     1       7.501   5.156  13.804  0.00  0.00    +0.000 A 
ATOM     10  C   UNL     1       6.508   4.382  14.429  0.00  0.00    +0.000 A 
ATOM     11  C   UNL     1       5.753   3.482  13.670  0.00  0.00    +0.000 A 
BRANCH   6  13
ATOM     12  C   UNL     1       5.909   1.179  11.284  0.00  0.00    +0.000 C 
ATOM     13  O   UNL     1       5.338   2.471  11.471  0.00  0.00    +0.000 OA
ENDBRANCH   6  13
ENDBRANCH   1  10
BRANCH   3  14
ATOM     14  C   UNL     1       4.874   3.753  19.028  0.00  0.00    +0.000 C 
BRANCH  14  15
ATOM     15  N   UNL     1       3.770   2.903  18.604  0.00  0.00    +0.000 NA
ATOM     16  H   UNL     1       3.942   2.704  17.620  0.00  0.00    +0.000 HD
BRANCH  15  17
ATOM     17  C   UNL     1       2.419   3.483  18.713  0.00  0.00    +0.000 C 
ATOM     18  C   UNL     1       1.930   2.939  20.096  0.00  0.00    +0.000 C 
ATOM     19  C   UNL     1       0.973   3.967  20.655  0.00  0.00    +0.000 C 
ATOM     20  C   UNL     1       1.672   5.207  20.202  0.00  0.00    +0.000 A 
ATOM     21  C   UNL     1       1.618   6.453  20.794  0.00  0.00    +0.000 A 
ATOM     22  C   UNL     1       2.009   7.544  20.031  0.00  0.00    +0.000 A 
ATOM     23  C   UNL     1       2.383   7.358  18.690  0.00  0.00    +0.000 A 
ATOM     24  C   UNL     1       2.555   6.070  18.154  0.00  0.00    +0.000 A 
ATOM     25  C   UNL     1       2.306   4.980  18.963  0.00  0.00    +0.000 A 
ENDBRANCH  15  17
ENDBRANCH  14  15
ENDBRANCH   3  14
TORSDOF 5
ENDMDL
MODEL 4
REMARK VINA RESULT:      -8.2      1.344      1.503
REMARK  Name = 
REMARK  6 active torsions:
REMARK  status: ('A' for Active; 'I' for Inactive)
REMARK    1  A    between atoms: C_1  and  O_2
REMARK    2  A    between atoms: O_2  and  C_3
REMARK    3  A    between atoms: C_7  and  C_8
REMARK    4  A    between atoms: C_10  and  C_11
REMARK    5  A    between atoms: C_11  and  N_12
REMARK    6  A    between atoms: N_12  and  C_13
REMARK                            x       y       z     vdW  Elec       q    Type
REMARK                         _______ _______ _______ _____ _____    ______ ____
ROOT
ATOM      1  C   UNL     1       6.842   5.319  15.849  0.00  0.00    +0.000 A 
ATOM      2  N   UNL     1       6.201   4.741  16.847  0.00  0.00    +0.000 NA
ATOM      3  C   UNL     1       6.503   5.528  17.933  0.00  0.00    +0.000 A 
ATOM      4  C   UNL     1       7.328   6.557  17.540  0.00  0.00    +0.000 A 
ATOM      5  O   UNL     1       7.549   6.440  16.205  0.00  0.00    +0.000 OA
ENDROOT
BRANCH   1  10
ATOM      6  C   UNL     1       6.036   3.533  12.654  0.00  0.00    +0.000 A 
ATOM      7  C   UNL     1       6.980   4.092  11.788  0.00  0.00    +0.000 A 
ATOM      8  C   UNL     1       7.881   5.062  12.231  0.00  0.00    +0.000 A 
ATOM      9  C   UNL     1       7.836   5.471  13.567  0.00  0.00    +0.000 A 
ATOM     10  C   UNL     1       6.900   4.907  14.453  0.00  0.00    +0.000 A 
ATOM     11  C   UNL     1       5.997   3.947  13.985  0.00  0.00    +0.000 A 
BRANCH   6  13
ATOM     12  C   UNL     1       4.153   3.051  11.268  0.00  0.00    +0.000 C 
ATOM     13  O   UNL     1       5.220   2.588  12.093  0.00  0.00    +0.000 OA
ENDBRANCH   6  13
ENDBRANCH   1  10
BRANCH   3  14
ATOM     14  C   UNL     1       6.016   5.187  19.286  0.00  0.00    +0.000 C 
BRANCH  14  15
ATOM     15  N   UNL     1       4.878   6.018  19.654  0.00  0.00    +0.000 NA
ATOM     16  H   UNL     1       5.072   6.342  20.601  0.00  0.00    +0.000 HD
BRANCH  15  17
ATOM     17  C   UNL     1       3.562   5.356  19.670  0.00  0.00    +0.000 C 
ATOM     18  C   UNL     1       2.839   6.016  18.449  0.00  0.00    +0.000 C 
ATOM     19  C   UNL     1       1.868   4.990  17.911  0.00  0.00    +0.000 C 
ATOM     20  C   UNL     1       2.697   3.762  18.101  0.00  0.00    +0.000 A 
ATOM     21  C   UNL     1       2.624   2.591  17.374  0.00  0.00    +0.000 A 
ATOM     22  C   UNL     1       3.187   1.452  17.932  0.00  0.00    +0.000 A 
ATOM     23  C   UNL     1       3.749   1.511  19.218  0.00  0.00    +0.000 A 
ATOM     24  C   UNL     1       3.927   2.740  19.879  0.00  0.00    +0.000 A 
ATOM     25  C   UNL     1       3.497   3.893  19.256  0.00  0.00    +0.000 A 
ENDBRANCH  15  17
ENDBRANCH  14  15
ENDBRANCH   3  14
TORSDOF 5
ENDMDL
MODEL 5
REMARK VINA RESULT:      -8.1      4.712      6.434
REMARK  Name = 
REMARK  6 active torsions:
REMARK  status: ('A' for Active; 'I' for Inactive)
REMARK    1  A    between atoms: C_1  and  O_2
REMARK    2  A    between atoms: O_2  and  C_3
REMARK    3  A    between atoms: C_7  and  C_8
REMARK    4  A    between atoms: C_10  and  C_11
REMARK    5  A    between atoms: C_11  and  N_12
REMARK    6  A    between atoms: N_12  and  C_13
REMARK                            x       y       z     vdW  Elec       q    Type
REMARK                         _______ _______ _______ _____ _____    ______ ____
ROOT
ATOM      1  C   UNL     1       8.193   8.523  18.130  0.00  0.00    +0.000 A 
ATOM      2  N   UNL     1       7.457   8.134  17.106  0.00  0.00    +0.000 NA
ATOM      3  C   UNL     1       7.310   6.781  17.300  0.00  0.00    +0.000 A 
ATOM      4  C   UNL     1       7.976   6.405  18.444  0.00  0.00    +0.000 A 
ATOM      5  O   UNL     1       8.542   7.513  18.991  0.00  0.00    +0.000 OA
ENDROOT
BRANCH   1  10
ATOM      6  C   UNL     1       8.708  12.229  17.929  0.00  0.00    +0.000 A 
ATOM      7  C   UNL     1       9.592  12.436  18.991  0.00  0.00    +0.000 A 
ATOM      8  C   UNL     1      10.021  11.375  19.790  0.00  0.00    +0.000 A 
ATOM      9  C   UNL     1       9.560  10.085  19.511  0.00  0.00    +0.000 A 
ATOM     10  C   UNL     1       8.680   9.860  18.437  0.00  0.00    +0.000 A 
ATOM     11  C   UNL     1       8.251  10.940  17.658  0.00  0.00    +0.000 A 
BRANCH   6  13
ATOM     12  C   UNL     1       7.244  14.098  17.673  0.00  0.00    +0.000 C 
ATOM     13  O   UNL     1       8.374  13.354  17.223  0.00  0.00    +0.000 OA
ENDBRANCH   6  13
ENDBRANCH   1  10
BRANCH   3  14
ATOM     14  C   UNL     1       6.583   5.942  16.325  0.00  0.00    +0.000 C 
BRANCH  14  15
ATOM     15  N   UNL     1       5.146   6.157  16.423  0.00  0.00    +0.000 NA
ATOM     16  H   UNL     1       5.005   7.146  16.222  0.00  0.00    +0.000 HD
BRANCH  15  17
ATOM     17  C   UNL     1       4.529   5.874  17.731  0.00  0.00    +0.000 C 
ATOM     18  C   UNL     1       3.357   6.908  17.780  0.00  0.00    +0.000 C 
ATOM     19  C   UNL     1       2.263   6.289  18.621  0.00  0.00    +0.000 C 
ATOM     20  C   UNL     1       2.395   4.872  18.166  0.00  0.00    +0.000 A 
ATOM     21  C   UNL     1       1.404   3.911  18.148  0.00  0.00    +0.000 A 
ATOM     22  C   UNL     1       1.797   2.583  18.063  0.00  0.00    +0.000 A 
ATOM     23  C   UNL     1       3.164   2.262  18.059  0.00  0.00    +0.000 A 
ATOM     24  C   UNL     1       4.148   3.260  17.946  0.00  0.00    +0.000 A 
ATOM     25  C   UNL     1       3.744   4.578  17.882  0.00  0.00    +0.000 A 
ENDBRANCH  15  17
ENDBRANCH  14  15
ENDBRANCH   3  14
TORSDOF 5
ENDMDL
MODEL 6
REMARK VINA RESULT:      -8.0      1.374      1.817
REMARK  Name = 
REMARK  6 active torsions:
REMARK  status: ('A' for Active; 'I' for Inactive)
REMARK    1  A    between atoms: C_1  and  O_2
REMARK    2  A    between atoms: O_2  and  C_3
REMARK    3  A    between atoms: C_7  and  C_8
REMARK    4  A    between atoms: C_10  and  C_11
REMARK    5  A    between atoms: C_11  and  N_12
REMARK    6  A    between atoms: N_12  and  C_13
REMARK                            x       y       z     vdW  Elec       q    Type
REMARK                         _______ _______ _______ _____ _____    ______ ____
ROOT
ATOM      1  C   UNL     1       6.510   5.185  15.616  0.00  0.00    +0.000 A 
ATOM      2  N   UNL     1       6.654   4.446  16.700  0.00  0.00    +0.000 NA
ATOM      3  C   UNL     1       6.349   5.306  17.729  0.00  0.00    +0.000 A 
ATOM      4  C   UNL     1       6.035   6.544  17.215  0.00  0.00    +0.000 A 
ATOM      5  O   UNL     1       6.127   6.480  15.861  0.00  0.00    +0.000 OA
ENDROOT
BRANCH   1  10
ATOM      6  C   UNL     1       6.054   3.471  12.315  0.00  0.00    +0.000 A 
ATOM      7  C   UNL     1       7.090   4.042  11.570  0.00  0.00    +0.000 A 
ATOM      8  C   UNL     1       7.940   4.997  12.130  0.00  0.00    +0.000 A 
ATOM      9  C   UNL     1       7.750   5.379  13.462  0.00  0.00    +0.000 A 
ATOM     10  C   UNL     1       6.720   4.802  14.227  0.00  0.00    +0.000 A 
ATOM     11  C   UNL     1       5.871   3.858  13.642  0.00  0.00    +0.000 A 
BRANCH   6  13
ATOM     12  C   UNL     1       4.042   2.969  11.132  0.00  0.00    +0.000 C 
ATOM     13  O   UNL     1       5.301   2.543  11.647  0.00  0.00    +0.000 OA
ENDBRANCH   6  13
ENDBRANCH   1  10
BRANCH   3  14
ATOM     14  C   UNL     1       6.444   4.878  19.139  0.00  0.00    +0.000 C 
BRANCH  14  15
ATOM     15  N   UNL     1       5.685   3.656  19.364  0.00  0.00    +0.000 NA
ATOM     16  H   UNL     1       6.285   2.899  19.040  0.00  0.00    +0.000 HD
BRANCH  15  17
ATOM     17  C   UNL     1       4.400   3.543  18.652  0.00  0.00    +0.000 C 
ATOM     18  C   UNL     1       4.098   2.011  18.745  0.00  0.00    +0.000 C 
ATOM     19  C   UNL     1       2.593   1.862  18.746  0.00  0.00    +0.000 C 
ATOM     20  C   UNL     1       2.242   3.053  19.576  0.00  0.00    +0.000 A 
ATOM     21  C   UNL     1       1.121   3.212  20.366  0.00  0.00    +0.000 A 
ATOM     22  C   UNL     1       0.780   4.503  20.745  0.00  0.00    +0.000 A 
ATOM     23  C   UNL     1       1.535   5.589  20.275  0.00  0.00    +0.000 A 
ATOM     24  C   UNL     1       2.744   5.391  19.583  0.00  0.00    +0.000 A 
ATOM     25  C   UNL     1       3.157   4.098  19.334  0.00  0.00    +0.000 A 
ENDBRANCH  15  17
ENDBRANCH  14  15
ENDBRANCH   3  14
TORSDOF 5
ENDMDL
MODEL 7
REMARK VINA RESULT:      -8.0      4.941      6.765
REMARK  Name = 
REMARK  6 active torsions:
REMARK  status: ('A' for Active; 'I' for Inactive)
REMARK    1  A    between atoms: C_1  and  O_2
REMARK    2  A    between atoms: O_2  and  C_3
REMARK    3  A    between atoms: C_7  and  C_8
REMARK    4  A    between atoms: C_10  and  C_11
REMARK    5  A    between atoms: C_11  and  N_12
REMARK    6  A    between atoms: N_12  and  C_13
REMARK                            x       y       z     vdW  Elec       q    Type
REMARK                         _______ _______ _______ _____ _____    ______ ____
ROOT
ATOM      1  C   UNL     1       8.484   8.803  18.404  0.00  0.00    +0.000 A 
ATOM      2  N   UNL     1       8.488   7.633  19.014  0.00  0.00    +0.000 NA
ATOM      3  C   UNL     1       7.696   6.841  18.216  0.00  0.00    +0.000 A 
ATOM      4  C   UNL     1       7.239   7.578  17.147  0.00  0.00    +0.000 A 
ATOM      5  O   UNL     1       7.740   8.837  17.251  0.00  0.00    +0.000 OA
ENDROOT
BRANCH   1  10
ATOM      6  C   UNL     1      10.270  12.091  18.190  0.00  0.00    +0.000 A 
ATOM      7  C   UNL     1      10.416  12.406  19.543  0.00  0.00    +0.000 A 
ATOM      8  C   UNL     1       9.926  11.560  20.538  0.00  0.00    +0.000 A 
ATOM      9  C   UNL     1       9.285  10.373  20.167  0.00  0.00    +0.000 A 
ATOM     10  C   UNL     1       9.144  10.036  18.809  0.00  0.00    +0.000 A 
ATOM     11  C   UNL     1       9.629  10.906  17.827  0.00  0.00    +0.000 A 
BRANCH   6  13
ATOM     12  C   UNL     1      10.795  14.371  17.719  0.00  0.00    +0.000 C 
ATOM     13  O   UNL     1      10.803  13.003  17.319  0.00  0.00    +0.000 OA
ENDBRANCH   6  13
ENDBRANCH   1  10
BRANCH   3  14
ATOM     14  C   UNL     1       7.394   5.443  18.582  0.00  0.00    +0.000 C 
BRANCH  14  15
ATOM     15  N   UNL     1       6.123   5.353  19.287  0.00  0.00    +0.000 NA
ATOM     16  H   UNL     1       6.129   4.441  19.744  0.00  0.00    +0.000 HD
BRANCH  15  17
ATOM     17  C   UNL     1       4.907   5.429  18.458  0.00  0.00    +0.000 C 
ATOM     18  C   UNL     1       5.104   4.238  17.463  0.00  0.00    +0.000 C 
ATOM     19  C   UNL     1       3.723   3.747  17.092  0.00  0.00    +0.000 C 
ATOM     20  C   UNL     1       3.056   3.906  18.419  0.00  0.00    +0.000 A 
ATOM     21  C   UNL     1       1.978   3.188  18.897  0.00  0.00    +0.000 A 
ATOM     22  C   UNL     1       1.268   3.725  19.961  0.00  0.00    +0.000 A 
ATOM     23  C   UNL     1       1.624   4.985  20.469  0.00  0.00    +0.000 A 
ATOM     24  C   UNL     1       2.800   5.633  20.053  0.00  0.00    +0.000 A 
ATOM     25  C   UNL     1       3.585   5.024  19.096  0.00  0.00    +0.000 A 
ENDBRANCH  15  17
ENDBRANCH  14  15
ENDBRANCH   3  14
TORSDOF 5
ENDMDL
MODEL 8
REMARK VINA RESULT:      -8.0      1.443      1.896
REMARK  Name = 
REMARK  6 active torsions:
REMARK  status: ('A' for Active; 'I' for Inactive)
REMARK    1  A    between atoms: C_1  and  O_2
REMARK    2  A    between atoms: O_2  and  C_3
REMARK    3  A    between atoms: C_7  and  C_8
REMARK    4  A    between atoms: C_10  and  C_11
REMARK    5  A    between atoms: C_11  and  N_12
REMARK    6  A    between atoms: N_12  and  C_13
REMARK                            x       y       z     vdW  Elec       q    Type
REMARK                         _______ _______ _______ _____ _____    ______ ____
ROOT
ATOM      1  C   UNL     1       5.807   5.413  15.643  0.00  0.00    +0.000 A 
ATOM      2  N   UNL     1       5.953   4.866  16.835  0.00  0.00    +0.000 NA
ATOM      3  C   UNL     1       5.374   5.775  17.689  0.00  0.00    +0.000 A 
ATOM      4  C   UNL     1       4.902   6.848  16.967  0.00  0.00    +0.000 A 
ATOM      5  O   UNL     1       5.166   6.627  15.653  0.00  0.00    +0.000 OA
ENDROOT
BRANCH   1  10
ATOM      6  C   UNL     1       5.833   3.499  12.421  0.00  0.00    +0.000 A 
ATOM      7  C   UNL     1       7.059   3.897  11.882  0.00  0.00    +0.000 A 
ATOM      8  C   UNL     1       7.885   4.799  12.555  0.00  0.00    +0.000 A 
ATOM      9  C   UNL     1       7.474   5.304  13.793  0.00  0.00    +0.000 A 
ATOM     10  C   UNL     1       6.249   4.901  14.354  0.00  0.00    +0.000 A 
ATOM     11  C   UNL     1       5.430   4.008  13.656  0.00  0.00    +0.000 A 
BRANCH   6  13
ATOM     12  C   UNL     1       3.913   3.064  11.072  0.00  0.00    +0.000 C 
ATOM     13  O   UNL     1       5.127   2.605  11.663  0.00  0.00    +0.000 OA
ENDBRANCH   6  13
ENDBRANCH   1  10
BRANCH   3  14
ATOM     14  C   UNL     1       5.376   5.563  19.151  0.00  0.00    +0.000 C 
BRANCH  14  15
ATOM     15  N   UNL     1       4.095   5.937  19.733  0.00  0.00    +0.000 NA
ATOM     16  H   UNL     1       4.310   6.648  20.431  0.00  0.00    +0.000 HD
BRANCH  15  17
ATOM     17  C   UNL     1       3.343   4.863  20.407  0.00  0.00    +0.000 C 
ATOM     18  C   UNL     1       1.911   5.480  20.527  0.00  0.00    +0.000 C 
ATOM     19  C   UNL     1       0.935   4.326  20.492  0.00  0.00    +0.000 C 
ATOM     20  C   UNL     1       1.626   3.467  19.484  0.00  0.00    +0.000 A 
ATOM     21  C   UNL     1       1.041   2.545  18.638  0.00  0.00    +0.000 A 
ATOM     22  C   UNL     1       1.865   1.588  18.063  0.00  0.00    +0.000 A 
ATOM     23  C   UNL     1       3.228   1.550  18.397  0.00  0.00    +0.000 A 
ATOM     24  C   UNL     1       3.821   2.576  19.155  0.00  0.00    +0.000 A 
ATOM     25  C   UNL     1       3.024   3.608  19.605  0.00  0.00    +0.000 A 
ENDBRANCH  15  17
ENDBRANCH  14  15
ENDBRANCH   3  14
TORSDOF 5
ENDMDL
MODEL 9
REMARK VINA RESULT:      -7.9      3.558      7.561
REMARK  Name = 
REMARK  6 active torsions:
REMARK  status: ('A' for Active; 'I' for Inactive)
REMARK    1  A    between atoms: C_1  and  O_2
REMARK    2  A    between atoms: O_2  and  C_3
REMARK    3  A    between atoms: C_7  and  C_8
REMARK    4  A    between atoms: C_10  and  C_11
REMARK    5  A    between atoms: C_11  and  N_12
REMARK    6  A    between atoms: N_12  and  C_13
REMARK                            x       y       z     vdW  Elec       q    Type
REMARK                         _______ _______ _______ _____ _____    ______ ____
ROOT
ATOM      1  C   UNL     1       2.586   6.152  19.421  0.00  0.00    +0.000 A 
ATOM      2  N   UNL     1       3.411   5.487  18.635  0.00  0.00    +0.000 NA
ATOM      3  C   UNL     1       3.551   4.269  19.256  0.00  0.00    +0.000 A 
ATOM      4  C   UNL     1       2.799   4.252  20.409  0.00  0.00    +0.000 A 
ATOM      5  O   UNL     1       2.170   5.451  20.525  0.00  0.00    +0.000 OA
ENDROOT
BRANCH   1  10
ATOM      6  C   UNL     1       0.997   9.446  20.237  0.00  0.00    +0.000 A 
ATOM      7  C   UNL     1       1.131  10.118  19.020  0.00  0.00    +0.000 A 
ATOM      8  C   UNL     1       1.748   9.512  17.925  0.00  0.00    +0.000 A 
ATOM      9  C   UNL     1       2.233   8.206  18.054  0.00  0.00    +0.000 A 
ATOM     10  C   UNL     1       2.092   7.513  19.270  0.00  0.00    +0.000 A 
ATOM     11  C   UNL     1       1.483   8.145  20.359  0.00  0.00    +0.000 A 
BRANCH   6  13
ATOM     12  C   UNL     1       0.322   9.565  22.524  0.00  0.00    +0.000 C 
ATOM     13  O   UNL     1       0.365  10.153  21.225  0.00  0.00    +0.000 OA
ENDBRANCH   6  13
ENDBRANCH   1  10
BRANCH   3  14
ATOM     14  C   UNL     1       4.453   3.231  18.716  0.00  0.00    +0.000 C 
BRANCH  14  15
ATOM     15  N   UNL     1       4.513   3.300  17.263  0.00  0.00    +0.000 NA
ATOM     16  H   UNL     1       4.288   2.361  16.936  0.00  0.00    +0.000 HD
BRANCH  15  17
ATOM     17  C   UNL     1       5.813   3.676  16.678  0.00  0.00    +0.000 C 
ATOM     18  C   UNL     1       5.389   4.441  15.381  0.00  0.00    +0.000 C 
ATOM     19  C   UNL     1       6.469   5.462  15.104  0.00  0.00    +0.000 C 
ATOM     20  C   UNL     1       6.772   5.867  16.510  0.00  0.00    +0.000 A 
ATOM     21  C   UNL     1       7.273   7.082  16.934  0.00  0.00    +0.000 A 
ATOM     22  C   UNL     1       7.842   7.136  18.198  0.00  0.00    +0.000 A 
ATOM     23  C   UNL     1       7.943   5.966  18.967  0.00  0.00    +0.000 A 
ATOM     24  C   UNL     1       7.311   4.775  18.568  0.00  0.00    +0.000 A 
ATOM     25  C   UNL     1       6.618   4.764  17.375  0.00  0.00    +0.000 A 
ENDBRANCH  15  17
ENDBRANCH  14  15
ENDBRANCH   3  14
TORSDOF 5
ENDMDL
