MODEL 1
REMARK VINA RESULT:      -7.5      0.000      0.000
REMARK  Name = 
REMARK  7 active torsions:
REMARK  status: ('A' for Active; 'I' for Inactive)
REMARK    1  A    between atoms: C_1  and  O_2
REMARK    2  A    between atoms: O_2  and  C_3
REMARK    3  A    between atoms: C_3  and  C_5
REMARK    4  A    between atoms: C_8  and  C_9
REMARK    5  A    between atoms: C_9  and  C_10
REMARK    6  A    between atoms: C_10  and  N_11
REMARK    7  A    between atoms: C_15  and  C_16
REMARK                            x       y       z     vdW  Elec       q    Type
REMARK                         _______ _______ _______ _____ _____    ______ ____
ROOT
ATOM      1  C   UNL     1       4.318   5.769  19.296  0.00  0.00    +0.000 C 
ENDROOT
BRANCH   1   5
ATOM      2  C   UNL     1       6.408   5.092  15.563  0.00  0.00    +0.000 A 
ATOM      3  C   UNL     1       5.271   5.909  15.600  0.00  0.00    +0.000 A 
ATOM      4  C   UNL     1       4.595   6.123  16.803  0.00  0.00    +0.000 A 
ATOM      5  C   UNL     1       5.034   5.516  17.987  0.00  0.00    +0.000 A 
ATOM      6  C   UNL     1       6.182   4.714  17.950  0.00  0.00    +0.000 A 
ATOM      7  C   UNL     1       6.865   4.502  16.748  0.00  0.00    +0.000 A 
BRANCH   2   8
ATOM      8  C   UNL     1       7.087   4.898  14.253  0.00  0.00    +0.000 C 
ATOM      9  O   UNL     1       8.090   5.508  13.919  0.00  0.00    +0.000 OA
BRANCH   8  11
ATOM     10  C   UNL     1       6.878   3.907  12.149  0.00  0.00    +0.000 C 
ATOM     11  O   UNL     1       6.433   3.975  13.506  0.00  0.00    +0.000 OA
ENDBRANCH   8  11
ENDBRANCH   2   8
ENDBRANCH   1   5
BRANCH   1  12
ATOM     12  C   UNL     1       2.864   5.249  19.304  0.00  0.00    +0.000 C 
BRANCH  12  13
ATOM     13  N   UNL     1       2.768   3.776  19.309  0.00  0.00    +0.000 NA
ATOM     14  C   UNL     1       1.374   3.330  19.486  0.00  0.00    +0.000 C 
ATOM     15  C   UNL     1       1.170   3.181  20.980  0.00  0.00    +0.000 C 
ATOM     16  C   UNL     1       2.513   2.691  21.484  0.00  0.00    +0.000 C 
ATOM     17  C   UNL     1       3.530   3.158  20.442  0.00  0.00    +0.000 C 
BRANCH  17  18
ATOM     18  C   UNL     1       4.376   1.971  19.935  0.00  0.00    +0.000 C 
ATOM     19  N   UNL     1       4.095   1.549  18.668  0.00  0.00    +0.000 N 
ATOM     20  O   UNL     1       5.255   1.434  20.600  0.00  0.00    +0.000 OA
ATOM     21  H   UNL     1       3.338   2.003  18.168  0.00  0.00    +0.000 HD
ATOM     22  H   UNL     1       4.592   0.765  18.273  0.00  0.00    +0.000 HD
ENDBRANCH  17  18
ENDBRANCH  12  13
ENDBRANCH   1  12
TORSDOF 6
ENDMDL
MODEL 2
REMARK VINA RESULT:      -7.5      0.860      1.369
REMARK  Name = 
REMARK  7 active torsions:
REMARK  status: ('A' for Active; 'I' for Inactive)
REMARK    1  A    between atoms: C_1  and  O_2
REMARK    2  A    between atoms: O_2  and  C_3
REMARK    3  A    between atoms: C_3  and  C_5
REMARK    4  A    between atoms: C_8  and  C_9
REMARK    5  A    between atoms: C_9  and  C_10
REMARK    6  A    between atoms: C_10  and  N_11
REMARK    7  A    between atoms: C_15  and  C_16
REMARK                            x       y       z     vdW  Elec       q    Type
REMARK                         _______ _______ _______ _____ _____    ______ ____
ROOT
ATOM      1  C   UNL     1       4.085   5.756  19.090  0.00  0.00    +0.000 C 
ENDROOT
BRANCH   1   5
ATOM      2  C   UNL     1       6.290   5.131  15.415  0.00  0.00    +0.000 A 
ATOM      3  C   UNL     1       6.535   4.324  16.534  0.00  0.00    +0.000 A 
ATOM      4  C   UNL     1       5.826   4.529  17.719  0.00  0.00    +0.000 A 
ATOM      5  C   UNL     1       4.872   5.550  17.815  0.00  0.00    +0.000 A 
ATOM      6  C   UNL     1       4.618   6.345  16.689  0.00  0.00    +0.000 A 
ATOM      7  C   UNL     1       5.322   6.139  15.497  0.00  0.00    +0.000 A 
BRANCH   2   8
ATOM      8  C   UNL     1       7.077   4.869  14.178  0.00  0.00    +0.000 C 
ATOM      9  O   UNL     1       7.915   5.640  13.739  0.00  0.00    +0.000 OA
BRANCH   8  11
ATOM     10  C   UNL     1       5.537   3.752  12.824  0.00  0.00    +0.000 C 
ATOM     11  O   UNL     1       6.720   3.684  13.626  0.00  0.00    +0.000 OA
ENDBRANCH   8  11
ENDBRANCH   2   8
ENDBRANCH   1   5
BRANCH   1  12
ATOM     12  C   UNL     1       2.611   5.310  18.975  0.00  0.00    +0.000 C 
BRANCH  12  13
ATOM     13  N   UNL     1       2.433   3.847  19.050  0.00  0.00    +0.000 NA
ATOM     14  C   UNL     1       1.067   3.494  19.476  0.00  0.00    +0.000 C 
ATOM     15  C   UNL     1       1.113   3.398  20.988  0.00  0.00    +0.000 C 
ATOM     16  C   UNL     1       2.492   2.838  21.275  0.00  0.00    +0.000 C 
ATOM     17  C   UNL     1       3.341   3.212  20.061  0.00  0.00    +0.000 C 
BRANCH  17  18
ATOM     18  C   UNL     1       4.019   1.962  19.462  0.00  0.00    +0.000 C 
ATOM     19  N   UNL     1       5.162   1.557  20.088  0.00  0.00    +0.000 N 
ATOM     20  O   UNL     1       3.574   1.348  18.499  0.00  0.00    +0.000 OA
ATOM     21  H   UNL     1       5.508   2.115  20.862  0.00  0.00    +0.000 HD
ATOM     22  H   UNL     1       5.673   0.759  19.744  0.00  0.00    +0.000 HD
ENDBRANCH  17  18
ENDBRANCH  12  13
ENDBRANCH   1  12
TORSDOF 6
ENDMDL
MODEL 3
REMARK VINA RESULT:      -7.3      0.988      1.544
REMARK  Name = 
REMARK  7 active torsions:
REMARK  status: ('A' for Active; 'I' for Inactive)
REMARK    1  A    between atoms: C_1  and  O_2
REMARK    2  A    between atoms: O_2  and  C_3
REMARK    3  A    between atoms: C_3  and  C_5
REMARK    4  A    between atoms: C_8  and  C_9
REMARK    5  A    between atoms: C_9  and  C_10
REMARK    6  A    between atoms: C_10  and  N_11
REMARK    7  A    between atoms: C_15  and  C_16
REMARK                            x       y       z     vdW  Elec       q    Type
REMARK                         _______ _______ _______ _____ _____    ______ ____
ROOT
ATOM      1  C   UNL     1       3.355   5.395  18.426  0.00  0.00    +0.000 C 
ENDROOT
BRANCH   1   5
ATOM      2  C   UNL     1       5.978   4.953  15.008  0.00  0.00    +0.000 A 
ATOM      3  C   UNL     1       5.545   3.826  15.719  0.00  0.00    +0.000 A 
ATOM      4  C   UNL     1       4.703   3.970  16.823  0.00  0.00    +0.000 A 
ATOM      5  C   UNL     1       4.289   5.240  17.246  0.00  0.00    +0.000 A 
ATOM      6  C   UNL     1       4.711   6.363  16.523  0.00  0.00    +0.000 A 
ATOM      7  C   UNL     1       5.550   6.223  15.412  0.00  0.00    +0.000 A 
BRANCH   2   8
ATOM      8  C   UNL     1       6.877   4.740  13.840  0.00  0.00    +0.000 C 
ATOM      9  O   UNL     1       6.647   3.933  12.954  0.00  0.00    +0.000 OA
BRANCH   8  11
ATOM     10  C   UNL     1       8.518   5.894  12.646  0.00  0.00    +0.000 C 
ATOM     11  O   UNL     1       7.962   5.549  13.917  0.00  0.00    +0.000 OA
ENDBRANCH   8  11
ENDBRANCH   2   8
ENDBRANCH   1   5
BRANCH   1  12
ATOM     12  C   UNL     1       2.099   4.502  18.330  0.00  0.00    +0.000 C 
BRANCH  12  13
ATOM     13  N   UNL     1       2.287   3.159  18.912  0.00  0.00    +0.000 NA
ATOM     14  C   UNL     1       1.031   2.640  19.482  0.00  0.00    +0.000 C 
ATOM     15  C   UNL     1       1.015   3.084  20.931  0.00  0.00    +0.000 C 
ATOM     16  C   UNL     1       2.472   3.026  21.346  0.00  0.00    +0.000 C 
ATOM     17  C   UNL     1       3.267   3.162  20.048  0.00  0.00    +0.000 C 
BRANCH  17  18
ATOM     18  C   UNL     1       4.267   1.998  19.895  0.00  0.00    +0.000 C 
ATOM     19  N   UNL     1       4.132   1.252  18.760  0.00  0.00    +0.000 N 
ATOM     20  O   UNL     1       5.142   1.745  20.717  0.00  0.00    +0.000 OA
ATOM     21  H   UNL     1       3.374   1.479  18.124  0.00  0.00    +0.000 HD
ATOM     22  H   UNL     1       4.736   0.461  18.598  0.00  0.00    +0.000 HD
ENDBRANCH  17  18
ENDBRANCH  12  13
ENDBRANCH   1  12
TORSDOF 6
ENDMDL
MODEL 4
REMARK VINA RESULT:      -7.2      4.591      6.586
REMARK  Name = 
REMARK  7 active torsions:
REMARK  status: ('A' for Active; 'I' for Inactive)
REMARK    1  A    between atoms: C_1  and  O_2
REMARK    2  A    between atoms: O_2  and  C_3
REMARK    3  A    between atoms: C_3  and  C_5
REMARK    4  A    between atoms: C_8  and  C_9
REMARK    5  A    between atoms: C_9  and  C_10
REMARK    6  A    between atoms: C_10  and  N_11
REMARK    7  A    between atoms: C_15  and  C_16
REMARK                            x       y       z     vdW  Elec       q    Type
REMARK                         _______ _______ _______ _____ _____    ______ ____
ROOT
ATOM      1  C   UNL     1       2.983   6.087  18.106  0.00  0.00    +0.000 C 
ENDROOT
BRANCH   1   5
ATOM      2  C   UNL     1       1.065   9.404  20.125  0.00  0.00    +0.000 A 
ATOM      3  C   UNL     1       1.374   9.488  18.761  0.00  0.00    +0.000 A 
ATOM      4  C   UNL     1       1.996   8.419  18.112  0.00  0.00    +0.000 A 
ATOM      5  C   UNL     1       2.333   7.255  18.814  0.00  0.00    +0.000 A 
ATOM      6  C   UNL     1       2.008   7.168  20.174  0.00  0.00    +0.000 A 
ATOM      7  C   UNL     1       1.379   8.234  20.826  0.00  0.00    +0.000 A 
BRANCH   2   8
ATOM      8  C   UNL     1       0.404  10.574  20.765  0.00  0.00    +0.000 C 
ATOM      9  O   UNL     1      -0.156  11.457  20.135  0.00  0.00    +0.000 OA
BRANCH   8  11
ATOM     10  C   UNL     1      -0.717  10.619  22.812  0.00  0.00    +0.000 C 
ATOM     11  O   UNL     1       0.526  10.515  22.113  0.00  0.00    +0.000 OA
ENDBRANCH   8  11
ENDBRANCH   2   8
ENDBRANCH   1   5
BRANCH   1  12
ATOM     12  C   UNL     1       2.024   4.896  17.890  0.00  0.00    +0.000 C 
BRANCH  12  13
ATOM     13  N   UNL     1       2.530   3.626  18.449  0.00  0.00    +0.000 NA
ATOM     14  C   UNL     1       1.424   2.723  18.816  0.00  0.00    +0.000 C 
ATOM     15  C   UNL     1       1.092   3.035  20.261  0.00  0.00    +0.000 C 
ATOM     16  C   UNL     1       2.435   3.373  20.878  0.00  0.00    +0.000 C 
ATOM     17  C   UNL     1       3.311   3.831  19.713  0.00  0.00    +0.000 C 
BRANCH  17  18
ATOM     18  C   UNL     1       4.625   3.023  19.667  0.00  0.00    +0.000 C 
ATOM     19  N   UNL     1       5.588   3.515  18.834  0.00  0.00    +0.000 N 
ATOM     20  O   UNL     1       4.820   2.012  20.332  0.00  0.00    +0.000 OA
ATOM     21  H   UNL     1       5.370   4.337  18.281  0.00  0.00    +0.000 HD
ATOM     22  H   UNL     1       6.468   3.031  18.735  0.00  0.00    +0.000 HD
ENDBRANCH  17  18
ENDBRANCH  12  13
ENDBRANCH   1  12
TORSDOF 6
ENDMDL
MODEL 5
REMARK VINA RESULT:      -7.1      1.299      1.649
REMARK  Name = 
REMARK  7 active torsions:
REMARK  status: ('A' for Active; 'I' for Inactive)
REMARK    1  A    between atoms: C_1  and  O_2
REMARK    2  A    between atoms: O_2  and  C_3
REMARK    3  A    between atoms: C_3  and  C_5
REMARK    4  A    between atoms: C_8  and  C_9
REMARK    5  A    between atoms: C_9  and  C_10
REMARK    6  A    between atoms: C_10  and  N_11
REMARK    7  A    between atoms: C_15  and  C_16
REMARK                            x       y       z     vdW  Elec       q    Type
REMARK                         _______ _______ _______ _____ _____    ______ ____
ROOT
ATOM      1  C   UNL     1       5.003   5.129  19.361  0.00  0.00    +0.000 C 
ENDROOT
BRANCH   1   5
ATOM      2  C   UNL     1       6.434   4.793  15.287  0.00  0.00    +0.000 A 
ATOM      3  C   UNL     1       7.309   4.598  16.363  0.00  0.00    +0.000 A 
ATOM      4  C   UNL     1       6.848   4.711  17.676  0.00  0.00    +0.000 A 
ATOM      5  C   UNL     1       5.510   5.033  17.939  0.00  0.00    +0.000 A 
ATOM      6  C   UNL     1       4.633   5.210  16.860  0.00  0.00    +0.000 A 
ATOM      7  C   UNL     1       5.090   5.092  15.543  0.00  0.00    +0.000 A 
BRANCH   2   8
ATOM      8  C   UNL     1       6.980   4.662  13.908  0.00  0.00    +0.000 C 
ATOM      9  O   UNL     1       7.658   5.523  13.370  0.00  0.00    +0.000 OA
BRANCH   8  11
ATOM     10  C   UNL     1       5.821   3.618  12.172  0.00  0.00    +0.000 C 
ATOM     11  O   UNL     1       6.611   3.481  13.356  0.00  0.00    +0.000 OA
ENDBRANCH   8  11
ENDBRANCH   2   8
ENDBRANCH   1   5
BRANCH   1  12
ATOM     12  C   UNL     1       3.503   5.485  19.450  0.00  0.00    +0.000 C 
BRANCH  12  13
ATOM     13  N   UNL     1       2.612   4.322  19.263  0.00  0.00    +0.000 NA
ATOM     14  C   UNL     1       1.437   4.398  20.150  0.00  0.00    +0.000 C 
ATOM     15  C   UNL     1       1.830   3.680  21.425  0.00  0.00    +0.000 C 
ATOM     16  C   UNL     1       2.729   2.557  20.948  0.00  0.00    +0.000 C 
ATOM     17  C   UNL     1       3.286   3.027  19.604  0.00  0.00    +0.000 C 
BRANCH  17  18
ATOM     18  C   UNL     1       3.018   1.978  18.506  0.00  0.00    +0.000 C 
ATOM     19  N   UNL     1       3.837   0.886  18.523  0.00  0.00    +0.000 N 
ATOM     20  O   UNL     1       2.128   2.086  17.669  0.00  0.00    +0.000 OA
ATOM     21  H   UNL     1       4.579   0.855  19.215  0.00  0.00    +0.000 HD
ATOM     22  H   UNL     1       3.737   0.166  17.825  0.00  0.00    +0.000 HD
ENDBRANCH  17  18
ENDBRANCH  12  13
ENDBRANCH   1  12
TORSDOF 6
ENDMDL
MODEL 6
REMARK VINA RESULT:      -7.1      4.503      6.266
REMARK  Name = 
REMARK  7 active torsions:
REMARK  status: ('A' for Active; 'I' for Inactive)
REMARK    1  A    between atoms: C_1  and  O_2
REMARK    2  A    between atoms: O_2  and  C_3
REMARK    3  A    between atoms: C_3  and  C_5
REMARK    4  A    between atoms: C_8  and  C_9
REMARK    5  A    between atoms: C_9  and  C_10
REMARK    6  A    between atoms: C_10  and  N_11
REMARK    7  A    between atoms: C_15  and  C_16
REMARK                            x       y       z     vdW  Elec       q    Type
REMARK                         _______ _______ _______ _____ _____    ______ ____
ROOT
ATOM      1  C   UNL     1       2.903   5.602  18.175  0.00  0.00    +0.000 C 
ENDROOT
BRANCH   1   5
ATOM      2  C   UNL     1       1.336   9.306  19.785  0.00  0.00    +0.000 A 
ATOM      3  C   UNL     1       1.507   8.189  20.614  0.00  0.00    +0.000 A 
ATOM      4  C   UNL     1       2.008   6.994  20.093  0.00  0.00    +0.000 A 
ATOM      5  C   UNL     1       2.335   6.888  18.735  0.00  0.00    +0.000 A 
ATOM      6  C   UNL     1       2.178   8.012  17.912  0.00  0.00    +0.000 A 
ATOM      7  C   UNL     1       1.682   9.212  18.432  0.00  0.00    +0.000 A 
BRANCH   2   8
ATOM      8  C   UNL     1       0.796  10.552  20.394  0.00  0.00    +0.000 C 
ATOM      9  O   UNL     1       0.948  10.847  21.568  0.00  0.00    +0.000 OA
BRANCH   8  11
ATOM     10  C   UNL     1      -1.301  11.161  19.569  0.00  0.00    +0.000 C 
ATOM     11  O   UNL     1       0.120  11.281  19.473  0.00  0.00    +0.000 OA
ENDBRANCH   8  11
ENDBRANCH   2   8
ENDBRANCH   1   5
BRANCH   1  12
ATOM     12  C   UNL     1       1.817   4.574  17.792  0.00  0.00    +0.000 C 
BRANCH  12  13
ATOM     13  N   UNL     1       1.993   3.262  18.446  0.00  0.00    +0.000 NA
ATOM     14  C   UNL     1       0.778   2.858  19.176  0.00  0.00    +0.000 C 
ATOM     15  C   UNL     1       0.940   3.395  20.584  0.00  0.00    +0.000 C 
ATOM     16  C   UNL     1       2.427   3.276  20.851  0.00  0.00    +0.000 C 
ATOM     17  C   UNL     1       3.087   3.280  19.472  0.00  0.00    +0.000 C 
BRANCH  17  18
ATOM     18  C   UNL     1       4.001   2.049  19.302  0.00  0.00    +0.000 C 
ATOM     19  N   UNL     1       5.117   2.033  20.088  0.00  0.00    +0.000 N 
ATOM     20  O   UNL     1       3.760   1.129  18.529  0.00  0.00    +0.000 OA
ATOM     21  H   UNL     1       5.291   2.831  20.690  0.00  0.00    +0.000 HD
ATOM     22  H   UNL     1       5.774   1.271  20.020  0.00  0.00    +0.000 HD
ENDBRANCH  17  18
ENDBRANCH  12  13
ENDBRANCH   1  12
TORSDOF 6
ENDMDL
MODEL 7
REMARK VINA RESULT:      -7.0      3.060      6.480
REMARK  Name = 
REMARK  7 active torsions:
REMARK  status: ('A' for Active; 'I' for Inactive)
REMARK    1  A    between atoms: C_1  and  O_2
REMARK    2  A    between atoms: O_2  and  C_3
REMARK    3  A    between atoms: C_3  and  C_5
REMARK    4  A    between atoms: C_8  and  C_9
REMARK    5  A    between atoms: C_9  and  C_10
REMARK    6  A    between atoms: C_10  and  N_11
REMARK    7  A    between atoms: C_15  and  C_16
REMARK                            x       y       z     vdW  Elec       q    Type
REMARK                         _______ _______ _______ _____ _____    ______ ____
ROOT
ATOM      1  C   UNL     1       4.172   7.144  17.392  0.00  0.00    +0.000 C 
ENDROOT
BRANCH   1   5
ATOM      2  C   UNL     1       1.737   4.000  19.109  0.00  0.00    +0.000 A 
ATOM      3  C   UNL     1       1.772   5.270  19.697  0.00  0.00    +0.000 A 
ATOM      4  C   UNL     1       2.560   6.282  19.146  0.00  0.00    +0.000 A 
ATOM      5  C   UNL     1       3.338   6.041  18.006  0.00  0.00    +0.000 A 
ATOM      6  C   UNL     1       3.288   4.773  17.410  0.00  0.00    +0.000 A 
ATOM      7  C   UNL     1       2.495   3.759  17.956  0.00  0.00    +0.000 A 
BRANCH   2   8
ATOM      8  C   UNL     1       0.881   2.959  19.741  0.00  0.00    +0.000 C 
ATOM      9  O   UNL     1       0.184   2.185  19.104  0.00  0.00    +0.000 OA
BRANCH   8  11
ATOM     10  C   UNL     1       2.242   2.557  21.594  0.00  0.00    +0.000 C 
ATOM     11  O   UNL     1       0.982   3.010  21.091  0.00  0.00    +0.000 OA
ENDBRANCH   8  11
ENDBRANCH   2   8
ENDBRANCH   1   5
BRANCH   1  12
ATOM     12  C   UNL     1       4.969   6.686  16.151  0.00  0.00    +0.000 C 
BRANCH  12  13
ATOM     13  N   UNL     1       6.412   6.513  16.412  0.00  0.00    +0.000 NA
ATOM     14  C   UNL     1       7.014   5.548  15.473  0.00  0.00    +0.000 C 
ATOM     15  C   UNL     1       6.901   4.192  16.139  0.00  0.00    +0.000 C 
ATOM     16  C   UNL     1       7.084   4.493  17.614  0.00  0.00    +0.000 C 
ATOM     17  C   UNL     1       6.682   5.959  17.779  0.00  0.00    +0.000 C 
BRANCH  17  18
ATOM     18  C   UNL     1       7.807   6.759  18.468  0.00  0.00    +0.000 C 
ATOM     19  N   UNL     1       8.406   6.138  19.526  0.00  0.00    +0.000 N 
ATOM     20  O   UNL     1       8.167   7.872  18.102  0.00  0.00    +0.000 OA
ATOM     21  H   UNL     1       8.054   5.230  19.811  0.00  0.00    +0.000 HD
ATOM     22  H   UNL     1       9.137   6.605  20.040  0.00  0.00    +0.000 HD
ENDBRANCH  17  18
ENDBRANCH  12  13
ENDBRANCH   1  12
TORSDOF 6
ENDMDL
MODEL 8
REMARK VINA RESULT:      -7.0      3.196      6.612
REMARK  Name = 
REMARK  7 active torsions:
REMARK  status: ('A' for Active; 'I' for Inactive)
REMARK    1  A    between atoms: C_1  and  O_2
REMARK    2  A    between atoms: O_2  and  C_3
REMARK    3  A    between atoms: C_3  and  C_5
REMARK    4  A    between atoms: C_8  and  C_9
REMARK    5  A    between atoms: C_9  and  C_10
REMARK    6  A    between atoms: C_10  and  N_11
REMARK    7  A    between atoms: C_15  and  C_16
REMARK                            x       y       z     vdW  Elec       q    Type
REMARK                         _______ _______ _______ _____ _____    ______ ____
ROOT
ATOM      1  C   UNL     1       4.150   7.107  17.272  0.00  0.00    +0.000 C 
ENDROOT
BRANCH   1   5
ATOM      2  C   UNL     1       1.722   4.056  19.156  0.00  0.00    +0.000 A 
ATOM      3  C   UNL     1       2.434   3.771  17.984  0.00  0.00    +0.000 A 
ATOM      4  C   UNL     1       3.213   4.756  17.375  0.00  0.00    +0.000 A 
ATOM      5  C   UNL     1       3.285   6.047  17.916  0.00  0.00    +0.000 A 
ATOM      6  C   UNL     1       2.585   6.323  19.098  0.00  0.00    +0.000 A 
ATOM      7  C   UNL     1       1.808   5.337  19.714  0.00  0.00    +0.000 A 
BRANCH   2   8
ATOM      8  C   UNL     1       0.906   2.967  19.761  0.00  0.00    +0.000 C 
ATOM      9  O   UNL     1       0.269   2.161  19.103  0.00  0.00    +0.000 OA
BRANCH   8  11
ATOM     10  C   UNL     1       2.139   2.405  21.661  0.00  0.00    +0.000 C 
ATOM     11  O   UNL     1       0.969   3.016  21.114  0.00  0.00    +0.000 OA
ENDBRANCH   8  11
ENDBRANCH   2   8
ENDBRANCH   1   5
BRANCH   1  12
ATOM     12  C   UNL     1       4.940   6.589  16.051  0.00  0.00    +0.000 C 
BRANCH  12  13
ATOM     13  N   UNL     1       6.400   6.552  16.269  0.00  0.00    +0.000 NA
ATOM     14  C   UNL     1       7.010   5.377  15.621  0.00  0.00    +0.000 C 
ATOM     15  C   UNL     1       6.995   4.273  16.659  0.00  0.00    +0.000 C 
ATOM     16  C   UNL     1       7.225   5.002  17.968  0.00  0.00    +0.000 C 
ATOM     17  C   UNL     1       6.757   6.436  17.721  0.00  0.00    +0.000 C 
BRANCH  17  18
ATOM     18  C   UNL     1       7.868   7.442  18.081  0.00  0.00    +0.000 C 
ATOM     19  N   UNL     1       7.905   8.575  17.320  0.00  0.00    +0.000 N 
ATOM     20  O   UNL     1       8.669   7.268  18.993  0.00  0.00    +0.000 OA
ATOM     21  H   UNL     1       7.242   8.661  16.557  0.00  0.00    +0.000 HD
ATOM     22  H   UNL     1       8.616   9.272  17.482  0.00  0.00    +0.000 HD
ENDBRANCH  17  18
ENDBRANCH  12  13
ENDBRANCH   1  12
TORSDOF 6
ENDMDL
MODEL 9
REMARK VINA RESULT:      -7.0      4.878      6.929
REMARK  Name = 
REMARK  7 active torsions:
REMARK  status: ('A' for Active; 'I' for Inactive)
REMARK    1  A    between atoms: C_1  and  O_2
REMARK    2  A    between atoms: O_2  and  C_3
REMARK    3  A    between atoms: C_3  and  C_5
REMARK    4  A    between atoms: C_8  and  C_9
REMARK    5  A    between atoms: C_9  and  C_10
REMARK    6  A    between atoms: C_10  and  N_11
REMARK    7  A    between atoms: C_15  and  C_16
REMARK                            x       y       z     vdW  Elec       q    Type
REMARK                         _______ _______ _______ _____ _____    ______ ____
ROOT
ATOM      1  C   UNL     1       3.050   6.715  18.161  0.00  0.00    +0.000 C 
ENDROOT
BRANCH   1   5
ATOM      2  C   UNL     1       0.707   9.801  20.096  0.00  0.00    +0.000 A 
ATOM      3  C   UNL     1       1.124   8.672  20.815  0.00  0.00    +0.000 A 
ATOM      4  C   UNL     1       1.876   7.676  20.189  0.00  0.00    +0.000 A 
ATOM      5  C   UNL     1       2.213   7.781  18.833  0.00  0.00    +0.000 A 
ATOM      6  C   UNL     1       1.809   8.918  18.122  0.00  0.00    +0.000 A 
ATOM      7  C   UNL     1       1.061   9.921  18.747  0.00  0.00    +0.000 A 
BRANCH   2   8
ATOM      8  C   UNL     1      -0.094  10.830  20.814  0.00  0.00    +0.000 C 
ATOM      9  O   UNL     1      -0.903  11.558  20.261  0.00  0.00    +0.000 OA
BRANCH   8  11
ATOM     10  C   UNL     1      -0.927  10.796  22.994  0.00  0.00    +0.000 C 
ATOM     11  O   UNL     1       0.214  10.842  22.134  0.00  0.00    +0.000 OA
ENDBRANCH   8  11
ENDBRANCH   2   8
ENDBRANCH   1   5
BRANCH   1  12
ATOM     12  C   UNL     1       3.590   5.654  19.145  0.00  0.00    +0.000 C 
BRANCH  12  13
ATOM     13  N   UNL     1       3.119   4.286  18.851  0.00  0.00    +0.000 NA
ATOM     14  C   UNL     1       1.659   4.253  18.648  0.00  0.00    +0.000 C 
ATOM     15  C   UNL     1       1.054   3.989  20.012  0.00  0.00    +0.000 C 
ATOM     16  C   UNL     1       2.054   3.066  20.681  0.00  0.00    +0.000 C 
ATOM     17  C   UNL     1       3.385   3.336  19.980  0.00  0.00    +0.000 C 
BRANCH  17  18
ATOM     18  C   UNL     1       3.996   2.025  19.444  0.00  0.00    +0.000 C 
ATOM     19  N   UNL     1       5.138   1.612  20.067  0.00  0.00    +0.000 N 
ATOM     20  O   UNL     1       3.502   1.372  18.531  0.00  0.00    +0.000 OA
ATOM     21  H   UNL     1       5.527   2.200  20.796  0.00  0.00    +0.000 HD
ATOM     22  H   UNL     1       5.608   0.773  19.760  0.00  0.00    +0.000 HD
ENDBRANCH  17  18
ENDBRANCH  12  13
ENDBRANCH   1  12
TORSDOF 6
ENDMDL
