MODEL 1
REMARK VINA RESULT:      -7.6      0.000      0.000
REMARK  Name = 
REMARK  8 active torsions:
REMARK  status: ('A' for Active; 'I' for Inactive)
REMARK    1  A    between atoms: C_1  and  O_2
REMARK    2  A    between atoms: O_2  and  C_3
REMARK    3  A    between atoms: C_6  and  C_7
REMARK    4  A    between atoms: N_9  and  C_10
REMARK    5  A    between atoms: C_10  and  N_11
REMARK    6  A    between atoms: N_14  and  C_15
REMARK    7  A    between atoms: C_24  and  O_25
REMARK    8  A    between atoms: O_25  and  C_26
REMARK                            x       y       z     vdW  Elec       q    Type
REMARK                         _______ _______ _______ _____ _____    ______ ____
ROOT
ATOM      1  C   UNL     1       8.213   8.212  18.165  0.00  0.00    +0.000 C 
ATOM      2  O   UNL     1       8.529   7.358  18.987  0.00  0.00    +0.000 OA
ATOM      3  N   UNL     1       7.526   7.929  17.010  0.00  0.00    +0.000 N 
ATOM      4  H   UNL     1       7.081   8.655  16.469  0.00  0.00    +0.000 HD
ENDROOT
BRANCH   1   8
ATOM      5  C   UNL     1       9.514  12.257  18.704  0.00  0.00    +0.000 A 
ATOM      6  C   UNL     1      10.016  11.218  19.505  0.00  0.00    +0.000 A 
ATOM      7  C   UNL     1       9.573   9.908  19.332  0.00  0.00    +0.000 A 
ATOM      8  C   UNL     1       8.580   9.628  18.394  0.00  0.00    +0.000 A 
ATOM      9  C   UNL     1       8.022  10.670  17.648  0.00  0.00    +0.000 A 
ATOM     10  C   UNL     1       8.471  11.990  17.802  0.00  0.00    +0.000 A 
BRANCH   5  12
ATOM     11  C   UNL     1      10.978  13.887  17.820  0.00  0.00    +0.000 C 
ATOM     12  O   UNL     1      10.018  13.524  18.810  0.00  0.00    +0.000 OA
ENDBRANCH   5  12
BRANCH  10  13
ATOM     13  O   UNL     1       7.810  12.856  16.971  0.00  0.00    +0.000 OA
ATOM     14  C   UNL     1       6.995  13.869  17.539  0.00  0.00    +0.000 C 
ENDBRANCH  10  13
ENDBRANCH   1   8
BRANCH   3  15
ATOM     15  C   UNL     1       7.168   6.586  16.690  0.00  0.00    +0.000 C 
BRANCH  15  16
ATOM     16  N   UNL     1       5.760   6.600  16.308  0.00  0.00    +0.000 NA
ATOM     17  C   UNL     1       5.315   5.301  15.736  0.00  0.00    +0.000 C 
ATOM     18  C   UNL     1       5.316   4.096  16.703  0.00  0.00    +0.000 C 
ATOM     19  N   UNL     1       4.684   4.410  17.997  0.00  0.00    +0.000 N 
ATOM     20  C   UNL     1       5.004   5.722  18.586  0.00  0.00    +0.000 C 
ATOM     21  C   UNL     1       4.932   6.841  17.518  0.00  0.00    +0.000 C 
BRANCH  19  22
ATOM     22  C   UNL     1       3.489   3.831  18.396  0.00  0.00    +0.000 A 
ATOM     23  C   UNL     1       3.450   3.079  19.583  0.00  0.00    +0.000 A 
ATOM     24  C   UNL     1       2.268   2.503  20.052  0.00  0.00    +0.000 A 
ATOM     25  C   UNL     1       1.090   2.669  19.335  0.00  0.00    +0.000 A 
ATOM     26  C   UNL     1       1.104   3.395  18.148  0.00  0.00    +0.000 A 
ATOM     27  C   UNL     1       2.294   3.964  17.681  0.00  0.00    +0.000 A 
ENDBRANCH  19  22
ENDBRANCH  15  16
ENDBRANCH   3  15
TORSDOF 6
ENDMDL
MODEL 2
REMARK VINA RESULT:      -7.2      1.151      1.444
REMARK  Name = 
REMARK  8 active torsions:
REMARK  status: ('A' for Active; 'I' for Inactive)
REMARK    1  A    between atoms: C_1  and  O_2
REMARK    2  A    between atoms: O_2  and  C_3
REMARK    3  A    between atoms: C_6  and  C_7
REMARK    4  A    between atoms: N_9  and  C_10
REMARK    5  A    between atoms: C_10  and  N_11
REMARK    6  A    between atoms: N_14  and  C_15
REMARK    7  A    between atoms: C_24  and  O_25
REMARK    8  A    between atoms: O_25  and  C_26
REMARK                            x       y       z     vdW  Elec       q    Type
REMARK                         _______ _______ _______ _____ _____    ______ ____
ROOT
ATOM      1  C   UNL     1       8.422   8.425  18.379  0.00  0.00    +0.000 C 
ATOM      2  O   UNL     1       8.699   7.461  19.084  0.00  0.00    +0.000 OA
ATOM      3  N   UNL     1       7.721   8.321  17.202  0.00  0.00    +0.000 N 
ATOM      4  H   UNL     1       7.308   9.129  16.760  0.00  0.00    +0.000 HD
ENDROOT
BRANCH   1   8
ATOM      5  C   UNL     1       9.918  12.245  19.609  0.00  0.00    +0.000 A 
ATOM      6  C   UNL     1       9.547  11.272  20.550  0.00  0.00    +0.000 A 
ATOM      7  C   UNL     1       9.045  10.038  20.139  0.00  0.00    +0.000 A 
ATOM      8  C   UNL     1       8.855   9.782  18.782  0.00  0.00    +0.000 A 
ATOM      9  C   UNL     1       9.150  10.776  17.844  0.00  0.00    +0.000 A 
ATOM     10  C   UNL     1       9.671  12.016  18.245  0.00  0.00    +0.000 A 
BRANCH   5  12
ATOM     11  C   UNL     1       9.929  14.016  21.172  0.00  0.00    +0.000 C 
ATOM     12  O   UNL     1      10.498  13.417  20.010  0.00  0.00    +0.000 OA
ENDBRANCH   5  12
BRANCH  10  13
ATOM     13  O   UNL     1       9.907  12.842  17.177  0.00  0.00    +0.000 OA
ATOM     14  C   UNL     1      11.245  13.073  16.768  0.00  0.00    +0.000 C 
ENDBRANCH  10  13
ENDBRANCH   1   8
BRANCH   3  15
ATOM     15  C   UNL     1       7.300   7.047  16.718  0.00  0.00    +0.000 C 
BRANCH  15  16
ATOM     16  N   UNL     1       5.872   7.148  16.439  0.00  0.00    +0.000 NA
ATOM     17  C   UNL     1       5.388   6.051  15.559  0.00  0.00    +0.000 C 
ATOM     18  C   UNL     1       5.442   4.627  16.156  0.00  0.00    +0.000 C 
ATOM     19  N   UNL     1       4.891   4.565  17.521  0.00  0.00    +0.000 N 
ATOM     20  C   UNL     1       5.251   5.668  18.428  0.00  0.00    +0.000 C 
ATOM     21  C   UNL     1       5.119   7.037  17.715  0.00  0.00    +0.000 C 
BRANCH  19  22
ATOM     22  C   UNL     1       3.719   3.884  17.815  0.00  0.00    +0.000 A 
ATOM     23  C   UNL     1       3.780   2.518  18.144  0.00  0.00    +0.000 A 
ATOM     24  C   UNL     1       2.640   1.790  18.484  0.00  0.00    +0.000 A 
ATOM     25  C   UNL     1       1.401   2.419  18.500  0.00  0.00    +0.000 A 
ATOM     26  C   UNL     1       1.310   3.767  18.162  0.00  0.00    +0.000 A 
ATOM     27  C   UNL     1       2.458   4.488  17.817  0.00  0.00    +0.000 A 
ENDBRANCH  19  22
ENDBRANCH  15  16
ENDBRANCH   3  15
TORSDOF 6
ENDMDL
MODEL 3
REMARK VINA RESULT:      -7.1      3.809      6.653
REMARK  Name = 
REMARK  8 active torsions:
REMARK  status: ('A' for Active; 'I' for Inactive)
REMARK    1  A    between atoms: C_1  and  O_2
REMARK    2  A    between atoms: O_2  and  C_3
REMARK    3  A    between atoms: C_6  and  C_7
REMARK    4  A    between atoms: N_9  and  C_10
REMARK    5  A    between atoms: C_10  and  N_11
REMARK    6  A    between atoms: N_14  and  C_15
REMARK    7  A    between atoms: C_24  and  O_25
REMARK    8  A    between atoms: O_25  and  C_26
REMARK                            x       y       z     vdW  Elec       q    Type
REMARK                         _______ _______ _______ _____ _____    ______ ____
ROOT
ATOM      1  C   UNL     1       4.746   3.616  18.366  0.00  0.00    +0.000 C 
ATOM      2  O   UNL     1       5.256   3.504  19.476  0.00  0.00    +0.000 OA
ATOM      3  N   UNL     1       3.432   3.311  18.107  0.00  0.00    +0.000 N 
ATOM      4  H   UNL     1       2.975   3.620  17.262  0.00  0.00    +0.000 HD
ENDROOT
BRANCH   1   8
ATOM      5  C   UNL     1       6.867   5.083  14.946  0.00  0.00    +0.000 A 
ATOM      6  C   UNL     1       6.149   3.877  14.895  0.00  0.00    +0.000 A 
ATOM      7  C   UNL     1       5.477   3.400  16.020  0.00  0.00    +0.000 A 
ATOM      8  C   UNL     1       5.559   4.095  17.225  0.00  0.00    +0.000 A 
ATOM      9  C   UNL     1       6.335   5.255  17.302  0.00  0.00    +0.000 A 
ATOM     10  C   UNL     1       7.004   5.753  16.173  0.00  0.00    +0.000 A 
BRANCH   5  12
ATOM     11  C   UNL     1       7.541   4.700  12.715  0.00  0.00    +0.000 C 
ATOM     12  O   UNL     1       7.446   5.597  13.819  0.00  0.00    +0.000 OA
ENDBRANCH   5  12
BRANCH  10  13
ATOM     13  O   UNL     1       7.693   6.904  16.452  0.00  0.00    +0.000 OA
ATOM     14  C   UNL     1       7.705   7.393  17.784  0.00  0.00    +0.000 C 
ENDBRANCH  10  13
ENDBRANCH   1   8
BRANCH   3  15
ATOM     15  C   UNL     1       2.588   2.804  19.138  0.00  0.00    +0.000 C 
BRANCH  15  16
ATOM     16  N   UNL     1       1.331   3.541  19.059  0.00  0.00    +0.000 NA
ATOM     17  C   UNL     1       0.990   4.219  20.338  0.00  0.00    +0.000 C 
ATOM     18  C   UNL     1       1.938   5.358  20.777  0.00  0.00    +0.000 C 
ATOM     19  N   UNL     1       2.238   6.296  19.681  0.00  0.00    +0.000 N 
ATOM     20  C   UNL     1       2.497   5.704  18.358  0.00  0.00    +0.000 C 
ATOM     21  C   UNL     1       1.456   4.605  18.030  0.00  0.00    +0.000 C 
BRANCH  19  22
ATOM     22  C   UNL     1       1.796   7.611  19.692  0.00  0.00    +0.000 A 
ATOM     23  C   UNL     1       1.236   8.140  20.867  0.00  0.00    +0.000 A 
ATOM     24  C   UNL     1       0.807   9.466  20.948  0.00  0.00    +0.000 A 
ATOM     25  C   UNL     1       0.930  10.297  19.841  0.00  0.00    +0.000 A 
ATOM     26  C   UNL     1       1.465   9.793  18.659  0.00  0.00    +0.000 A 
ATOM     27  C   UNL     1       1.887   8.461  18.585  0.00  0.00    +0.000 A 
ENDBRANCH  19  22
ENDBRANCH  15  16
ENDBRANCH   3  15
TORSDOF 6
ENDMDL
MODEL 4
REMARK VINA RESULT:      -7.0      6.614      9.209
REMARK  Name = 
REMARK  8 active torsions:
REMARK  status: ('A' for Active; 'I' for Inactive)
REMARK    1  A    between atoms: C_1  and  O_2
REMARK    2  A    between atoms: O_2  and  C_3
REMARK    3  A    between atoms: C_6  and  C_7
REMARK    4  A    between atoms: N_9  and  C_10
REMARK    5  A    between atoms: C_10  and  N_11
REMARK    6  A    between atoms: N_14  and  C_15
REMARK    7  A    between atoms: C_24  and  O_25
REMARK    8  A    between atoms: O_25  and  C_26
REMARK                            x       y       z     vdW  Elec       q    Type
REMARK                         _______ _______ _______ _____ _____    ______ ____
ROOT
ATOM      1  C   UNL     1       2.043   5.787  20.136  0.00  0.00    +0.000 C 
ATOM      2  O   UNL     1       1.221   5.051  20.672  0.00  0.00    +0.000 OA
ATOM      3  N   UNL     1       2.049   7.151  20.295  0.00  0.00    +0.000 N 
ATOM      4  H   UNL     1       2.851   7.709  20.042  0.00  0.00    +0.000 HD
ENDROOT
BRANCH   1   8
ATOM      5  C   UNL     1       5.039   4.334  17.441  0.00  0.00    +0.000 A 
ATOM      6  C   UNL     1       3.672   4.217  17.142  0.00  0.00    +0.000 A 
ATOM      7  C   UNL     1       2.705   4.678  18.034  0.00  0.00    +0.000 A 
ATOM      8  C   UNL     1       3.091   5.211  19.263  0.00  0.00    +0.000 A 
ATOM      9  C   UNL     1       4.447   5.259  19.599  0.00  0.00    +0.000 A 
ATOM     10  C   UNL     1       5.430   4.813  18.703  0.00  0.00    +0.000 A 
BRANCH   5  12
ATOM     11  C   UNL     1       5.702   4.322  15.174  0.00  0.00    +0.000 C 
ATOM     12  O   UNL     1       5.987   3.969  16.526  0.00  0.00    +0.000 OA
ENDBRANCH   5  12
BRANCH  10  13
ATOM     13  O   UNL     1       6.693   4.959  19.214  0.00  0.00    +0.000 OA
ATOM     14  C   UNL     1       7.500   6.033  18.757  0.00  0.00    +0.000 C 
ENDBRANCH  10  13
ENDBRANCH   1   8
BRANCH   3  15
ATOM     15  C   UNL     1       1.051   7.793  21.087  0.00  0.00    +0.000 C 
BRANCH  15  16
ATOM     16  N   UNL     1       1.569   9.111  21.437  0.00  0.00    +0.000 NA
ATOM     17  C   UNL     1       1.021  10.185  20.565  0.00  0.00    +0.000 C 
ATOM     18  C   UNL     1      -0.495  10.454  20.689  0.00  0.00    +0.000 C 
ATOM     19  N   UNL     1      -0.937  10.558  22.091  0.00  0.00    +0.000 N 
ATOM     20  C   UNL     1      -0.366   9.585  23.037  0.00  0.00    +0.000 C 
ATOM     21  C   UNL     1       1.161   9.439  22.827  0.00  0.00    +0.000 C 
BRANCH  19  22
ATOM     22  C   UNL     1      -1.396  11.749  22.634  0.00  0.00    +0.000 A 
ATOM     23  C   UNL     1      -0.630  12.918  22.479  0.00  0.00    +0.000 A 
ATOM     24  C   UNL     1      -1.057  14.151  22.973  0.00  0.00    +0.000 A 
ATOM     25  C   UNL     1      -2.273  14.240  23.642  0.00  0.00    +0.000 A 
ATOM     26  C   UNL     1      -3.043  13.095  23.823  0.00  0.00    +0.000 A 
ATOM     27  C   UNL     1      -2.604  11.861  23.330  0.00  0.00    +0.000 A 
ENDBRANCH  19  22
ENDBRANCH  15  16
ENDBRANCH   3  15
TORSDOF 6
ENDMDL
MODEL 5
REMARK VINA RESULT:      -7.0      7.344      9.869
REMARK  Name = 
REMARK  8 active torsions:
REMARK  status: ('A' for Active; 'I' for Inactive)
REMARK    1  A    between atoms: C_1  and  O_2
REMARK    2  A    between atoms: O_2  and  C_3
REMARK    3  A    between atoms: C_6  and  C_7
REMARK    4  A    between atoms: N_9  and  C_10
REMARK    5  A    between atoms: C_10  and  N_11
REMARK    6  A    between atoms: N_14  and  C_15
REMARK    7  A    between atoms: C_24  and  O_25
REMARK    8  A    between atoms: O_25  and  C_26
REMARK                            x       y       z     vdW  Elec       q    Type
REMARK                         _______ _______ _______ _____ _____    ______ ____
ROOT
ATOM      1  C   UNL     1       2.112   8.580  18.341  0.00  0.00    +0.000 C 
ATOM      2  O   UNL     1       2.181   9.106  17.236  0.00  0.00    +0.000 OA
ATOM      3  N   UNL     1       1.496   9.169  19.419  0.00  0.00    +0.000 N 
ATOM      4  H   UNL     1       1.250   8.638  20.241  0.00  0.00    +0.000 HD
ENDROOT
BRANCH   1   8
ATOM      5  C   UNL     1       4.093   4.853  19.070  0.00  0.00    +0.000 A 
ATOM      6  C   UNL     1       4.402   5.634  17.944  0.00  0.00    +0.000 A 
ATOM      7  C   UNL     1       3.739   6.837  17.708  0.00  0.00    +0.000 A 
ATOM      8  C   UNL     1       2.718   7.248  18.564  0.00  0.00    +0.000 A 
ATOM      9  C   UNL     1       2.353   6.437  19.642  0.00  0.00    +0.000 A 
ATOM     10  C   UNL     1       3.024   5.231  19.899  0.00  0.00    +0.000 A 
BRANCH   5  12
ATOM     11  C   UNL     1       4.195   2.495  18.960  0.00  0.00    +0.000 C 
ATOM     12  O   UNL     1       4.808   3.722  19.351  0.00  0.00    +0.000 OA
ENDBRANCH   5  12
BRANCH  10  13
ATOM     13  O   UNL     1       2.528   4.596  21.007  0.00  0.00    +0.000 OA
ATOM     14  C   UNL     1       1.348   3.818  20.885  0.00  0.00    +0.000 C 
ENDBRANCH  10  13
ENDBRANCH   1   8
BRANCH   3  15
ATOM     15  C   UNL     1       0.921  10.469  19.304  0.00  0.00    +0.000 C 
BRANCH  15  16
ATOM     16  N   UNL     1      -0.485  10.347  19.674  0.00  0.00    +0.000 NA
ATOM     17  C   UNL     1      -0.664   9.853  21.066  0.00  0.00    +0.000 C 
ATOM     18  C   UNL     1      -0.173  10.793  22.190  0.00  0.00    +0.000 C 
ATOM     19  N   UNL     1      -0.628  12.182  22.002  0.00  0.00    +0.000 N 
ATOM     20  C   UNL     1      -0.568  12.716  20.630  0.00  0.00    +0.000 C 
ATOM     21  C   UNL     1      -1.120  11.689  19.612  0.00  0.00    +0.000 C 
BRANCH  19  22
ATOM     22  C   UNL     1      -1.537  12.784  22.858  0.00  0.00    +0.000 A 
ATOM     23  C   UNL     1      -2.739  12.122  23.163  0.00  0.00    +0.000 A 
ATOM     24  C   UNL     1      -3.676  12.663  24.045  0.00  0.00    +0.000 A 
ATOM     25  C   UNL     1      -3.427  13.891  24.645  0.00  0.00    +0.000 A 
ATOM     26  C   UNL     1      -2.252  14.576  24.347  0.00  0.00    +0.000 A 
ATOM     27  C   UNL     1      -1.321  14.029  23.456  0.00  0.00    +0.000 A 
ENDBRANCH  19  22
ENDBRANCH  15  16
ENDBRANCH   3  15
TORSDOF 6
ENDMDL
MODEL 6
REMARK VINA RESULT:      -6.9      6.924      9.703
REMARK  Name = 
REMARK  8 active torsions:
REMARK  status: ('A' for Active; 'I' for Inactive)
REMARK    1  A    between atoms: C_1  and  O_2
REMARK    2  A    between atoms: O_2  and  C_3
REMARK    3  A    between atoms: C_6  and  C_7
REMARK    4  A    between atoms: N_9  and  C_10
REMARK    5  A    between atoms: C_10  and  N_11
REMARK    6  A    between atoms: N_14  and  C_15
REMARK    7  A    between atoms: C_24  and  O_25
REMARK    8  A    between atoms: O_25  and  C_26
REMARK                            x       y       z     vdW  Elec       q    Type
REMARK                         _______ _______ _______ _____ _____    ______ ____
ROOT
ATOM      1  C   UNL     1       2.329   7.850  18.254  0.00  0.00    +0.000 C 
ATOM      2  O   UNL     1       2.542   8.585  17.296  0.00  0.00    +0.000 OA
ATOM      3  N   UNL     1       1.731   8.278  19.414  0.00  0.00    +0.000 N 
ATOM      4  H   UNL     1       1.360   7.626  20.089  0.00  0.00    +0.000 HD
ENDROOT
BRANCH   1   8
ATOM      5  C   UNL     1       3.442   3.737  17.809  0.00  0.00    +0.000 A 
ATOM      6  C   UNL     1       2.097   4.138  17.748  0.00  0.00    +0.000 A 
ATOM      7  C   UNL     1       1.745   5.477  17.911  0.00  0.00    +0.000 A 
ATOM      8  C   UNL     1       2.727   6.425  18.194  0.00  0.00    +0.000 A 
ATOM      9  C   UNL     1       4.058   6.020  18.333  0.00  0.00    +0.000 A 
ATOM     10  C   UNL     1       4.426   4.677  18.156  0.00  0.00    +0.000 A 
BRANCH   5  12
ATOM     11  C   UNL     1       3.652   1.540  18.652  0.00  0.00    +0.000 C 
ATOM     12  O   UNL     1       3.795   2.441  17.556  0.00  0.00    +0.000 OA
ENDBRANCH   5  12
BRANCH  10  13
ATOM     13  O   UNL     1       5.774   4.491  18.318  0.00  0.00    +0.000 OA
ATOM     14  C   UNL     1       6.493   5.368  19.170  0.00  0.00    +0.000 C 
ENDBRANCH  10  13
ENDBRANCH   1   8
BRANCH   3  15
ATOM     15  C   UNL     1       1.352   9.644  19.573  0.00  0.00    +0.000 C 
BRANCH  15  16
ATOM     16  N   UNL     1      -0.088   9.662  19.803  0.00  0.00    +0.000 NA
ATOM     17  C   UNL     1      -0.446   9.264  21.190  0.00  0.00    +0.000 C 
ATOM     18  C   UNL     1       0.014  10.221  22.312  0.00  0.00    +0.000 C 
ATOM     19  N   UNL     1      -0.293  11.631  22.013  0.00  0.00    +0.000 N 
ATOM     20  C   UNL     1      -0.052  12.079  20.631  0.00  0.00    +0.000 C 
ATOM     21  C   UNL     1      -0.592  11.046  19.611  0.00  0.00    +0.000 C 
BRANCH  19  22
ATOM     22  C   UNL     1      -1.225  12.355  22.742  0.00  0.00    +0.000 A 
ATOM     23  C   UNL     1      -0.934  13.681  23.107  0.00  0.00    +0.000 A 
ATOM     24  C   UNL     1      -1.846  14.470  23.809  0.00  0.00    +0.000 A 
ATOM     25  C   UNL     1      -3.082  13.941  24.165  0.00  0.00    +0.000 A 
ATOM     26  C   UNL     1      -3.388  12.625  23.830  0.00  0.00    +0.000 A 
ATOM     27  C   UNL     1      -2.465  11.839  23.131  0.00  0.00    +0.000 A 
ENDBRANCH  19  22
ENDBRANCH  15  16
ENDBRANCH   3  15
TORSDOF 6
ENDMDL
MODEL 7
REMARK VINA RESULT:      -6.9      6.374      9.034
REMARK  Name = 
REMARK  8 active torsions:
REMARK  status: ('A' for Active; 'I' for Inactive)
REMARK    1  A    between atoms: C_1  and  O_2
REMARK    2  A    between atoms: O_2  and  C_3
REMARK    3  A    between atoms: C_6  and  C_7
REMARK    4  A    between atoms: N_9  and  C_10
REMARK    5  A    between atoms: C_10  and  N_11
REMARK    6  A    between atoms: N_14  and  C_15
REMARK    7  A    between atoms: C_24  and  O_25
REMARK    8  A    between atoms: O_25  and  C_26
REMARK                            x       y       z     vdW  Elec       q    Type
REMARK                         _______ _______ _______ _____ _____    ______ ____
ROOT
ATOM      1  C   UNL     1       2.498   5.594  20.205  0.00  0.00    +0.000 C 
ATOM      2  O   UNL     1       2.164   4.936  21.184  0.00  0.00    +0.000 OA
ATOM      3  N   UNL     1       2.093   6.889  19.994  0.00  0.00    +0.000 N 
ATOM      4  H   UNL     1       2.551   7.482  19.318  0.00  0.00    +0.000 HD
ENDROOT
BRANCH   1   8
ATOM      5  C   UNL     1       4.985   4.069  17.068  0.00  0.00    +0.000 A 
ATOM      6  C   UNL     1       3.585   4.020  16.975  0.00  0.00    +0.000 A 
ATOM      7  C   UNL     1       2.785   4.504  18.010  0.00  0.00    +0.000 A 
ATOM      8  C   UNL     1       3.375   4.992  19.175  0.00  0.00    +0.000 A 
ATOM      9  C   UNL     1       4.767   4.971  19.305  0.00  0.00    +0.000 A 
ATOM     10  C   UNL     1       5.583   4.502  18.264  0.00  0.00    +0.000 A 
BRANCH   5  12
ATOM     11  C   UNL     1       5.933   4.654  14.985  0.00  0.00    +0.000 C 
ATOM     12  O   UNL     1       5.767   3.683  16.015  0.00  0.00    +0.000 OA
ENDBRANCH   5  12
BRANCH  10  13
ATOM     13  O   UNL     1       6.913   4.581  18.581  0.00  0.00    +0.000 OA
ATOM     14  C   UNL     1       7.498   5.857  18.783  0.00  0.00    +0.000 C 
ENDBRANCH  10  13
ENDBRANCH   1   8
BRANCH   3  15
ATOM     15  C   UNL     1       1.215   7.533  20.914  0.00  0.00    +0.000 C 
BRANCH  15  16
ATOM     16  N   UNL     1       1.745   8.873  21.143  0.00  0.00    +0.000 NA
ATOM     17  C   UNL     1       1.126   9.888  20.249  0.00  0.00    +0.000 C 
ATOM     18  C   UNL     1      -0.380  10.158  20.468  0.00  0.00    +0.000 C 
ATOM     19  N   UNL     1      -0.718  10.348  21.889  0.00  0.00    +0.000 N 
ATOM     20  C   UNL     1      -0.071   9.438  22.850  0.00  0.00    +0.000 C 
ATOM     21  C   UNL     1       1.438   9.285  22.536  0.00  0.00    +0.000 C 
BRANCH  19  22
ATOM     22  C   UNL     1      -1.146  11.569  22.390  0.00  0.00    +0.000 A 
ATOM     23  C   UNL     1      -2.322  11.625  23.158  0.00  0.00    +0.000 A 
ATOM     24  C   UNL     1      -2.782  12.818  23.718  0.00  0.00    +0.000 A 
ATOM     25  C   UNL     1      -2.066  13.992  23.517  0.00  0.00    +0.000 A 
ATOM     26  C   UNL     1      -0.907  13.967  22.747  0.00  0.00    +0.000 A 
ATOM     27  C   UNL     1      -0.457  12.768  22.184  0.00  0.00    +0.000 A 
ENDBRANCH  19  22
ENDBRANCH  15  16
ENDBRANCH   3  15
TORSDOF 6
ENDMDL
MODEL 8
REMARK VINA RESULT:      -6.9      7.196      9.589
REMARK  Name = 
REMARK  8 active torsions:
REMARK  status: ('A' for Active; 'I' for Inactive)
REMARK    1  A    between atoms: C_1  and  O_2
REMARK    2  A    between atoms: O_2  and  C_3
REMARK    3  A    between atoms: C_6  and  C_7
REMARK    4  A    between atoms: N_9  and  C_10
REMARK    5  A    between atoms: C_10  and  N_11
REMARK    6  A    between atoms: N_14  and  C_15
REMARK    7  A    between atoms: C_24  and  O_25
REMARK    8  A    between atoms: O_25  and  C_26
REMARK                            x       y       z     vdW  Elec       q    Type
REMARK                         _______ _______ _______ _____ _____    ______ ____
ROOT
ATOM      1  C   UNL     1       2.211   8.413  18.324  0.00  0.00    +0.000 C 
ATOM      2  O   UNL     1       2.213   8.929  17.212  0.00  0.00    +0.000 OA
ATOM      3  N   UNL     1       1.566   8.960  19.407  0.00  0.00    +0.000 N 
ATOM      4  H   UNL     1       1.382   8.420  20.240  0.00  0.00    +0.000 HD
ENDROOT
BRANCH   1   8
ATOM      5  C   UNL     1       4.075   4.601  18.907  0.00  0.00    +0.000 A 
ATOM      6  C   UNL     1       3.172   5.121  19.848  0.00  0.00    +0.000 A 
ATOM      7  C   UNL     1       2.584   6.370  19.657  0.00  0.00    +0.000 A 
ATOM      8  C   UNL     1       2.934   7.141  18.549  0.00  0.00    +0.000 A 
ATOM      9  C   UNL     1       3.891   6.662  17.649  0.00  0.00    +0.000 A 
ATOM     10  C   UNL     1       4.478   5.399  17.823  0.00  0.00    +0.000 A 
BRANCH   5  12
ATOM     11  C   UNL     1       3.899   2.508  19.988  0.00  0.00    +0.000 C 
ATOM     12  O   UNL     1       4.578   3.337  19.047  0.00  0.00    +0.000 OA
ENDBRANCH   5  12
BRANCH  10  13
ATOM     13  O   UNL     1       5.374   5.110  16.828  0.00  0.00    +0.000 OA
ATOM     14  C   UNL     1       6.752   5.363  17.048  0.00  0.00    +0.000 C 
ENDBRANCH  10  13
ENDBRANCH   1   8
BRANCH   3  15
ATOM     15  C   UNL     1       0.878  10.204  19.290  0.00  0.00    +0.000 C 
BRANCH  15  16
ATOM     16  N   UNL     1      -0.478   9.989  19.783  0.00  0.00    +0.000 NA
ATOM     17  C   UNL     1      -0.505   9.614  21.222  0.00  0.00    +0.000 C 
ATOM     18  C   UNL     1      -0.030  10.698  22.216  0.00  0.00    +0.000 C 
ATOM     19  N   UNL     1      -0.632  12.014  21.945  0.00  0.00    +0.000 N 
ATOM     20  C   UNL     1      -0.726  12.419  20.532  0.00  0.00    +0.000 C 
ATOM     21  C   UNL     1      -1.246  11.254  19.655  0.00  0.00    +0.000 C 
BRANCH  19  22
ATOM     22  C   UNL     1      -1.532  12.609  22.817  0.00  0.00    +0.000 A 
ATOM     23  C   UNL     1      -1.232  13.869  23.363  0.00  0.00    +0.000 A 
ATOM     24  C   UNL     1      -2.115  14.532  24.217  0.00  0.00    +0.000 A 
ATOM     25  C   UNL     1      -3.329  13.940  24.546  0.00  0.00    +0.000 A 
ATOM     26  C   UNL     1      -3.643  12.685  24.032  0.00  0.00    +0.000 A 
ATOM     27  C   UNL     1      -2.749  12.025  23.181  0.00  0.00    +0.000 A 
ENDBRANCH  19  22
ENDBRANCH  15  16
ENDBRANCH   3  15
TORSDOF 6
ENDMDL
MODEL 9
REMARK VINA RESULT:      -6.9      7.135      9.947
REMARK  Name = 
REMARK  8 active torsions:
REMARK  status: ('A' for Active; 'I' for Inactive)
REMARK    1  A    between atoms: C_1  and  O_2
REMARK    2  A    between atoms: O_2  and  C_3
REMARK    3  A    between atoms: C_6  and  C_7
REMARK    4  A    between atoms: N_9  and  C_10
REMARK    5  A    between atoms: C_10  and  N_11
REMARK    6  A    between atoms: N_14  and  C_15
REMARK    7  A    between atoms: C_24  and  O_25
REMARK    8  A    between atoms: O_25  and  C_26
REMARK                            x       y       z     vdW  Elec       q    Type
REMARK                         _______ _______ _______ _____ _____    ______ ____
ROOT
ATOM      1  C   UNL     1       2.186   7.445  19.346  0.00  0.00    +0.000 C 
ATOM      2  O   UNL     1       2.198   8.356  18.526  0.00  0.00    +0.000 OA
ATOM      3  N   UNL     1       1.836   7.620  20.662  0.00  0.00    +0.000 N 
ATOM      4  H   UNL     1       1.612   6.837  21.258  0.00  0.00    +0.000 HD
ENDROOT
BRANCH   1   8
ATOM      5  C   UNL     1       3.050   3.459  18.035  0.00  0.00    +0.000 A 
ATOM      6  C   UNL     1       2.211   3.698  19.135  0.00  0.00    +0.000 A 
ATOM      7  C   UNL     1       1.950   4.998  19.564  0.00  0.00    +0.000 A 
ATOM      8  C   UNL     1       2.570   6.076  18.933  0.00  0.00    +0.000 A 
ATOM      9  C   UNL     1       3.467   5.840  17.887  0.00  0.00    +0.000 A 
ATOM     10  C   UNL     1       3.725   4.536  17.436  0.00  0.00    +0.000 A 
BRANCH   5  12
ATOM     11  C   UNL     1       3.761   1.253  18.491  0.00  0.00    +0.000 C 
ATOM     12  O   UNL     1       3.230   2.191  17.557  0.00  0.00    +0.000 OA
ENDBRANCH   5  12
BRANCH  10  13
ATOM     13  O   UNL     1       4.617   4.521  16.396  0.00  0.00    +0.000 OA
ATOM     14  C   UNL     1       5.841   5.226  16.528  0.00  0.00    +0.000 C 
ENDBRANCH  10  13
ENDBRANCH   1   8
BRANCH   3  15
ATOM     15  C   UNL     1       1.491   8.913  21.155  0.00  0.00    +0.000 C 
BRANCH  15  16
ATOM     16  N   UNL     1       0.051   9.064  20.985  0.00  0.00    +0.000 NA
ATOM     17  C   UNL     1      -0.685   8.976  22.274  0.00  0.00    +0.000 C 
ATOM     18  C   UNL     1      -0.418  10.111  23.288  0.00  0.00    +0.000 C 
ATOM     19  N   UNL     1      -0.482  11.447  22.670  0.00  0.00    +0.000 N 
ATOM     20  C   UNL     1       0.146  11.592  21.346  0.00  0.00    +0.000 C 
ATOM     21  C   UNL     1      -0.233  10.409  20.421  0.00  0.00    +0.000 C 
BRANCH  19  22
ATOM     22  C   UNL     1      -1.480  12.358  22.981  0.00  0.00    +0.000 A 
ATOM     23  C   UNL     1      -2.756  11.887  23.339  0.00  0.00    +0.000 A 
ATOM     24  C   UNL     1      -3.789  12.755  23.696  0.00  0.00    +0.000 A 
ATOM     25  C   UNL     1      -3.564  14.127  23.702  0.00  0.00    +0.000 A 
ATOM     26  C   UNL     1      -2.315  14.620  23.336  0.00  0.00    +0.000 A 
ATOM     27  C   UNL     1      -1.287  13.743  22.973  0.00  0.00    +0.000 A 
ENDBRANCH  19  22
ENDBRANCH  15  16
ENDBRANCH   3  15
TORSDOF 6
ENDMDL
