MODEL 1
REMARK VINA RESULT:      -8.9      0.000      0.000
REMARK  Name = 
REMARK  6 active torsions:
REMARK  status: ('A' for Active; 'I' for Inactive)
REMARK    1  A    between atoms: C_1  and  N_2
REMARK    2  A    between atoms: C_4  and  C_5
REMARK    3  A    between atoms: C_11  and  C_12
REMARK    4  A    between atoms: C_14  and  N_15
REMARK    5  A    between atoms: N_18  and  S_19
REMARK    6  A    between atoms: S_19  and  C_20
REMARK                            x       y       z     vdW  Elec       q    Type
REMARK                         _______ _______ _______ _____ _____    ______ ____
ROOT
ATOM      1  C   UNL     1       4.856   4.513  17.203  0.00  0.00    +0.000 A 
ATOM      2  C   UNL     1       4.767   3.297  17.897  0.00  0.00    +0.000 A 
ATOM      3  C   UNL     1       3.981   3.160  19.046  0.00  0.00    +0.000 A 
ATOM      4  C   UNL     1       3.279   4.289  19.472  0.00  0.00    +0.000 A 
ATOM      5  N   UNL     1       2.446   4.489  20.534  0.00  0.00    +0.000 N 
ATOM      6  N   UNL     1       1.940   5.724  20.607  0.00  0.00    +0.000 NA
ATOM      7  C   UNL     1       2.450   6.369  19.539  0.00  0.00    +0.000 A 
ATOM      8  C   UNL     1       3.324   5.509  18.808  0.00  0.00    +0.000 A 
ATOM      9  C   UNL     1       4.129   5.622  17.657  0.00  0.00    +0.000 A 
ATOM     10  H   UNL     1       2.180   3.817  21.242  0.00  0.00    +0.000 HD
ENDROOT
BRANCH   1  14
ATOM     11  C   UNL     1       6.776   3.993  12.661  0.00  0.00    +0.000 C 
ATOM     12  N   UNL     1       6.531   4.421  14.017  0.00  0.00    +0.000 N 
ATOM     13  C   UNL     1       5.487   4.052  14.813  0.00  0.00    +0.000 A 
ATOM     14  C   UNL     1       5.708   4.650  16.035  0.00  0.00    +0.000 A 
ATOM     15  C   UNL     1       6.901   5.389  15.846  0.00  0.00    +0.000 A 
ATOM     16  N   UNL     1       7.407   5.247  14.619  0.00  0.00    +0.000 NA
ENDBRANCH   1  14
BRANCH   7  17
ATOM     17  C   UNL     1       2.081   7.756  19.227  0.00  0.00    +0.000 A 
ATOM     18  C   UNL     1       1.242   8.440  20.078  0.00  0.00    +0.000 A 
ATOM     19  C   UNL     1       0.897   9.733  19.751  0.00  0.00    +0.000 A 
ATOM     20  N   UNL     1       1.338  10.286  18.609  0.00  0.00    +0.000 NA
ATOM     21  C   UNL     1       2.161   9.552  17.848  0.00  0.00    +0.000 A 
ATOM     22  N   UNL     1       2.571   8.307  18.098  0.00  0.00    +0.000 NA
BRANCH  19  23
ATOM     23  N   UNL     1       0.162  10.515  20.612  0.00  0.00    +0.000 N 
ATOM     24  C   UNL     1      -0.669   9.924  21.664  0.00  0.00    +0.000 C 
ATOM     25  C   UNL     1      -0.622  10.794  22.932  0.00  0.00    +0.000 C 
ATOM     26  N   UNL     1      -0.936  12.232  22.660  0.00  0.00    +0.000 NA
ATOM     27  C   UNL     1       0.005  12.763  21.610  0.00  0.00    +0.000 C 
ATOM     28  C   UNL     1      -0.039  11.938  20.311  0.00  0.00    +0.000 C 
BRANCH  26  29
ATOM     29  S   UNL     1      -2.574  12.632  22.429  0.00  0.00    +0.000 S 
ATOM     30  C   UNL     1      -2.597  14.371  22.804  0.00  0.00    +0.000 C 
ATOM     31  O   UNL     1      -2.859  12.489  21.019  0.00  0.00    +0.000 OA
ATOM     32  O   UNL     1      -3.364  11.940  23.420  0.00  0.00    +0.000 OA
ENDBRANCH  26  29
ENDBRANCH  19  23
ENDBRANCH   7  17
TORSDOF 4
ENDMDL
MODEL 2
REMARK VINA RESULT:      -8.8      1.282      1.628
REMARK  Name = 
REMARK  6 active torsions:
REMARK  status: ('A' for Active; 'I' for Inactive)
REMARK    1  A    between atoms: C_1  and  N_2
REMARK    2  A    between atoms: C_4  and  C_5
REMARK    3  A    between atoms: C_11  and  C_12
REMARK    4  A    between atoms: C_14  and  N_15
REMARK    5  A    between atoms: N_18  and  S_19
REMARK    6  A    between atoms: S_19  and  C_20
REMARK                            x       y       z     vdW  Elec       q    Type
REMARK                         _______ _______ _______ _____ _____    ______ ____
ROOT
ATOM      1  C   UNL     1       4.753   4.759  17.748  0.00  0.00    +0.000 A 
ATOM      2  C   UNL     1       4.666   3.629  18.574  0.00  0.00    +0.000 A 
ATOM      3  C   UNL     1       3.848   3.606  19.709  0.00  0.00    +0.000 A 
ATOM      4  C   UNL     1       3.113   4.761  19.983  0.00  0.00    +0.000 A 
ATOM      5  N   UNL     1       2.244   5.062  20.992  0.00  0.00    +0.000 N 
ATOM      6  N   UNL     1       1.712   6.285  20.908  0.00  0.00    +0.000 NA
ATOM      7  C   UNL     1       2.242   6.816  19.787  0.00  0.00    +0.000 A 
ATOM      8  C   UNL     1       3.154   5.897  19.185  0.00  0.00    +0.000 A 
ATOM      9  C   UNL     1       3.992   5.897  18.051  0.00  0.00    +0.000 A 
ATOM     10  H   UNL     1       1.970   4.470  21.764  0.00  0.00    +0.000 HD
ENDROOT
BRANCH   1  14
ATOM     11  C   UNL     1       6.656   4.012  13.230  0.00  0.00    +0.000 C 
ATOM     12  N   UNL     1       6.453   4.456  14.588  0.00  0.00    +0.000 N 
ATOM     13  C   UNL     1       5.351   4.238  15.362  0.00  0.00    +0.000 A 
ATOM     14  C   UNL     1       5.637   4.781  16.596  0.00  0.00    +0.000 A 
ATOM     15  C   UNL     1       6.931   5.334  16.438  0.00  0.00    +0.000 A 
ATOM     16  N   UNL     1       7.432   5.132  15.217  0.00  0.00    +0.000 NA
ENDBRANCH   1  14
BRANCH   7  17
ATOM     17  C   UNL     1       1.856   8.149  19.308  0.00  0.00    +0.000 A 
ATOM     18  C   UNL     1       1.134   8.981  20.134  0.00  0.00    +0.000 A 
ATOM     19  C   UNL     1       0.769  10.219  19.652  0.00  0.00    +0.000 A 
ATOM     20  N   UNL     1       1.078  10.577  18.395  0.00  0.00    +0.000 NA
ATOM     21  C   UNL     1       1.795   9.710  17.666  0.00  0.00    +0.000 A 
ATOM     22  N   UNL     1       2.216   8.505  18.058  0.00  0.00    +0.000 NA
BRANCH  19  23
ATOM     23  N   UNL     1       0.152  11.146  20.460  0.00  0.00    +0.000 N 
ATOM     24  C   UNL     1      -0.357  12.411  19.924  0.00  0.00    +0.000 C 
ATOM     25  C   UNL     1      -1.669  12.799  20.628  0.00  0.00    +0.000 C 
ATOM     26  N   UNL     1      -1.551  12.786  22.120  0.00  0.00    +0.000 NA
ATOM     27  C   UNL     1      -1.078  11.430  22.577  0.00  0.00    +0.000 C 
ATOM     28  C   UNL     1       0.252  11.022  21.919  0.00  0.00    +0.000 C 
BRANCH  26  29
ATOM     29  S   UNL     1      -0.758  14.107  22.841  0.00  0.00    +0.000 S 
ATOM     30  C   UNL     1      -1.610  15.497  22.127  0.00  0.00    +0.000 C 
ATOM     31  O   UNL     1      -1.073  14.084  24.252  0.00  0.00    +0.000 OA
ATOM     32  O   UNL     1       0.613  14.129  22.387  0.00  0.00    +0.000 OA
ENDBRANCH  26  29
ENDBRANCH  19  23
ENDBRANCH   7  17
TORSDOF 4
ENDMDL
MODEL 3
REMARK VINA RESULT:      -8.7      3.054      4.894
REMARK  Name = 
REMARK  6 active torsions:
REMARK  status: ('A' for Active; 'I' for Inactive)
REMARK    1  A    between atoms: C_1  and  N_2
REMARK    2  A    between atoms: C_4  and  C_5
REMARK    3  A    between atoms: C_11  and  C_12
REMARK    4  A    between atoms: C_14  and  N_15
REMARK    5  A    between atoms: N_18  and  S_19
REMARK    6  A    between atoms: S_19  and  C_20
REMARK                            x       y       z     vdW  Elec       q    Type
REMARK                         _______ _______ _______ _____ _____    ______ ____
ROOT
ATOM      1  C   UNL     1       2.608   6.509  19.223  0.00  0.00    +0.000 A 
ATOM      2  C   UNL     1       3.144   6.870  17.978  0.00  0.00    +0.000 A 
ATOM      3  C   UNL     1       2.915   8.131  17.415  0.00  0.00    +0.000 A 
ATOM      4  C   UNL     1       2.131   9.021  18.151  0.00  0.00    +0.000 A 
ATOM      5  N   UNL     1       1.723  10.296  17.889  0.00  0.00    +0.000 N 
ATOM      6  N   UNL     1       0.982  10.842  18.858  0.00  0.00    +0.000 NA
ATOM      7  C   UNL     1       0.904   9.892  19.811  0.00  0.00    +0.000 A 
ATOM      8  C   UNL     1       1.594   8.713  19.394  0.00  0.00    +0.000 A 
ATOM      9  C   UNL     1       1.833   7.434  19.936  0.00  0.00    +0.000 A 
ATOM     10  H   UNL     1       1.925  10.850  17.068  0.00  0.00    +0.000 HD
ENDROOT
BRANCH   1  14
ATOM     11  C   UNL     1       4.440   1.984  20.091  0.00  0.00    +0.000 C 
ATOM     12  N   UNL     1       3.657   3.194  20.158  0.00  0.00    +0.000 N 
ATOM     13  C   UNL     1       3.844   4.328  19.426  0.00  0.00    +0.000 A 
ATOM     14  C   UNL     1       2.822   5.183  19.776  0.00  0.00    +0.000 A 
ATOM     15  C   UNL     1       2.097   4.469  20.760  0.00  0.00    +0.000 A 
ATOM     16  N   UNL     1       2.601   3.254  20.991  0.00  0.00    +0.000 NA
ENDBRANCH   1  14
BRANCH   7  17
ATOM     17  C   UNL     1       0.212  10.130  21.084  0.00  0.00    +0.000 A 
ATOM     18  C   UNL     1      -0.784  11.079  21.144  0.00  0.00    +0.000 A 
ATOM     19  C   UNL     1      -1.404  11.295  22.355  0.00  0.00    +0.000 A 
ATOM     20  N   UNL     1      -1.009  10.624  23.450  0.00  0.00    +0.000 NA
ATOM     21  C   UNL     1      -0.042   9.710  23.296  0.00  0.00    +0.000 A 
ATOM     22  N   UNL     1       0.594   9.412  22.160  0.00  0.00    +0.000 NA
BRANCH  19  23
ATOM     23  N   UNL     1      -2.485  12.140  22.463  0.00  0.00    +0.000 N 
ATOM     24  C   UNL     1      -3.244  12.256  23.711  0.00  0.00    +0.000 C 
ATOM     25  C   UNL     1      -3.693  13.712  23.927  0.00  0.00    +0.000 C 
ATOM     26  N   UNL     1      -4.404  14.281  22.740  0.00  0.00    +0.000 NA
ATOM     27  C   UNL     1      -3.523  14.167  21.523  0.00  0.00    +0.000 C 
ATOM     28  C   UNL     1      -3.081  12.718  21.253  0.00  0.00    +0.000 C 
BRANCH  26  29
ATOM     29  S   UNL     1      -6.020  13.803  22.508  0.00  0.00    +0.000 S 
ATOM     30  C   UNL     1      -6.861  14.654  23.825  0.00  0.00    +0.000 C 
ATOM     31  O   UNL     1      -6.468  14.382  21.261  0.00  0.00    +0.000 OA
ATOM     32  O   UNL     1      -6.121  12.382  22.745  0.00  0.00    +0.000 OA
ENDBRANCH  26  29
ENDBRANCH  19  23
ENDBRANCH   7  17
TORSDOF 4
ENDMDL
MODEL 4
REMARK VINA RESULT:      -8.5      1.119      1.418
REMARK  Name = 
REMARK  6 active torsions:
REMARK  status: ('A' for Active; 'I' for Inactive)
REMARK    1  A    between atoms: C_1  and  N_2
REMARK    2  A    between atoms: C_4  and  C_5
REMARK    3  A    between atoms: C_11  and  C_12
REMARK    4  A    between atoms: C_14  and  N_15
REMARK    5  A    between atoms: N_18  and  S_19
REMARK    6  A    between atoms: S_19  and  C_20
REMARK                            x       y       z     vdW  Elec       q    Type
REMARK                         _______ _______ _______ _____ _____    ______ ____
ROOT
ATOM      1  C   UNL     1       4.661   4.659  17.873  0.00  0.00    +0.000 A 
ATOM      2  C   UNL     1       4.484   3.547  18.708  0.00  0.00    +0.000 A 
ATOM      3  C   UNL     1       3.633   3.587  19.819  0.00  0.00    +0.000 A 
ATOM      4  C   UNL     1       2.959   4.787  20.057  0.00  0.00    +0.000 A 
ATOM      5  N   UNL     1       2.081   5.151  21.035  0.00  0.00    +0.000 N 
ATOM      6  N   UNL     1       1.624   6.403  20.921  0.00  0.00    +0.000 NA
ATOM      7  C   UNL     1       2.217   6.886  19.811  0.00  0.00    +0.000 A 
ATOM      8  C   UNL     1       3.091   5.908  19.247  0.00  0.00    +0.000 A 
ATOM      9  C   UNL     1       3.960   5.843  18.140  0.00  0.00    +0.000 A 
ATOM     10  H   UNL     1       1.749   4.586  21.806  0.00  0.00    +0.000 HD
ENDROOT
BRANCH   1  14
ATOM     11  C   UNL     1       6.564   3.976  13.345  0.00  0.00    +0.000 C 
ATOM     12  N   UNL     1       6.396   4.323  14.735  0.00  0.00    +0.000 N 
ATOM     13  C   UNL     1       5.243   4.255  15.460  0.00  0.00    +0.000 A 
ATOM     14  C   UNL     1       5.578   4.614  16.747  0.00  0.00    +0.000 A 
ATOM     15  C   UNL     1       6.960   4.914  16.673  0.00  0.00    +0.000 A 
ATOM     16  N   UNL     1       7.462   4.732  15.449  0.00  0.00    +0.000 NA
ENDBRANCH   1  14
BRANCH   7  17
ATOM     17  C   UNL     1       1.925   8.233  19.306  0.00  0.00    +0.000 A 
ATOM     18  C   UNL     1       1.159   9.089  20.065  0.00  0.00    +0.000 A 
ATOM     19  C   UNL     1       0.884  10.340  19.558  0.00  0.00    +0.000 A 
ATOM     20  N   UNL     1       1.320  10.689  18.336  0.00  0.00    +0.000 NA
ATOM     21  C   UNL     1       2.070   9.798  17.673  0.00  0.00    +0.000 A 
ATOM     22  N   UNL     1       2.411   8.578  18.096  0.00  0.00    +0.000 NA
BRANCH  19  23
ATOM     23  N   UNL     1       0.228  11.287  20.310  0.00  0.00    +0.000 N 
ATOM     24  C   UNL     1       0.957  12.212  21.182  0.00  0.00    +0.000 C 
ATOM     25  C   UNL     1       0.289  13.599  21.164  0.00  0.00    +0.000 C 
ATOM     26  N   UNL     1      -1.179  13.538  21.451  0.00  0.00    +0.000 NA
ATOM     27  C   UNL     1      -1.846  12.609  20.469  0.00  0.00    +0.000 C 
ATOM     28  C   UNL     1      -1.227  11.200  20.483  0.00  0.00    +0.000 C 
BRANCH  26  29
ATOM     29  S   UNL     1      -1.638  13.322  23.075  0.00  0.00    +0.000 S 
ATOM     30  C   UNL     1      -3.256  14.061  23.114  0.00  0.00    +0.000 C 
ATOM     31  O   UNL     1      -1.804  11.902  23.292  0.00  0.00    +0.000 OA
ATOM     32  O   UNL     1      -0.759  14.102  23.913  0.00  0.00    +0.000 OA
ENDBRANCH  26  29
ENDBRANCH  19  23
ENDBRANCH   7  17
TORSDOF 4
ENDMDL
MODEL 5
REMARK VINA RESULT:      -8.5      3.084      4.968
REMARK  Name = 
REMARK  6 active torsions:
REMARK  status: ('A' for Active; 'I' for Inactive)
REMARK    1  A    between atoms: C_1  and  N_2
REMARK    2  A    between atoms: C_4  and  C_5
REMARK    3  A    between atoms: C_11  and  C_12
REMARK    4  A    between atoms: C_14  and  N_15
REMARK    5  A    between atoms: N_18  and  S_19
REMARK    6  A    between atoms: S_19  and  C_20
REMARK                            x       y       z     vdW  Elec       q    Type
REMARK                         _______ _______ _______ _____ _____    ______ ____
ROOT
ATOM      1  C   UNL     1       2.648   6.409  19.239  0.00  0.00    +0.000 A 
ATOM      2  C   UNL     1       3.166   6.733  17.977  0.00  0.00    +0.000 A 
ATOM      3  C   UNL     1       2.927   7.976  17.379  0.00  0.00    +0.000 A 
ATOM      4  C   UNL     1       2.152   8.887  18.100  0.00  0.00    +0.000 A 
ATOM      5  N   UNL     1       1.739  10.153  17.806  0.00  0.00    +0.000 N 
ATOM      6  N   UNL     1       1.011  10.728  18.769  0.00  0.00    +0.000 NA
ATOM      7  C   UNL     1       0.948   9.806  19.751  0.00  0.00    +0.000 A 
ATOM      8  C   UNL     1       1.633   8.616  19.360  0.00  0.00    +0.000 A 
ATOM      9  C   UNL     1       1.883   7.354  19.936  0.00  0.00    +0.000 A 
ATOM     10  H   UNL     1       1.928  10.682  16.965  0.00  0.00    +0.000 HD
ENDROOT
BRANCH   1  14
ATOM     11  C   UNL     1       4.478   1.900  20.196  0.00  0.00    +0.000 C 
ATOM     12  N   UNL     1       3.706   3.118  20.249  0.00  0.00    +0.000 N 
ATOM     13  C   UNL     1       3.875   4.226  19.473  0.00  0.00    +0.000 A 
ATOM     14  C   UNL     1       2.872   5.101  19.829  0.00  0.00    +0.000 A 
ATOM     15  C   UNL     1       2.176   4.425  20.861  0.00  0.00    +0.000 A 
ATOM     16  N   UNL     1       2.679   3.214  21.115  0.00  0.00    +0.000 NA
ENDBRANCH   1  14
BRANCH   7  17
ATOM     17  C   UNL     1       0.274  10.082  21.026  0.00  0.00    +0.000 A 
ATOM     18  C   UNL     1      -0.548  11.181  21.132  0.00  0.00    +0.000 A 
ATOM     19  C   UNL     1      -1.153  11.427  22.345  0.00  0.00    +0.000 A 
ATOM     20  N   UNL     1      -0.905  10.634  23.400  0.00  0.00    +0.000 NA
ATOM     21  C   UNL     1      -0.102   9.579  23.203  0.00  0.00    +0.000 A 
ATOM     22  N   UNL     1       0.502   9.247  22.060  0.00  0.00    +0.000 NA
BRANCH  19  23
ATOM     23  N   UNL     1      -2.078  12.435  22.491  0.00  0.00    +0.000 N 
ATOM     24  C   UNL     1      -1.916  13.726  21.818  0.00  0.00    +0.000 C 
ATOM     25  C   UNL     1      -3.284  14.261  21.358  0.00  0.00    +0.000 C 
ATOM     26  N   UNL     1      -4.297  14.284  22.459  0.00  0.00    +0.000 NA
ATOM     27  C   UNL     1      -4.433  12.903  23.047  0.00  0.00    +0.000 C 
ATOM     28  C   UNL     1      -3.089  12.346  23.551  0.00  0.00    +0.000 C 
BRANCH  26  29
ATOM     29  S   UNL     1      -4.171  15.543  23.596  0.00  0.00    +0.000 S 
ATOM     30  C   UNL     1      -5.875  15.946  23.908  0.00  0.00    +0.000 C 
ATOM     31  O   UNL     1      -3.629  14.976  24.811  0.00  0.00    +0.000 OA
ATOM     32  O   UNL     1      -3.541  16.678  22.963  0.00  0.00    +0.000 OA
ENDBRANCH  26  29
ENDBRANCH  19  23
ENDBRANCH   7  17
TORSDOF 4
ENDMDL
MODEL 6
REMARK VINA RESULT:      -8.4      3.118      5.157
REMARK  Name = 
REMARK  6 active torsions:
REMARK  status: ('A' for Active; 'I' for Inactive)
REMARK    1  A    between atoms: C_1  and  N_2
REMARK    2  A    between atoms: C_4  and  C_5
REMARK    3  A    between atoms: C_11  and  C_12
REMARK    4  A    between atoms: C_14  and  N_15
REMARK    5  A    between atoms: N_18  and  S_19
REMARK    6  A    between atoms: S_19  and  C_20
REMARK                            x       y       z     vdW  Elec       q    Type
REMARK                         _______ _______ _______ _____ _____    ______ ____
ROOT
ATOM      1  C   UNL     1       2.523   6.578  19.176  0.00  0.00    +0.000 A 
ATOM      2  C   UNL     1       3.074   6.942  17.939  0.00  0.00    +0.000 A 
ATOM      3  C   UNL     1       2.882   8.216  17.392  0.00  0.00    +0.000 A 
ATOM      4  C   UNL     1       2.119   9.117  18.138  0.00  0.00    +0.000 A 
ATOM      5  N   UNL     1       1.747  10.406  17.893  0.00  0.00    +0.000 N 
ATOM      6  N   UNL     1       1.018  10.959  18.866  0.00  0.00    +0.000 NA
ATOM      7  C   UNL     1       0.910   9.998  19.805  0.00  0.00    +0.000 A 
ATOM      8  C   UNL     1       1.569   8.806  19.375  0.00  0.00    +0.000 A 
ATOM      9  C   UNL     1       1.771   7.514  19.900  0.00  0.00    +0.000 A 
ATOM     10  H   UNL     1       1.968  10.966  17.079  0.00  0.00    +0.000 HD
ENDROOT
BRANCH   1  14
ATOM     11  C   UNL     1       1.920   2.418  21.806  0.00  0.00    +0.000 C 
ATOM     12  N   UNL     1       2.405   3.403  20.869  0.00  0.00    +0.000 N 
ATOM     13  C   UNL     1       1.863   4.628  20.620  0.00  0.00    +0.000 A 
ATOM     14  C   UNL     1       2.699   5.239  19.711  0.00  0.00    +0.000 A 
ATOM     15  C   UNL     1       3.698   4.269  19.456  0.00  0.00    +0.000 A 
ATOM     16  N   UNL     1       3.525   3.151  20.164  0.00  0.00    +0.000 NA
ENDBRANCH   1  14
BRANCH   7  17
ATOM     17  C   UNL     1       0.219  10.237  21.078  0.00  0.00    +0.000 A 
ATOM     18  C   UNL     1      -0.580  11.350  21.215  0.00  0.00    +0.000 A 
ATOM     19  C   UNL     1      -1.200  11.560  22.427  0.00  0.00    +0.000 A 
ATOM     20  N   UNL     1      -0.991  10.719  23.453  0.00  0.00    +0.000 NA
ATOM     21  C   UNL     1      -0.209   9.654  23.226  0.00  0.00    +0.000 A 
ATOM     22  N   UNL     1       0.408   9.355  22.081  0.00  0.00    +0.000 NA
BRANCH  19  23
ATOM     23  N   UNL     1      -2.105  12.583  22.598  0.00  0.00    +0.000 N 
ATOM     24  C   UNL     1      -1.781  13.962  22.223  0.00  0.00    +0.000 C 
ATOM     25  C   UNL     1      -3.023  14.661  21.642  0.00  0.00    +0.000 C 
ATOM     26  N   UNL     1      -4.221  14.548  22.532  0.00  0.00    +0.000 NA
ATOM     27  C   UNL     1      -4.506  13.095  22.813  0.00  0.00    +0.000 C 
ATOM     28  C   UNL     1      -3.296  12.369  23.429  0.00  0.00    +0.000 C 
BRANCH  26  29
ATOM     29  S   UNL     1      -4.267  15.568  23.893  0.00  0.00    +0.000 S 
ATOM     30  C   UNL     1      -3.582  17.082  23.256  0.00  0.00    +0.000 C 
ATOM     31  O   UNL     1      -5.658  15.818  24.200  0.00  0.00    +0.000 OA
ATOM     32  O   UNL     1      -3.368  15.046  24.895  0.00  0.00    +0.000 OA
ENDBRANCH  26  29
ENDBRANCH  19  23
ENDBRANCH   7  17
TORSDOF 4
ENDMDL
MODEL 7
REMARK VINA RESULT:      -8.4      4.887      9.305
REMARK  Name = 
REMARK  6 active torsions:
REMARK  status: ('A' for Active; 'I' for Inactive)
REMARK    1  A    between atoms: C_1  and  N_2
REMARK    2  A    between atoms: C_4  and  C_5
REMARK    3  A    between atoms: C_11  and  C_12
REMARK    4  A    between atoms: C_14  and  N_15
REMARK    5  A    between atoms: N_18  and  S_19
REMARK    6  A    between atoms: S_19  and  C_20
REMARK                            x       y       z     vdW  Elec       q    Type
REMARK                         _______ _______ _______ _____ _____    ______ ____
ROOT
ATOM      1  C   UNL     1      -1.325  10.683  19.010  0.00  0.00    +0.000 A 
ATOM      2  C   UNL     1      -1.299  11.761  19.907  0.00  0.00    +0.000 A 
ATOM      3  C   UNL     1      -0.536  11.726  21.079  0.00  0.00    +0.000 A 
ATOM      4  C   UNL     1       0.209  10.569  21.316  0.00  0.00    +0.000 A 
ATOM      5  N   UNL     1       1.036  10.220  22.343  0.00  0.00    +0.000 N 
ATOM      6  N   UNL     1       1.596   9.013  22.209  0.00  0.00    +0.000 NA
ATOM      7  C   UNL     1       1.129   8.546  21.034  0.00  0.00    +0.000 A 
ATOM      8  C   UNL     1       0.228   9.485  20.447  0.00  0.00    +0.000 A 
ATOM      9  C   UNL     1      -0.556   9.542  19.277  0.00  0.00    +0.000 A 
ATOM     10  H   UNL     1       1.263  10.767  23.163  0.00  0.00    +0.000 HD
ENDROOT
BRANCH   1  14
ATOM     11  C   UNL     1      -3.035   9.953  14.413  0.00  0.00    +0.000 C 
ATOM     12  N   UNL     1      -2.902  10.370  15.788  0.00  0.00    +0.000 N 
ATOM     13  C   UNL     1      -1.898  10.037  16.648  0.00  0.00    +0.000 A 
ATOM     14  C   UNL     1      -2.154  10.719  17.818  0.00  0.00    +0.000 A 
ATOM     15  C   UNL     1      -3.365  11.406  17.558  0.00  0.00    +0.000 A 
ATOM     16  N   UNL     1      -3.820  11.199  16.320  0.00  0.00    +0.000 NA
ENDBRANCH   1  14
BRANCH   7  17
ATOM     17  C   UNL     1       1.563   7.252  20.492  0.00  0.00    +0.000 A 
ATOM     18  C   UNL     1       2.579   7.214  19.564  0.00  0.00    +0.000 A 
ATOM     19  C   UNL     1       2.953   5.989  19.058  0.00  0.00    +0.000 A 
ATOM     20  N   UNL     1       2.308   4.873  19.435  0.00  0.00    +0.000 NA
ATOM     21  C   UNL     1       1.341   5.001  20.353  0.00  0.00    +0.000 A 
ATOM     22  N   UNL     1       0.932   6.139  20.919  0.00  0.00    +0.000 NA
BRANCH  19  23
ATOM     23  N   UNL     1       4.037   5.863  18.219  0.00  0.00    +0.000 N 
ATOM     24  C   UNL     1       4.573   7.011  17.484  0.00  0.00    +0.000 C 
ATOM     25  C   UNL     1       6.108   6.924  17.407  0.00  0.00    +0.000 C 
ATOM     26  N   UNL     1       6.588   5.605  16.889  0.00  0.00    +0.000 NA
ATOM     27  C   UNL     1       6.031   4.495  17.743  0.00  0.00    +0.000 C 
ATOM     28  C   UNL     1       4.494   4.527  17.815  0.00  0.00    +0.000 C 
BRANCH  26  29
ATOM     29  S   UNL     1       6.476   5.350  15.211  0.00  0.00    +0.000 S 
ATOM     30  C   UNL     1       6.078   3.618  15.115  0.00  0.00    +0.000 C 
ATOM     31  O   UNL     1       5.325   6.086  14.738  0.00  0.00    +0.000 OA
ATOM     32  O   UNL     1       7.779   5.553  14.622  0.00  0.00    +0.000 OA
ENDBRANCH  26  29
ENDBRANCH  19  23
ENDBRANCH   7  17
TORSDOF 4
ENDMDL
MODEL 8
REMARK VINA RESULT:      -8.3      2.961      4.995
REMARK  Name = 
REMARK  6 active torsions:
REMARK  status: ('A' for Active; 'I' for Inactive)
REMARK    1  A    between atoms: C_1  and  N_2
REMARK    2  A    between atoms: C_4  and  C_5
REMARK    3  A    between atoms: C_11  and  C_12
REMARK    4  A    between atoms: C_14  and  N_15
REMARK    5  A    between atoms: N_18  and  S_19
REMARK    6  A    between atoms: S_19  and  C_20
REMARK                            x       y       z     vdW  Elec       q    Type
REMARK                         _______ _______ _______ _____ _____    ______ ____
ROOT
ATOM      1  C   UNL     1       2.610   6.577  19.009  0.00  0.00    +0.000 A 
ATOM      2  C   UNL     1       3.197   6.988  17.803  0.00  0.00    +0.000 A 
ATOM      3  C   UNL     1       3.034   8.287  17.308  0.00  0.00    +0.000 A 
ATOM      4  C   UNL     1       2.263   9.164  18.075  0.00  0.00    +0.000 A 
ATOM      5  N   UNL     1       1.913  10.468  17.878  0.00  0.00    +0.000 N 
ATOM      6  N   UNL     1       1.166  10.987  18.857  0.00  0.00    +0.000 NA
ATOM      7  C   UNL     1       1.023   9.986  19.749  0.00  0.00    +0.000 A 
ATOM      8  C   UNL     1       1.678   8.806  19.283  0.00  0.00    +0.000 A 
ATOM      9  C   UNL     1       1.851   7.490  19.754  0.00  0.00    +0.000 A 
ATOM     10  H   UNL     1       2.161  11.060  17.096  0.00  0.00    +0.000 HD
ENDROOT
BRANCH   1  14
ATOM     11  C   UNL     1       2.262   2.467  21.762  0.00  0.00    +0.000 C 
ATOM     12  N   UNL     1       2.575   3.403  20.709  0.00  0.00    +0.000 N 
ATOM     13  C   UNL     1       2.152   4.695  20.613  0.00  0.00    +0.000 A 
ATOM     14  C   UNL     1       2.756   5.214  19.488  0.00  0.00    +0.000 A 
ATOM     15  C   UNL     1       3.497   4.127  18.963  0.00  0.00    +0.000 A 
ATOM     16  N   UNL     1       3.393   3.024  19.708  0.00  0.00    +0.000 NA
ENDBRANCH   1  14
BRANCH   7  17
ATOM     17  C   UNL     1       0.303  10.178  21.014  0.00  0.00    +0.000 A 
ATOM     18  C   UNL     1      -0.702  11.117  21.085  0.00  0.00    +0.000 A 
ATOM     19  C   UNL     1      -1.347  11.290  22.289  0.00  0.00    +0.000 A 
ATOM     20  N   UNL     1      -0.970  10.587  23.370  0.00  0.00    +0.000 NA
ATOM     21  C   UNL     1       0.008   9.685  23.206  0.00  0.00    +0.000 A 
ATOM     22  N   UNL     1       0.668   9.429  22.075  0.00  0.00    +0.000 NA
BRANCH  19  23
ATOM     23  N   UNL     1      -2.437  12.122  22.402  0.00  0.00    +0.000 N 
ATOM     24  C   UNL     1      -3.172  12.255  23.663  0.00  0.00    +0.000 C 
ATOM     25  C   UNL     1      -3.636  13.710  23.858  0.00  0.00    +0.000 C 
ATOM     26  N   UNL     1      -4.378  14.244  22.674  0.00  0.00    +0.000 NA
ATOM     27  C   UNL     1      -3.521  14.116  21.441  0.00  0.00    +0.000 C 
ATOM     28  C   UNL     1      -3.066  12.667  21.193  0.00  0.00    +0.000 C 
BRANCH  26  29
ATOM     29  S   UNL     1      -5.992  13.740  22.486  0.00  0.00    +0.000 S 
ATOM     30  C   UNL     1      -6.413  14.398  20.887  0.00  0.00    +0.000 C 
ATOM     31  O   UNL     1      -5.985  12.299  22.374  0.00  0.00    +0.000 OA
ATOM     32  O   UNL     1      -6.804  14.402  23.481  0.00  0.00    +0.000 OA
ENDBRANCH  26  29
ENDBRANCH  19  23
ENDBRANCH   7  17
TORSDOF 4
ENDMDL
MODEL 9
REMARK VINA RESULT:      -8.3      5.050      9.345
REMARK  Name = 
REMARK  6 active torsions:
REMARK  status: ('A' for Active; 'I' for Inactive)
REMARK    1  A    between atoms: C_1  and  N_2
REMARK    2  A    between atoms: C_4  and  C_5
REMARK    3  A    between atoms: C_11  and  C_12
REMARK    4  A    between atoms: C_14  and  N_15
REMARK    5  A    between atoms: N_18  and  S_19
REMARK    6  A    between atoms: S_19  and  C_20
REMARK                            x       y       z     vdW  Elec       q    Type
REMARK                         _______ _______ _______ _____ _____    ______ ____
ROOT
ATOM      1  C   UNL     1      -1.419  10.741  19.006  0.00  0.00    +0.000 A 
ATOM      2  C   UNL     1      -1.389  11.859  19.852  0.00  0.00    +0.000 A 
ATOM      3  C   UNL     1      -0.616  11.880  21.019  0.00  0.00    +0.000 A 
ATOM      4  C   UNL     1       0.135  10.737  21.302  0.00  0.00    +0.000 A 
ATOM      5  N   UNL     1       0.971  10.439  22.338  0.00  0.00    +0.000 N 
ATOM      6  N   UNL     1       1.534   9.229  22.255  0.00  0.00    +0.000 NA
ATOM      7  C   UNL     1       1.060   8.706  21.106  0.00  0.00    +0.000 A 
ATOM      8  C   UNL     1       0.150   9.615  20.484  0.00  0.00    +0.000 A 
ATOM      9  C   UNL     1      -0.643   9.616  19.319  0.00  0.00    +0.000 A 
ATOM     10  H   UNL     1       1.203  11.024  23.130  0.00  0.00    +0.000 HD
ENDROOT
BRANCH   1  14
ATOM     11  C   UNL     1      -3.090   9.934  14.408  0.00  0.00    +0.000 C 
ATOM     12  N   UNL     1      -2.986  10.337  15.789  0.00  0.00    +0.000 N 
ATOM     13  C   UNL     1      -1.948  10.085  16.636  0.00  0.00    +0.000 A 
ATOM     14  C   UNL     1      -2.257  10.719  17.820  0.00  0.00    +0.000 A 
ATOM     15  C   UNL     1      -3.529  11.293  17.581  0.00  0.00    +0.000 A 
ATOM     16  N   UNL     1      -3.973  11.066  16.343  0.00  0.00    +0.000 NA
ENDBRANCH   1  14
BRANCH   7  17
ATOM     17  C   UNL     1       1.494   7.391  20.621  0.00  0.00    +0.000 A 
ATOM     18  C   UNL     1       2.524   7.312  19.711  0.00  0.00    +0.000 A 
ATOM     19  C   UNL     1       2.898   6.066  19.258  0.00  0.00    +0.000 A 
ATOM     20  N   UNL     1       2.240   4.968  19.667  0.00  0.00    +0.000 NA
ATOM     21  C   UNL     1       1.260   5.137  20.564  0.00  0.00    +0.000 A 
ATOM     22  N   UNL     1       0.849   6.298  21.079  0.00  0.00    +0.000 NA
BRANCH  19  23
ATOM     23  N   UNL     1       3.994   5.902  18.442  0.00  0.00    +0.000 N 
ATOM     24  C   UNL     1       3.878   5.965  16.983  0.00  0.00    +0.000 C 
ATOM     25  C   UNL     1       5.118   6.649  16.379  0.00  0.00    +0.000 C 
ATOM     26  N   UNL     1       6.402   6.043  16.852  0.00  0.00    +0.000 NA
ATOM     27  C   UNL     1       6.451   6.076  18.358  0.00  0.00    +0.000 C 
ATOM     28  C   UNL     1       5.243   5.369  18.999  0.00  0.00    +0.000 C 
BRANCH  26  29
ATOM     29  S   UNL     1       6.859   4.563  16.148  0.00  0.00    +0.000 S 
ATOM     30  C   UNL     1       7.193   5.030  14.464  0.00  0.00    +0.000 C 
ATOM     31  O   UNL     1       8.115   4.169  16.746  0.00  0.00    +0.000 OA
ATOM     32  O   UNL     1       5.721   3.673  16.158  0.00  0.00    +0.000 OA
ENDBRANCH  26  29
ENDBRANCH  19  23
ENDBRANCH   7  17
TORSDOF 4
ENDMDL
