MODEL 1
REMARK VINA RESULT:      -7.2      0.000      0.000
REMARK  Name = 
REMARK  4 active torsions:
REMARK  status: ('A' for Active; 'I' for Inactive)
REMARK    1  A    between atoms: O_1  and  C_2
REMARK    2  A    between atoms: C_6  and  C_7
REMARK    3  A    between atoms: N_8  and  N_9
REMARK    4  A    between atoms: C_14  and  O_15
REMARK                            x       y       z     vdW  Elec       q    Type
REMARK                         _______ _______ _______ _____ _____    ______ ____
ROOT
ATOM      1  C   UNL     1       4.134   5.157  18.192  0.00  0.00    +0.000 C 
ATOM      2  N   UNL     1       5.204   4.481  17.937  0.00  0.00    +0.000 NA
ENDROOT
BRANCH   2   3
ATOM      3  N   UNL     1       6.211   5.115  17.300  0.00  0.00    +0.000 N 
ATOM      4  C   UNL     1       6.420   4.854  15.937  0.00  0.00    +0.000 A 
ATOM      5  C   UNL     1       5.609   3.947  15.271  0.00  0.00    +0.000 A 
ATOM      6  C   UNL     1       5.835   3.764  13.930  0.00  0.00    +0.000 A 
ATOM      7  N   UNL     1       6.812   4.394  13.259  0.00  0.00    +0.000 NA
ATOM      8  C   UNL     1       7.542   5.225  14.006  0.00  0.00    +0.000 A 
ATOM      9  N   UNL     1       7.411   5.508  15.304  0.00  0.00    +0.000 NA
ATOM     10  H   UNL     1       6.817   5.823  17.700  0.00  0.00    +0.000 HD
BRANCH   8  11
ATOM     11  O   UNL     1       8.543   5.834  13.318  0.00  0.00    +0.000 OA
ATOM     12  H   UNL     1       8.589   6.657  13.834  0.00  0.00    +0.000 HD
ENDBRANCH   8  11
ENDBRANCH   2   3
BRANCH   1  17
ATOM     13  C   UNL     1       1.261   2.856  18.930  0.00  0.00    +0.000 A 
ATOM     14  C   UNL     1       0.879   3.263  20.206  0.00  0.00    +0.000 A 
ATOM     15  C   UNL     1       1.571   4.299  20.834  0.00  0.00    +0.000 A 
ATOM     16  C   UNL     1       2.636   4.917  20.178  0.00  0.00    +0.000 A 
ATOM     17  C   UNL     1       3.011   4.498  18.892  0.00  0.00    +0.000 A 
ATOM     18  C   UNL     1       2.322   3.462  18.264  0.00  0.00    +0.000 A 
BRANCH  13  19
ATOM     19  O   UNL     1       0.605   1.850  18.285  0.00  0.00    +0.000 OA
ATOM     20  H   UNL     1       0.105   1.333  18.940  0.00  0.00    +0.000 HD
ENDBRANCH  13  19
ENDBRANCH   1  17
TORSDOF 4
ENDMDL
MODEL 2
REMARK VINA RESULT:      -7.2      1.162      1.588
REMARK  Name = 
REMARK  4 active torsions:
REMARK  status: ('A' for Active; 'I' for Inactive)
REMARK    1  A    between atoms: O_1  and  C_2
REMARK    2  A    between atoms: C_6  and  C_7
REMARK    3  A    between atoms: N_8  and  N_9
REMARK    4  A    between atoms: C_14  and  O_15
REMARK                            x       y       z     vdW  Elec       q    Type
REMARK                         _______ _______ _______ _____ _____    ______ ____
ROOT
ATOM      1  C   UNL     1       4.304   4.920  18.198  0.00  0.00    +0.000 C 
ATOM      2  N   UNL     1       5.131   4.265  17.453  0.00  0.00    +0.000 NA
ENDROOT
BRANCH   2   3
ATOM      3  N   UNL     1       6.166   4.945  16.916  0.00  0.00    +0.000 N 
ATOM      4  C   UNL     1       6.464   4.761  15.557  0.00  0.00    +0.000 A 
ATOM      5  C   UNL     1       5.710   3.883  14.793  0.00  0.00    +0.000 A 
ATOM      6  C   UNL     1       6.022   3.776  13.462  0.00  0.00    +0.000 A 
ATOM      7  N   UNL     1       7.029   4.453  12.888  0.00  0.00    +0.000 NA
ATOM      8  C   UNL     1       7.699   5.251  13.724  0.00  0.00    +0.000 A 
ATOM      9  N   UNL     1       7.483   5.461  15.024  0.00  0.00    +0.000 NA
ATOM     10  H   UNL     1       6.735   5.637  17.391  0.00  0.00    +0.000 HD
BRANCH   8  11
ATOM     11  O   UNL     1       8.731   5.908  13.134  0.00  0.00    +0.000 OA
ATOM     12  H   UNL     1       8.828   6.627  13.781  0.00  0.00    +0.000 HD
ENDBRANCH   8  11
ENDBRANCH   2   3
BRANCH   1  17
ATOM     13  C   UNL     1       2.037   3.365  20.754  0.00  0.00    +0.000 A 
ATOM     14  C   UNL     1       1.011   2.852  19.963  0.00  0.00    +0.000 A 
ATOM     15  C   UNL     1       1.060   3.020  18.579  0.00  0.00    +0.000 A 
ATOM     16  C   UNL     1       2.134   3.697  18.002  0.00  0.00    +0.000 A 
ATOM     17  C   UNL     1       3.161   4.209  18.808  0.00  0.00    +0.000 A 
ATOM     18  C   UNL     1       3.114   4.044  20.192  0.00  0.00    +0.000 A 
BRANCH  13  19
ATOM     19  O   UNL     1       2.023   3.217  22.109  0.00  0.00    +0.000 OA
ATOM     20  H   UNL     1       2.911   2.950  22.403  0.00  0.00    +0.000 HD
ENDBRANCH  13  19
ENDBRANCH   1  17
TORSDOF 4
ENDMDL
MODEL 3
REMARK VINA RESULT:      -6.9      6.078      8.700
REMARK  Name = 
REMARK  4 active torsions:
REMARK  status: ('A' for Active; 'I' for Inactive)
REMARK    1  A    between atoms: O_1  and  C_2
REMARK    2  A    between atoms: C_6  and  C_7
REMARK    3  A    between atoms: N_8  and  N_9
REMARK    4  A    between atoms: C_14  and  O_15
REMARK                            x       y       z     vdW  Elec       q    Type
REMARK                         _______ _______ _______ _____ _____    ______ ____
ROOT
ATOM      1  C   UNL     1       8.232   9.986  18.114  0.00  0.00    +0.000 C 
ATOM      2  N   UNL     1       8.406   8.766  17.730  0.00  0.00    +0.000 NA
ENDROOT
BRANCH   2   3
ATOM      3  N   UNL     1       7.338   8.106  17.232  0.00  0.00    +0.000 N 
ATOM      4  C   UNL     1       7.013   6.848  17.763  0.00  0.00    +0.000 A 
ATOM      5  C   UNL     1       7.791   6.297  18.770  0.00  0.00    +0.000 A 
ATOM      6  C   UNL     1       7.400   5.083  19.277  0.00  0.00    +0.000 A 
ATOM      7  N   UNL     1       6.332   4.410  18.824  0.00  0.00    +0.000 NA
ATOM      8  C   UNL     1       5.672   5.026  17.840  0.00  0.00    +0.000 A 
ATOM      9  N   UNL     1       5.933   6.208  17.278  0.00  0.00    +0.000 NA
ATOM     10  H   UNL     1       6.694   8.457  16.533  0.00  0.00    +0.000 HD
BRANCH   8  11
ATOM     11  O   UNL     1       4.610   4.318  17.374  0.00  0.00    +0.000 OA
ATOM     12  H   UNL     1       5.044   3.897  16.612  0.00  0.00    +0.000 HD
ENDBRANCH   8  11
ENDBRANCH   2   3
BRANCH   1  17
ATOM     13  C   UNL     1      11.414  11.968  18.314  0.00  0.00    +0.000 A 
ATOM     14  C   UNL     1      11.554  12.160  19.687  0.00  0.00    +0.000 A 
ATOM     15  C   UNL     1      10.596  11.638  20.556  0.00  0.00    +0.000 A 
ATOM     16  C   UNL     1       9.509  10.930  20.043  0.00  0.00    +0.000 A 
ATOM     17  C   UNL     1       9.379  10.743  18.659  0.00  0.00    +0.000 A 
ATOM     18  C   UNL     1      10.334  11.265  17.788  0.00  0.00    +0.000 A 
BRANCH  13  19
ATOM     19  O   UNL     1      12.333  12.461  17.436  0.00  0.00    +0.000 OA
ATOM     20  H   UNL     1      12.906  13.092  17.905  0.00  0.00    +0.000 HD
ENDBRANCH  13  19
ENDBRANCH   1  17
TORSDOF 4
ENDMDL
MODEL 4
REMARK VINA RESULT:      -6.9      1.173      1.696
REMARK  Name = 
REMARK  4 active torsions:
REMARK  status: ('A' for Active; 'I' for Inactive)
REMARK    1  A    between atoms: O_1  and  C_2
REMARK    2  A    between atoms: C_6  and  C_7
REMARK    3  A    between atoms: N_8  and  N_9
REMARK    4  A    between atoms: C_14  and  O_15
REMARK                            x       y       z     vdW  Elec       q    Type
REMARK                         _______ _______ _______ _____ _____    ______ ____
ROOT
ATOM      1  C   UNL     1       4.318   4.642  17.634  0.00  0.00    +0.000 C 
ATOM      2  N   UNL     1       5.245   4.032  16.976  0.00  0.00    +0.000 NA
ENDROOT
BRANCH   2   3
ATOM      3  N   UNL     1       6.280   4.769  16.518  0.00  0.00    +0.000 N 
ATOM      4  C   UNL     1       6.629   4.677  15.162  0.00  0.00    +0.000 A 
ATOM      5  C   UNL     1       5.925   3.829  14.319  0.00  0.00    +0.000 A 
ATOM      6  C   UNL     1       6.285   3.812  12.996  0.00  0.00    +0.000 A 
ATOM      7  N   UNL     1       7.293   4.548  12.501  0.00  0.00    +0.000 NA
ATOM      8  C   UNL     1       7.912   5.309  13.407  0.00  0.00    +0.000 A 
ATOM      9  N   UNL     1       7.646   5.432  14.709  0.00  0.00    +0.000 NA
ATOM     10  H   UNL     1       6.814   5.443  17.055  0.00  0.00    +0.000 HD
BRANCH   8  11
ATOM     11  O   UNL     1       8.947   6.026  12.896  0.00  0.00    +0.000 OA
ATOM     12  H   UNL     1       9.677   5.523  13.293  0.00  0.00    +0.000 HD
ENDBRANCH   8  11
ENDBRANCH   2   3
BRANCH   1  17
ATOM     13  C   UNL     1       1.257   3.703  19.594  0.00  0.00    +0.000 A 
ATOM     14  C   UNL     1       1.014   2.404  19.153  0.00  0.00    +0.000 A 
ATOM     15  C   UNL     1       1.858   1.830  18.203  0.00  0.00    +0.000 A 
ATOM     16  C   UNL     1       2.936   2.561  17.704  0.00  0.00    +0.000 A 
ATOM     17  C   UNL     1       3.171   3.868  18.155  0.00  0.00    +0.000 A 
ATOM     18  C   UNL     1       2.329   4.445  19.104  0.00  0.00    +0.000 A 
BRANCH  13  19
ATOM     19  O   UNL     1       0.455   4.294  20.525  0.00  0.00    +0.000 OA
ATOM     20  H   UNL     1       0.871   5.124  20.814  0.00  0.00    +0.000 HD
ENDBRANCH  13  19
ENDBRANCH   1  17
TORSDOF 4
ENDMDL
MODEL 5
REMARK VINA RESULT:      -6.7      6.401      8.526
REMARK  Name = 
REMARK  4 active torsions:
REMARK  status: ('A' for Active; 'I' for Inactive)
REMARK    1  A    between atoms: O_1  and  C_2
REMARK    2  A    between atoms: C_6  and  C_7
REMARK    3  A    between atoms: N_8  and  N_9
REMARK    4  A    between atoms: C_14  and  O_15
REMARK                            x       y       z     vdW  Elec       q    Type
REMARK                         _______ _______ _______ _____ _____    ______ ____
ROOT
ATOM      1  C   UNL     1       8.576  10.125  17.862  0.00  0.00    +0.000 C 
ATOM      2  N   UNL     1       8.380   8.869  18.081  0.00  0.00    +0.000 NA
ENDROOT
BRANCH   2   3
ATOM      3  N   UNL     1       7.493   8.224  17.293  0.00  0.00    +0.000 N 
ATOM      4  C   UNL     1       7.147   6.900  17.606  0.00  0.00    +0.000 A 
ATOM      5  C   UNL     1       7.723   6.271  18.700  0.00  0.00    +0.000 A 
ATOM      6  C   UNL     1       7.315   4.992  18.981  0.00  0.00    +0.000 A 
ATOM      7  N   UNL     1       6.419   4.329  18.234  0.00  0.00    +0.000 NA
ATOM      8  C   UNL     1       5.948   5.024  17.195  0.00  0.00    +0.000 A 
ATOM      9  N   UNL     1       6.244   6.273  16.830  0.00  0.00    +0.000 NA
ATOM     10  H   UNL     1       6.994   8.625  16.507  0.00  0.00    +0.000 HD
BRANCH   8  11
ATOM     11  O   UNL     1       5.063   4.329  16.434  0.00  0.00    +0.000 OA
ATOM     12  H   UNL     1       5.678   3.671  16.068  0.00  0.00    +0.000 HD
ENDBRANCH   8  11
ENDBRANCH   2   3
BRANCH   1  17
ATOM     13  C   UNL     1      10.166  11.799  20.823  0.00  0.00    +0.000 A 
ATOM     14  C   UNL     1      11.360  12.275  20.284  0.00  0.00    +0.000 A 
ATOM     15  C   UNL     1      11.649  12.044  18.939  0.00  0.00    +0.000 A 
ATOM     16  C   UNL     1      10.741  11.339  18.148  0.00  0.00    +0.000 A 
ATOM     17  C   UNL     1       9.542  10.865  18.701  0.00  0.00    +0.000 A 
ATOM     18  C   UNL     1       9.252  11.094  20.045  0.00  0.00    +0.000 A 
BRANCH  13  19
ATOM     19  O   UNL     1       9.850  12.010  22.132  0.00  0.00    +0.000 OA
ATOM     20  H   UNL     1       8.924  11.749  22.275  0.00  0.00    +0.000 HD
ENDBRANCH  13  19
ENDBRANCH   1  17
TORSDOF 4
ENDMDL
MODEL 6
REMARK VINA RESULT:      -6.6      2.485      7.152
REMARK  Name = 
REMARK  4 active torsions:
REMARK  status: ('A' for Active; 'I' for Inactive)
REMARK    1  A    between atoms: O_1  and  C_2
REMARK    2  A    between atoms: C_6  and  C_7
REMARK    3  A    between atoms: N_8  and  N_9
REMARK    4  A    between atoms: C_14  and  O_15
REMARK                            x       y       z     vdW  Elec       q    Type
REMARK                         _______ _______ _______ _____ _____    ______ ____
ROOT
ATOM      1  C   UNL     1       5.326   4.093  15.784  0.00  0.00    +0.000 C 
ATOM      2  N   UNL     1       5.657   4.865  16.764  0.00  0.00    +0.000 NA
ENDROOT
BRANCH   2   3
ATOM      3  N   UNL     1       4.983   4.729  17.927  0.00  0.00    +0.000 N 
ATOM      4  C   UNL     1       4.082   5.735  18.308  0.00  0.00    +0.000 A 
ATOM      5  C   UNL     1       3.907   6.852  17.505  0.00  0.00    +0.000 A 
ATOM      6  C   UNL     1       2.983   7.782  17.909  0.00  0.00    +0.000 A 
ATOM      7  N   UNL     1       2.279   7.669  19.046  0.00  0.00    +0.000 NA
ATOM      8  C   UNL     1       2.546   6.566  19.749  0.00  0.00    +0.000 A 
ATOM      9  N   UNL     1       3.397   5.581  19.456  0.00  0.00    +0.000 NA
ATOM     10  H   UNL     1       5.019   3.926  18.545  0.00  0.00    +0.000 HD
BRANCH   8  11
ATOM     11  O   UNL     1       1.845   6.480  20.910  0.00  0.00    +0.000 OA
ATOM     12  H   UNL     1       2.530   6.813  21.513  0.00  0.00    +0.000 HD
ENDBRANCH   8  11
ENDBRANCH   2   3
BRANCH   1  17
ATOM     13  C   UNL     1       7.806   5.168  13.179  0.00  0.00    +0.000 A 
ATOM     14  C   UNL     1       7.392   4.442  12.063  0.00  0.00    +0.000 A 
ATOM     15  C   UNL     1       6.293   3.590  12.165  0.00  0.00    +0.000 A 
ATOM     16  C   UNL     1       5.618   3.474  13.381  0.00  0.00    +0.000 A 
ATOM     17  C   UNL     1       6.044   4.209  14.497  0.00  0.00    +0.000 A 
ATOM     18  C   UNL     1       7.143   5.060  14.398  0.00  0.00    +0.000 A 
BRANCH  13  19
ATOM     19  O   UNL     1       8.874   6.013  13.114  0.00  0.00    +0.000 OA
ATOM     20  H   UNL     1       8.919   6.523  13.940  0.00  0.00    +0.000 HD
ENDBRANCH  13  19
ENDBRANCH   1  17
TORSDOF 4
ENDMDL
MODEL 7
REMARK VINA RESULT:      -6.6      2.287      7.020
REMARK  Name = 
REMARK  4 active torsions:
REMARK  status: ('A' for Active; 'I' for Inactive)
REMARK    1  A    between atoms: O_1  and  C_2
REMARK    2  A    between atoms: C_6  and  C_7
REMARK    3  A    between atoms: N_8  and  N_9
REMARK    4  A    between atoms: C_14  and  O_15
REMARK                            x       y       z     vdW  Elec       q    Type
REMARK                         _______ _______ _______ _____ _____    ______ ____
ROOT
ATOM      1  C   UNL     1       6.367   4.475  16.143  0.00  0.00    +0.000 C 
ATOM      2  N   UNL     1       5.427   3.759  16.663  0.00  0.00    +0.000 NA
ENDROOT
BRANCH   2   3
ATOM      3  N   UNL     1       5.245   3.836  17.999  0.00  0.00    +0.000 N 
ATOM      4  C   UNL     1       4.075   3.295  18.555  0.00  0.00    +0.000 A 
ATOM      5  C   UNL     1       3.123   2.708  17.734  0.00  0.00    +0.000 A 
ATOM      6  C   UNL     1       2.020   2.161  18.338  0.00  0.00    +0.000 A 
ATOM      7  N   UNL     1       1.817   2.197  19.664  0.00  0.00    +0.000 NA
ATOM      8  C   UNL     1       2.787   2.805  20.351  0.00  0.00    +0.000 A 
ATOM      9  N   UNL     1       3.913   3.354  19.889  0.00  0.00    +0.000 NA
ATOM     10  H   UNL     1       5.910   4.205  18.670  0.00  0.00    +0.000 HD
BRANCH   8  11
ATOM     11  O   UNL     1       2.553   2.858  21.688  0.00  0.00    +0.000 OA
ATOM     12  H   UNL     1       3.143   3.600  21.905  0.00  0.00    +0.000 HD
ENDBRANCH   8  11
ENDBRANCH   2   3
BRANCH   1  17
ATOM     13  C   UNL     1       6.061   3.509  12.529  0.00  0.00    +0.000 A 
ATOM     14  C   UNL     1       7.031   4.308  11.928  0.00  0.00    +0.000 A 
ATOM     15  C   UNL     1       7.791   5.175  12.713  0.00  0.00    +0.000 A 
ATOM     16  C   UNL     1       7.573   5.232  14.090  0.00  0.00    +0.000 A 
ATOM     17  C   UNL     1       6.594   4.423  14.684  0.00  0.00    +0.000 A 
ATOM     18  C   UNL     1       5.832   3.556  13.901  0.00  0.00    +0.000 A 
BRANCH  13  19
ATOM     19  O   UNL     1       5.303   2.647  11.793  0.00  0.00    +0.000 OA
ATOM     20  H   UNL     1       4.830   2.051  12.399  0.00  0.00    +0.000 HD
ENDBRANCH  13  19
ENDBRANCH   1  17
TORSDOF 4
ENDMDL
MODEL 8
REMARK VINA RESULT:      -6.6      2.029      7.267
REMARK  Name = 
REMARK  4 active torsions:
REMARK  status: ('A' for Active; 'I' for Inactive)
REMARK    1  A    between atoms: O_1  and  C_2
REMARK    2  A    between atoms: C_6  and  C_7
REMARK    3  A    between atoms: N_8  and  N_9
REMARK    4  A    between atoms: C_14  and  O_15
REMARK                            x       y       z     vdW  Elec       q    Type
REMARK                         _______ _______ _______ _____ _____    ______ ____
ROOT
ATOM      1  C   UNL     1       6.016   4.386  16.745  0.00  0.00    +0.000 C 
ATOM      2  N   UNL     1       5.125   3.567  17.192  0.00  0.00    +0.000 NA
ENDROOT
BRANCH   2   3
ATOM      3  N   UNL     1       4.855   3.592  18.515  0.00  0.00    +0.000 N 
ATOM      4  C   UNL     1       3.566   3.246  18.950  0.00  0.00    +0.000 A 
ATOM      5  C   UNL     1       2.591   2.899  18.026  0.00  0.00    +0.000 A 
ATOM      6  C   UNL     1       1.363   2.530  18.513  0.00  0.00    +0.000 A 
ATOM      7  N   UNL     1       1.066   2.521  19.821  0.00  0.00    +0.000 NA
ATOM      8  C   UNL     1       2.074   2.893  20.615  0.00  0.00    +0.000 A 
ATOM      9  N   UNL     1       3.313   3.250  20.271  0.00  0.00    +0.000 NA
ATOM     10  H   UNL     1       5.520   3.788  19.255  0.00  0.00    +0.000 HD
BRANCH   8  11
ATOM     11  O   UNL     1       1.749   2.905  21.934  0.00  0.00    +0.000 OA
ATOM     12  H   UNL     1       2.394   3.567  22.233  0.00  0.00    +0.000 HD
ENDBRANCH   8  11
ENDBRANCH   2   3
BRANCH   1  17
ATOM     13  C   UNL     1       7.681   5.173  13.474  0.00  0.00    +0.000 A 
ATOM     14  C   UNL     1       6.931   4.419  12.574  0.00  0.00    +0.000 A 
ATOM     15  C   UNL     1       5.871   3.642  13.043  0.00  0.00    +0.000 A 
ATOM     16  C   UNL     1       5.573   3.629  14.406  0.00  0.00    +0.000 A 
ATOM     17  C   UNL     1       6.336   4.392  15.302  0.00  0.00    +0.000 A 
ATOM     18  C   UNL     1       7.396   5.168  14.836  0.00  0.00    +0.000 A 
BRANCH  13  19
ATOM     19  O   UNL     1       8.721   5.946  13.050  0.00  0.00    +0.000 OA
ATOM     20  H   UNL     1       8.791   5.874  12.083  0.00  0.00    +0.000 HD
ENDBRANCH  13  19
ENDBRANCH   1  17
TORSDOF 4
ENDMDL
MODEL 9
REMARK VINA RESULT:      -6.5      6.555      8.730
REMARK  Name = 
REMARK  4 active torsions:
REMARK  status: ('A' for Active; 'I' for Inactive)
REMARK    1  A    between atoms: O_1  and  C_2
REMARK    2  A    between atoms: C_6  and  C_7
REMARK    3  A    between atoms: N_8  and  N_9
REMARK    4  A    between atoms: C_14  and  O_15
REMARK                            x       y       z     vdW  Elec       q    Type
REMARK                         _______ _______ _______ _____ _____    ______ ____
ROOT
ATOM      1  C   UNL     1       8.659  10.358  17.782  0.00  0.00    +0.000 C 
ATOM      2  N   UNL     1       8.338   9.172  18.178  0.00  0.00    +0.000 NA
ENDROOT
BRANCH   2   3
ATOM      3  N   UNL     1       7.776   8.339  17.277  0.00  0.00    +0.000 N 
ATOM      4  C   UNL     1       7.592   6.991  17.623  0.00  0.00    +0.000 A 
ATOM      5  C   UNL     1       7.999   6.532  18.868  0.00  0.00    +0.000 A 
ATOM      6  C   UNL     1       7.756   5.215  19.164  0.00  0.00    +0.000 A 
ATOM      7  N   UNL     1       7.179   4.364  18.302  0.00  0.00    +0.000 NA
ATOM      8  C   UNL     1       6.850   4.911  17.129  0.00  0.00    +0.000 A 
ATOM      9  N   UNL     1       7.009   6.173  16.728  0.00  0.00    +0.000 NA
ATOM     10  H   UNL     1       7.411   8.603  16.368  0.00  0.00    +0.000 HD
BRANCH   8  11
ATOM     11  O   UNL     1       6.291   4.030  16.258  0.00  0.00    +0.000 OA
ATOM     12  H   UNL     1       6.074   4.654  15.546  0.00  0.00    +0.000 HD
ENDBRANCH   8  11
ENDBRANCH   2   3
BRANCH   1  17
ATOM     13  C   UNL     1      10.250  13.441  19.215  0.00  0.00    +0.000 A 
ATOM     14  C   UNL     1      10.472  13.068  20.539  0.00  0.00    +0.000 A 
ATOM     15  C   UNL     1      10.095  11.796  20.969  0.00  0.00    +0.000 A 
ATOM     16  C   UNL     1       9.500  10.911  20.069  0.00  0.00    +0.000 A 
ATOM     17  C   UNL     1       9.281  11.297  18.739  0.00  0.00    +0.000 A 
ATOM     18  C   UNL     1       9.657  12.569  18.307  0.00  0.00    +0.000 A 
BRANCH  13  19
ATOM     19  O   UNL     1      10.610  14.675  18.760  0.00  0.00    +0.000 OA
ATOM     20  H   UNL     1      11.262  15.056  19.373  0.00  0.00    +0.000 HD
ENDBRANCH  13  19
ENDBRANCH   1  17
TORSDOF 4
ENDMDL
