MODEL 1
REMARK VINA RESULT:      -7.5      0.000      0.000
REMARK  Name = 
REMARK  3 active torsions:
REMARK  status: ('A' for Active; 'I' for Inactive)
REMARK    1  A    between atoms: C_2  and  O_3
REMARK    2  A    between atoms: C_2  and  C_4
REMARK    3  A    between atoms: N_7  and  C_8
REMARK                            x       y       z     vdW  Elec       q    Type
REMARK                         _______ _______ _______ _____ _____    ______ ____
ROOT
ATOM      1  C   UNL     1       4.612   4.985  18.194  0.00  0.00    +0.000 C 
ATOM      2  C   UNL     1       4.238   6.335  17.502  0.00  0.00    +0.000 C 
ATOM      3  C   UNL     1       5.323   6.770  16.495  0.00  0.00    +0.000 C 
ATOM      4  C   UNL     1       6.655   6.966  17.235  0.00  0.00    +0.000 C 
ATOM      5  C   UNL     1       7.068   5.654  17.921  0.00  0.00    +0.000 C 
ATOM      6  C   UNL     1       7.240   4.561  16.857  0.00  0.00    +0.000 C 
ATOM      7  C   UNL     1       5.925   4.365  16.088  0.00  0.00    +0.000 C 
ATOM      8  C   UNL     1       5.501   5.682  15.426  0.00  0.00    +0.000 C 
ATOM      9  C   UNL     1       4.834   3.921  17.076  0.00  0.00    +0.000 C 
ATOM     10  C   UNL     1       5.973   5.230  18.914  0.00  0.00    +0.000 C 
ENDROOT
BRANCH   1  14
ATOM     11  C   UNL     1       3.168   3.227  19.287  0.00  0.00    +0.000 C 
ATOM     12  C   UNL     1       1.725   3.738  19.482  0.00  0.00    +0.000 C 
ATOM     13  C   UNL     1       2.219   5.056  18.872  0.00  0.00    +0.000 C 
ATOM     14  N   UNL     1       3.603   4.674  19.246  0.00  0.00    +0.000 NA
BRANCH  11  16
ATOM     15  O   UNL     1       3.315   2.304  21.608  0.00  0.00    +0.000 OA
ATOM     16  C   UNL     1       3.795   2.429  20.486  0.00  0.00    +0.000 C 
BRANCH  16  17
ATOM     17  O   UNL     1       4.990   1.853  20.165  0.00  0.00    +0.000 OA
ATOM     18  H   UNL     1       4.826   1.267  19.394  0.00  0.00    +0.000 HD
ENDBRANCH  16  17
ENDBRANCH  11  16
ENDBRANCH   1  14
TORSDOF 3
ENDMDL
MODEL 2
REMARK VINA RESULT:      -7.5      0.300      1.833
REMARK  Name = 
REMARK  3 active torsions:
REMARK  status: ('A' for Active; 'I' for Inactive)
REMARK    1  A    between atoms: C_2  and  O_3
REMARK    2  A    between atoms: C_2  and  C_4
REMARK    3  A    between atoms: N_7  and  C_8
REMARK                            x       y       z     vdW  Elec       q    Type
REMARK                         _______ _______ _______ _____ _____    ______ ____
ROOT
ATOM      1  C   UNL     1       4.469   5.014  18.127  0.00  0.00    +0.000 C 
ATOM      2  C   UNL     1       5.784   5.218  18.947  0.00  0.00    +0.000 C 
ATOM      3  C   UNL     1       6.957   5.634  18.035  0.00  0.00    +0.000 C 
ATOM      4  C   UNL     1       7.209   4.533  16.995  0.00  0.00    +0.000 C 
ATOM      5  C   UNL     1       5.942   4.309  16.155  0.00  0.00    +0.000 C 
ATOM      6  C   UNL     1       5.581   5.612  15.430  0.00  0.00    +0.000 C 
ATOM      7  C   UNL     1       5.348   6.735  16.451  0.00  0.00    +0.000 C 
ATOM      8  C   UNL     1       6.605   6.938  17.305  0.00  0.00    +0.000 C 
ATOM      9  C   UNL     1       4.174   6.341  17.363  0.00  0.00    +0.000 C 
ATOM     10  C   UNL     1       4.781   3.904  17.079  0.00  0.00    +0.000 C 
ENDROOT
BRANCH   1  14
ATOM     11  C   UNL     1       3.295   2.982  19.055  0.00  0.00    +0.000 C 
ATOM     12  C   UNL     1       1.762   3.161  19.014  0.00  0.00    +0.000 C 
ATOM     13  C   UNL     1       2.044   4.555  18.438  0.00  0.00    +0.000 C 
ATOM     14  N   UNL     1       3.403   4.490  19.027  0.00  0.00    +0.000 NA
BRANCH  11  16
ATOM     15  O   UNL     1       3.386   2.375  21.481  0.00  0.00    +0.000 OA
ATOM     16  C   UNL     1       3.889   2.346  20.363  0.00  0.00    +0.000 C 
BRANCH  16  17
ATOM     17  O   UNL     1       5.084   1.724  20.147  0.00  0.00    +0.000 OA
ATOM     18  H   UNL     1       5.113   0.946  20.746  0.00  0.00    +0.000 HD
ENDBRANCH  16  17
ENDBRANCH  11  16
ENDBRANCH   1  14
TORSDOF 3
ENDMDL
MODEL 3
REMARK VINA RESULT:      -7.5      2.207      4.814
REMARK  Name = 
REMARK  3 active torsions:
REMARK  status: ('A' for Active; 'I' for Inactive)
REMARK    1  A    between atoms: C_2  and  O_3
REMARK    2  A    between atoms: C_2  and  C_4
REMARK    3  A    between atoms: N_7  and  C_8
REMARK                            x       y       z     vdW  Elec       q    Type
REMARK                         _______ _______ _______ _____ _____    ______ ____
ROOT
ATOM      1  C   UNL     1       3.940   4.451  17.956  0.00  0.00    +0.000 C 
ATOM      2  C   UNL     1       2.762   5.312  18.517  0.00  0.00    +0.000 C 
ATOM      3  C   UNL     1       1.765   4.448  19.316  0.00  0.00    +0.000 C 
ATOM      4  C   UNL     1       1.173   3.370  18.395  0.00  0.00    +0.000 C 
ATOM      5  C   UNL     1       2.299   2.490  17.832  0.00  0.00    +0.000 C 
ATOM      6  C   UNL     1       3.036   1.809  18.993  0.00  0.00    +0.000 C 
ATOM      7  C   UNL     1       3.617   2.870  19.940  0.00  0.00    +0.000 C 
ATOM      8  C   UNL     1       2.494   3.763  20.481  0.00  0.00    +0.000 C 
ATOM      9  C   UNL     1       4.622   3.734  19.161  0.00  0.00    +0.000 C 
ATOM     10  C   UNL     1       3.289   3.367  17.046  0.00  0.00    +0.000 C 
ENDROOT
BRANCH   1  14
ATOM     11  C   UNL     1       6.174   5.587  17.656  0.00  0.00    +0.000 C 
ATOM     12  C   UNL     1       5.995   7.042  17.173  0.00  0.00    +0.000 C 
ATOM     13  C   UNL     1       4.489   6.749  17.175  0.00  0.00    +0.000 C 
ATOM     14  N   UNL     1       4.802   5.301  17.087  0.00  0.00    +0.000 NA
BRANCH  11  16
ATOM     15  O   UNL     1       7.558   4.716  15.762  0.00  0.00    +0.000 OA
ATOM     16  C   UNL     1       7.313   4.755  16.963  0.00  0.00    +0.000 C 
BRANCH  16  17
ATOM     17  O   UNL     1       8.051   4.033  17.855  0.00  0.00    +0.000 OA
ATOM     18  H   UNL     1       8.962   3.978  17.492  0.00  0.00    +0.000 HD
ENDBRANCH  16  17
ENDBRANCH  11  16
ENDBRANCH   1  14
TORSDOF 3
ENDMDL
MODEL 4
REMARK VINA RESULT:      -7.5      2.278      4.901
REMARK  Name = 
REMARK  3 active torsions:
REMARK  status: ('A' for Active; 'I' for Inactive)
REMARK    1  A    between atoms: C_2  and  O_3
REMARK    2  A    between atoms: C_2  and  C_4
REMARK    3  A    between atoms: N_7  and  C_8
REMARK                            x       y       z     vdW  Elec       q    Type
REMARK                         _______ _______ _______ _____ _____    ______ ____
ROOT
ATOM      1  C   UNL     1       3.489   4.298  18.269  0.00  0.00    +0.000 C 
ATOM      2  C   UNL     1       3.500   4.990  19.670  0.00  0.00    +0.000 C 
ATOM      3  C   UNL     1       2.556   4.273  20.658  0.00  0.00    +0.000 C 
ATOM      4  C   UNL     1       1.121   4.317  20.114  0.00  0.00    +0.000 C 
ATOM      5  C   UNL     1       1.062   3.633  18.740  0.00  0.00    +0.000 C 
ATOM      6  C   UNL     1       1.500   2.169  18.886  0.00  0.00    +0.000 C 
ATOM      7  C   UNL     1       2.926   2.101  19.451  0.00  0.00    +0.000 C 
ATOM      8  C   UNL     1       2.987   2.807  20.811  0.00  0.00    +0.000 C 
ATOM      9  C   UNL     1       3.882   2.803  18.473  0.00  0.00    +0.000 C 
ATOM     10  C   UNL     1       2.014   4.353  17.769  0.00  0.00    +0.000 C 
ENDROOT
BRANCH   1  14
ATOM     11  C   UNL     1       5.745   5.305  17.749  0.00  0.00    +0.000 C 
ATOM     12  C   UNL     1       5.603   6.768  17.280  0.00  0.00    +0.000 C 
ATOM     13  C   UNL     1       4.091   6.562  17.429  0.00  0.00    +0.000 C 
ATOM     14  N   UNL     1       4.310   5.099  17.317  0.00  0.00    +0.000 NA
BRANCH  11  16
ATOM     15  O   UNL     1       7.979   4.386  17.099  0.00  0.00    +0.000 OA
ATOM     16  C   UNL     1       6.762   4.410  16.953  0.00  0.00    +0.000 C 
BRANCH  16  17
ATOM     17  O   UNL     1       6.149   3.616  16.027  0.00  0.00    +0.000 OA
ATOM     18  H   UNL     1       6.399   2.690  16.236  0.00  0.00    +0.000 HD
ENDBRANCH  16  17
ENDBRANCH  11  16
ENDBRANCH   1  14
TORSDOF 3
ENDMDL
MODEL 5
REMARK VINA RESULT:      -7.5      0.137      1.816
REMARK  Name = 
REMARK  3 active torsions:
REMARK  status: ('A' for Active; 'I' for Inactive)
REMARK    1  A    between atoms: C_2  and  O_3
REMARK    2  A    between atoms: C_2  and  C_4
REMARK    3  A    between atoms: N_7  and  C_8
REMARK                            x       y       z     vdW  Elec       q    Type
REMARK                         _______ _______ _______ _____ _____    ______ ____
ROOT
ATOM      1  C   UNL     1       4.722   5.022  18.292  0.00  0.00    +0.000 C 
ATOM      2  C   UNL     1       4.841   3.958  17.153  0.00  0.00    +0.000 C 
ATOM      3  C   UNL     1       5.880   4.383  16.094  0.00  0.00    +0.000 C 
ATOM      4  C   UNL     1       5.447   5.713  15.461  0.00  0.00    +0.000 C 
ATOM      5  C   UNL     1       5.329   6.794  16.547  0.00  0.00    +0.000 C 
ATOM      6  C   UNL     1       6.695   6.980  17.222  0.00  0.00    +0.000 C 
ATOM      7  C   UNL     1       7.159   5.654  17.843  0.00  0.00    +0.000 C 
ATOM      8  C   UNL     1       7.250   4.570  16.761  0.00  0.00    +0.000 C 
ATOM      9  C   UNL     1       6.140   5.221  18.909  0.00  0.00    +0.000 C 
ATOM     10  C   UNL     1       4.298   6.352  17.599  0.00  0.00    +0.000 C 
ENDROOT
BRANCH   1  14
ATOM     11  C   UNL     1       3.292   3.156  19.211  0.00  0.00    +0.000 C 
ATOM     12  C   UNL     1       1.802   3.557  19.230  0.00  0.00    +0.000 C 
ATOM     13  C   UNL     1       2.266   4.911  18.678  0.00  0.00    +0.000 C 
ATOM     14  N   UNL     1       3.620   4.632  19.216  0.00  0.00    +0.000 NA
BRANCH  11  16
ATOM     15  O   UNL     1       3.281   2.338  21.576  0.00  0.00    +0.000 OA
ATOM     16  C   UNL     1       3.829   2.401  20.480  0.00  0.00    +0.000 C 
BRANCH  16  17
ATOM     17  O   UNL     1       5.027   1.786  20.257  0.00  0.00    +0.000 OA
ATOM     18  H   UNL     1       4.861   1.067  19.609  0.00  0.00    +0.000 HD
ENDBRANCH  16  17
ENDBRANCH  11  16
ENDBRANCH   1  14
TORSDOF 3
ENDMDL
MODEL 6
REMARK VINA RESULT:      -7.4      2.279      4.759
REMARK  Name = 
REMARK  3 active torsions:
REMARK  status: ('A' for Active; 'I' for Inactive)
REMARK    1  A    between atoms: C_2  and  O_3
REMARK    2  A    between atoms: C_2  and  C_4
REMARK    3  A    between atoms: N_7  and  C_8
REMARK                            x       y       z     vdW  Elec       q    Type
REMARK                         _______ _______ _______ _____ _____    ______ ____
ROOT
ATOM      1  C   UNL     1       3.921   4.640  17.795  0.00  0.00    +0.000 C 
ATOM      2  C   UNL     1       3.470   3.415  16.935  0.00  0.00    +0.000 C 
ATOM      3  C   UNL     1       2.586   2.449  17.751  0.00  0.00    +0.000 C 
ATOM      4  C   UNL     1       3.384   1.921  18.952  0.00  0.00    +0.000 C 
ATOM      5  C   UNL     1       3.836   3.094  19.835  0.00  0.00    +0.000 C 
ATOM      6  C   UNL     1       2.600   3.848  20.345  0.00  0.00    +0.000 C 
ATOM      7  C   UNL     1       1.774   4.365  19.158  0.00  0.00    +0.000 C 
ATOM      8  C   UNL     1       1.346   3.195  18.264  0.00  0.00    +0.000 C 
ATOM      9  C   UNL     1       2.637   5.338  18.339  0.00  0.00    +0.000 C 
ATOM     10  C   UNL     1       4.708   4.052  19.005  0.00  0.00    +0.000 C 
ENDROOT
BRANCH   1  14
ATOM     11  C   UNL     1       6.262   5.561  17.598  0.00  0.00    +0.000 C 
ATOM     12  C   UNL     1       6.239   7.065  17.251  0.00  0.00    +0.000 C 
ATOM     13  C   UNL     1       4.711   6.930  17.228  0.00  0.00    +0.000 C 
ATOM     14  N   UNL     1       4.874   5.472  17.007  0.00  0.00    +0.000 NA
BRANCH  11  16
ATOM     15  O   UNL     1       7.400   4.543  15.615  0.00  0.00    +0.000 OA
ATOM     16  C   UNL     1       7.315   4.683  16.831  0.00  0.00    +0.000 C 
BRANCH  16  17
ATOM     17  O   UNL     1       8.180   4.046  17.673  0.00  0.00    +0.000 OA
ATOM     18  H   UNL     1       8.764   3.488  17.114  0.00  0.00    +0.000 HD
ENDBRANCH  16  17
ENDBRANCH  11  16
ENDBRANCH   1  14
TORSDOF 3
ENDMDL
MODEL 7
REMARK VINA RESULT:      -7.4      2.651      4.964
REMARK  Name = 
REMARK  3 active torsions:
REMARK  status: ('A' for Active; 'I' for Inactive)
REMARK    1  A    between atoms: C_2  and  O_3
REMARK    2  A    between atoms: C_2  and  C_4
REMARK    3  A    between atoms: N_7  and  C_8
REMARK                            x       y       z     vdW  Elec       q    Type
REMARK                         _______ _______ _______ _____ _____    ______ ____
ROOT
ATOM      1  C   UNL     1       4.384   4.476  18.160  0.00  0.00    +0.000 C 
ATOM      2  C   UNL     1       4.674   3.465  19.317  0.00  0.00    +0.000 C 
ATOM      3  C   UNL     1       3.387   2.745  19.770  0.00  0.00    +0.000 C 
ATOM      4  C   UNL     1       2.377   3.781  20.283  0.00  0.00    +0.000 C 
ATOM      5  C   UNL     1       2.052   4.790  19.170  0.00  0.00    +0.000 C 
ATOM      6  C   UNL     1       1.443   4.043  17.976  0.00  0.00    +0.000 C 
ATOM      7  C   UNL     1       2.428   2.983  17.460  0.00  0.00    +0.000 C 
ATOM      8  C   UNL     1       2.771   1.994  18.581  0.00  0.00    +0.000 C 
ATOM      9  C   UNL     1       3.714   3.686  16.994  0.00  0.00    +0.000 C 
ATOM     10  C   UNL     1       3.346   5.492  18.724  0.00  0.00    +0.000 C 
ENDROOT
BRANCH   1  14
ATOM     11  C   UNL     1       6.746   4.398  17.274  0.00  0.00    +0.000 C 
ATOM     12  C   UNL     1       7.709   5.178  18.194  0.00  0.00    +0.000 C 
ATOM     13  C   UNL     1       6.471   5.510  19.037  0.00  0.00    +0.000 C 
ATOM     14  N   UNL     1       5.627   5.237  17.848  0.00  0.00    +0.000 NA
BRANCH  11  16
ATOM     15  O   UNL     1       7.467   5.563  15.180  0.00  0.00    +0.000 OA
ATOM     16  C   UNL     1       6.938   4.601  15.728  0.00  0.00    +0.000 C 
BRANCH  16  17
ATOM     17  O   UNL     1       6.438   3.564  14.997  0.00  0.00    +0.000 OA
ATOM     18  H   UNL     1       5.772   3.943  14.382  0.00  0.00    +0.000 HD
ENDBRANCH  16  17
ENDBRANCH  11  16
ENDBRANCH   1  14
TORSDOF 3
ENDMDL
MODEL 8
REMARK VINA RESULT:      -7.4      2.200      4.698
REMARK  Name = 
REMARK  3 active torsions:
REMARK  status: ('A' for Active; 'I' for Inactive)
REMARK    1  A    between atoms: C_2  and  O_3
REMARK    2  A    between atoms: C_2  and  C_4
REMARK    3  A    between atoms: N_7  and  C_8
REMARK                            x       y       z     vdW  Elec       q    Type
REMARK                         _______ _______ _______ _____ _____    ______ ____
ROOT
ATOM      1  C   UNL     1       4.551   4.164  18.318  0.00  0.00    +0.000 C 
ATOM      2  C   UNL     1       3.769   5.514  18.410  0.00  0.00    +0.000 C 
ATOM      3  C   UNL     1       2.298   5.286  18.815  0.00  0.00    +0.000 C 
ATOM      4  C   UNL     1       1.610   4.407  17.760  0.00  0.00    +0.000 C 
ATOM      5  C   UNL     1       2.340   3.060  17.647  0.00  0.00    +0.000 C 
ATOM      6  C   UNL     1       2.294   2.345  19.004  0.00  0.00    +0.000 C 
ATOM      7  C   UNL     1       2.957   3.218  20.080  0.00  0.00    +0.000 C 
ATOM      8  C   UNL     1       2.242   4.572  20.173  0.00  0.00    +0.000 C 
ATOM      9  C   UNL     1       4.428   3.447  19.697  0.00  0.00    +0.000 C 
ATOM     10  C   UNL     1       3.807   3.305  17.251  0.00  0.00    +0.000 C 
ENDROOT
BRANCH   1  14
ATOM     11  C   UNL     1       6.425   5.831  18.035  0.00  0.00    +0.000 C 
ATOM     12  C   UNL     1       6.983   5.799  16.596  0.00  0.00    +0.000 C 
ATOM     13  C   UNL     1       5.969   4.676  16.338  0.00  0.00    +0.000 C 
ATOM     14  N   UNL     1       5.924   4.424  17.799  0.00  0.00    +0.000 NA
BRANCH  11  16
ATOM     15  O   UNL     1       7.543   5.200  20.183  0.00  0.00    +0.000 OA
ATOM     16  C   UNL     1       7.483   5.922  19.193  0.00  0.00    +0.000 C 
BRANCH  16  17
ATOM     17  O   UNL     1       8.383   6.930  19.002  0.00  0.00    +0.000 OA
ATOM     18  H   UNL     1       8.084   7.433  18.214  0.00  0.00    +0.000 HD
ENDBRANCH  16  17
ENDBRANCH  11  16
ENDBRANCH   1  14
TORSDOF 3
ENDMDL
MODEL 9
REMARK VINA RESULT:      -7.4      2.209      4.762
REMARK  Name = 
REMARK  3 active torsions:
REMARK  status: ('A' for Active; 'I' for Inactive)
REMARK    1  A    between atoms: C_2  and  O_3
REMARK    2  A    between atoms: C_2  and  C_4
REMARK    3  A    between atoms: N_7  and  C_8
REMARK                            x       y       z     vdW  Elec       q    Type
REMARK                         _______ _______ _______ _____ _____    ______ ____
ROOT
ATOM      1  C   UNL     1       4.591   4.179  18.439  0.00  0.00    +0.000 C 
ATOM      2  C   UNL     1       3.696   3.674  17.261  0.00  0.00    +0.000 C 
ATOM      3  C   UNL     1       2.255   3.388  17.732  0.00  0.00    +0.000 C 
ATOM      4  C   UNL     1       2.281   2.298  18.813  0.00  0.00    +0.000 C 
ATOM      5  C   UNL     1       3.141   2.759  20.000  0.00  0.00    +0.000 C 
ATOM      6  C   UNL     1       2.538   4.040  20.592  0.00  0.00    +0.000 C 
ATOM      7  C   UNL     1       2.481   5.138  19.520  0.00  0.00    +0.000 C 
ATOM      8  C   UNL     1       1.643   4.665  18.326  0.00  0.00    +0.000 C 
ATOM      9  C   UNL     1       3.911   5.444  19.046  0.00  0.00    +0.000 C 
ATOM     10  C   UNL     1       4.571   3.049  19.512  0.00  0.00    +0.000 C 
ENDROOT
BRANCH   1  14
ATOM     11  C   UNL     1       6.551   5.721  18.050  0.00  0.00    +0.000 C 
ATOM     12  C   UNL     1       7.174   5.486  16.658  0.00  0.00    +0.000 C 
ATOM     13  C   UNL     1       6.124   4.381  16.488  0.00  0.00    +0.000 C 
ATOM     14  N   UNL     1       5.998   4.316  17.965  0.00  0.00    +0.000 NA
BRANCH  11  16
ATOM     15  O   UNL     1       7.597   5.256  20.275  0.00  0.00    +0.000 OA
ATOM     16  C   UNL     1       7.556   5.915  19.242  0.00  0.00    +0.000 C 
BRANCH  16  17
ATOM     17  O   UNL     1       8.432   6.939  19.027  0.00  0.00    +0.000 OA
ATOM     18  H   UNL     1       8.822   7.169  19.899  0.00  0.00    +0.000 HD
ENDBRANCH  16  17
ENDBRANCH  11  16
ENDBRANCH   1  14
TORSDOF 3
ENDMDL
