MODEL 1
REMARK VINA RESULT:      -5.7      0.000      0.000
REMARK  Name = 
REMARK  5 active torsions:
REMARK  status: ('A' for Active; 'I' for Inactive)
REMARK    1  A    between atoms: N_1  and  C_2
REMARK    2  A    between atoms: C_2  and  P_3
REMARK    3  A    between atoms: P_3  and  O_5
REMARK    4  A    between atoms: P_3  and  C_6
REMARK    5  A    between atoms: C_6  and  N_7
REMARK                            x       y       z     vdW  Elec       q    Type
REMARK                         _______ _______ _______ _____ _____    ______ ____
ROOT
ATOM      1  P   UNL     1       6.893   5.372  17.671  0.00  0.00    +0.000 P 
ATOM      2  O   UNL     1       7.528   6.195  16.532  0.00  0.00    +0.000 OA
ENDROOT
BRANCH   1   3
ATOM      3  O   UNL     1       7.925   4.065  17.822  0.00  0.00    +0.000 OA
ATOM      4  H   UNL     1       8.043   3.860  18.768  0.00  0.00    +0.000 HD
ENDBRANCH   1   3
BRANCH   1   5
ATOM      5  C   UNL     1       7.919   6.289  18.878  0.00  0.00    +0.000 C 
BRANCH   5   6
ATOM      6  N   UNL     1       7.865   5.510  20.124  0.00  0.00    +0.000 NA
ATOM      7  H   UNL     1       7.003   5.739  20.618  0.00  0.00    +0.000 HD
ATOM      8  H   UNL     1       8.632   5.828  20.722  0.00  0.00    +0.000 HD
ENDBRANCH   5   6
ENDBRANCH   1   5
BRANCH   1   9
ATOM      9  C   UNL     1       5.868   4.454  16.465  0.00  0.00    +0.000 C 
BRANCH   9  10
ATOM     10  N   UNL     1       4.420   4.696  16.728  0.00  0.00    +0.000 NA
ATOM     11  C   UNL     1       3.732   3.491  17.223  0.00  0.00    +0.000 C 
ATOM     12  C   UNL     1       2.258   3.776  17.552  0.00  0.00    +0.000 C 
ATOM     13  C   UNL     1       2.125   4.891  18.581  0.00  0.00    +0.000 C 
ATOM     14  C   UNL     1       2.872   6.125  18.103  0.00  0.00    +0.000 C 
ATOM     15  C   UNL     1       4.318   5.785  17.727  0.00  0.00    +0.000 C 
ENDBRANCH   9  10
ENDBRANCH   1   9
TORSDOF 5
ENDMDL
MODEL 2
REMARK VINA RESULT:      -5.4      1.769      2.967
REMARK  Name = 
REMARK  5 active torsions:
REMARK  status: ('A' for Active; 'I' for Inactive)
REMARK    1  A    between atoms: N_1  and  C_2
REMARK    2  A    between atoms: C_2  and  P_3
REMARK    3  A    between atoms: P_3  and  O_5
REMARK    4  A    between atoms: P_3  and  C_6
REMARK    5  A    between atoms: C_6  and  N_7
REMARK                            x       y       z     vdW  Elec       q    Type
REMARK                         _______ _______ _______ _____ _____    ______ ____
ROOT
ATOM      1  P   UNL     1       6.361   4.695  16.294  0.00  0.00    +0.000 P 
ATOM      2  O   UNL     1       7.862   4.481  16.575  0.00  0.00    +0.000 OA
ENDROOT
BRANCH   1   3
ATOM      3  O   UNL     1       6.234   6.354  16.129  0.00  0.00    +0.000 OA
ATOM      4  H   UNL     1       7.096   6.762  16.331  0.00  0.00    +0.000 HD
ENDBRANCH   1   3
BRANCH   1   5
ATOM      5  C   UNL     1       6.700   4.569  14.500  0.00  0.00    +0.000 C 
BRANCH   5   6
ATOM      6  N   UNL     1       7.804   5.502  14.233  0.00  0.00    +0.000 NA
ATOM      7  H   UNL     1       8.555   5.323  14.899  0.00  0.00    +0.000 HD
ATOM      8  H   UNL     1       7.466   6.448  14.426  0.00  0.00    +0.000 HD
ENDBRANCH   5   6
ENDBRANCH   1   5
BRANCH   1   9
ATOM      9  C   UNL     1       6.022   4.822  18.088  0.00  0.00    +0.000 C 
BRANCH   9  10
ATOM     10  N   UNL     1       4.617   4.418  18.377  0.00  0.00    +0.000 NA
ATOM     11  C   UNL     1       3.752   5.573  18.677  0.00  0.00    +0.000 C 
ATOM     12  C   UNL     1       2.294   5.143  18.907  0.00  0.00    +0.000 C 
ATOM     13  C   UNL     1       1.739   4.397  17.701  0.00  0.00    +0.000 C 
ATOM     14  C   UNL     1       2.649   3.232  17.352  0.00  0.00    +0.000 C 
ATOM     15  C   UNL     1       4.102   3.692  17.193  0.00  0.00    +0.000 C 
ENDBRANCH   9  10
ENDBRANCH   1   9
TORSDOF 5
ENDMDL
MODEL 3
REMARK VINA RESULT:      -5.3      2.093      2.850
REMARK  Name = 
REMARK  5 active torsions:
REMARK  status: ('A' for Active; 'I' for Inactive)
REMARK    1  A    between atoms: N_1  and  C_2
REMARK    2  A    between atoms: C_2  and  P_3
REMARK    3  A    between atoms: P_3  and  O_5
REMARK    4  A    between atoms: P_3  and  C_6
REMARK    5  A    between atoms: C_6  and  N_7
REMARK                            x       y       z     vdW  Elec       q    Type
REMARK                         _______ _______ _______ _____ _____    ______ ____
ROOT
ATOM      1  P   UNL     1       5.532   4.896  18.014  0.00  0.00    +0.000 P 
ATOM      2  O   UNL     1       6.707   4.588  18.965  0.00  0.00    +0.000 OA
ENDROOT
BRANCH   1   3
ATOM      3  O   UNL     1       5.769   6.503  17.619  0.00  0.00    +0.000 OA
ATOM      4  H   UNL     1       5.035   7.032  17.983  0.00  0.00    +0.000 HD
ENDBRANCH   1   3
BRANCH   1   5
ATOM      5  C   UNL     1       6.585   4.420  16.594  0.00  0.00    +0.000 C 
BRANCH   5   6
ATOM      6  N   UNL     1       7.932   4.209  17.144  0.00  0.00    +0.000 NA
ATOM      7  H   UNL     1       7.847   3.831  18.087  0.00  0.00    +0.000 HD
ATOM      8  H   UNL     1       8.375   5.127  17.241  0.00  0.00    +0.000 HD
ENDBRANCH   5   6
ENDBRANCH   1   5
BRANCH   1   9
ATOM      9  C   UNL     1       4.480   5.372  19.432  0.00  0.00    +0.000 C 
BRANCH   9  10
ATOM     10  N   UNL     1       3.078   4.917  19.211  0.00  0.00    +0.000 NA
ATOM     11  C   UNL     1       3.007   3.715  18.361  0.00  0.00    +0.000 C 
ATOM     12  C   UNL     1       1.561   3.221  18.199  0.00  0.00    +0.000 C 
ATOM     13  C   UNL     1       0.921   2.923  19.549  0.00  0.00    +0.000 C 
ATOM     14  C   UNL     1       1.032   4.140  20.451  0.00  0.00    +0.000 C 
ATOM     15  C   UNL     1       2.478   4.637  20.536  0.00  0.00    +0.000 C 
ENDBRANCH   9  10
ENDBRANCH   1   9
TORSDOF 5
ENDMDL
MODEL 4
REMARK VINA RESULT:      -5.3      1.339      1.339
REMARK  Name = 
REMARK  5 active torsions:
REMARK  status: ('A' for Active; 'I' for Inactive)
REMARK    1  A    between atoms: N_1  and  C_2
REMARK    2  A    between atoms: C_2  and  P_3
REMARK    3  A    between atoms: P_3  and  O_5
REMARK    4  A    between atoms: P_3  and  C_6
REMARK    5  A    between atoms: C_6  and  N_7
REMARK                            x       y       z     vdW  Elec       q    Type
REMARK                         _______ _______ _______ _____ _____    ______ ____
ROOT
ATOM      1  P   UNL     1       6.480   5.160  17.193  0.00  0.00    +0.000 P 
ATOM      2  O   UNL     1       7.576   4.952  16.128  0.00  0.00    +0.000 OA
ENDROOT
BRANCH   1   3
ATOM      3  O   UNL     1       6.918   4.099  18.408  0.00  0.00    +0.000 OA
ATOM      4  H   UNL     1       6.677   4.484  19.271  0.00  0.00    +0.000 HD
ENDBRANCH   1   3
BRANCH   1   5
ATOM      5  C   UNL     1       7.516   6.447  17.980  0.00  0.00    +0.000 C 
BRANCH   5   6
ATOM      6  N   UNL     1       7.434   7.623  17.100  0.00  0.00    +0.000 NA
ATOM      7  H   UNL     1       6.732   8.263  17.471  0.00  0.00    +0.000 HD
ATOM      8  H   UNL     1       7.084   7.308  16.192  0.00  0.00    +0.000 HD
ENDBRANCH   5   6
ENDBRANCH   1   5
BRANCH   1   9
ATOM      9  C   UNL     1       5.444   3.873  16.408  0.00  0.00    +0.000 C 
BRANCH   9  10
ATOM     10  N   UNL     1       4.012   4.065  16.780  0.00  0.00    +0.000 NA
ATOM     11  C   UNL     1       3.493   2.954  17.598  0.00  0.00    +0.000 C 
ATOM     12  C   UNL     1       2.038   3.201  18.027  0.00  0.00    +0.000 C 
ATOM     13  C   UNL     1       1.902   4.505  18.802  0.00  0.00    +0.000 C 
ATOM     14  C   UNL     1       2.479   5.650  17.988  0.00  0.00    +0.000 C 
ATOM     15  C   UNL     1       3.906   5.339  17.528  0.00  0.00    +0.000 C 
ENDBRANCH   9  10
ENDBRANCH   1   9
TORSDOF 5
ENDMDL
MODEL 5
REMARK VINA RESULT:      -5.2      2.472      2.996
REMARK  Name = 
REMARK  5 active torsions:
REMARK  status: ('A' for Active; 'I' for Inactive)
REMARK    1  A    between atoms: N_1  and  C_2
REMARK    2  A    between atoms: C_2  and  P_3
REMARK    3  A    between atoms: P_3  and  O_5
REMARK    4  A    between atoms: P_3  and  C_6
REMARK    5  A    between atoms: C_6  and  N_7
REMARK                            x       y       z     vdW  Elec       q    Type
REMARK                         _______ _______ _______ _____ _____    ______ ____
ROOT
ATOM      1  P   UNL     1       5.402   4.621  17.784  0.00  0.00    +0.000 P 
ATOM      2  O   UNL     1       4.977   5.838  16.938  0.00  0.00    +0.000 OA
ENDROOT
BRANCH   1   3
ATOM      3  O   UNL     1       5.896   3.509  16.636  0.00  0.00    +0.000 OA
ATOM      4  H   UNL     1       6.846   3.329  16.755  0.00  0.00    +0.000 HD
ENDBRANCH   1   3
BRANCH   1   5
ATOM      5  C   UNL     1       7.108   5.281  17.839  0.00  0.00    +0.000 C 
BRANCH   5   6
ATOM      6  N   UNL     1       7.969   4.218  17.299  0.00  0.00    +0.000 NA
ATOM      7  H   UNL     1       7.632   3.960  16.373  0.00  0.00    +0.000 HD
ATOM      8  H   UNL     1       7.848   3.391  17.890  0.00  0.00    +0.000 HD
ENDBRANCH   5   6
ENDBRANCH   1   5
BRANCH   1   9
ATOM      9  C   UNL     1       3.697   3.960  17.728  0.00  0.00    +0.000 C 
BRANCH   9  10
ATOM     10  N   UNL     1       3.080   4.009  19.085  0.00  0.00    +0.000 NA
ATOM     11  C   UNL     1       1.616   4.169  19.028  0.00  0.00    +0.000 C 
ATOM     12  C   UNL     1       0.991   4.151  20.432  0.00  0.00    +0.000 C 
ATOM     13  C   UNL     1       1.329   2.864  21.173  0.00  0.00    +0.000 C 
ATOM     14  C   UNL     1       2.835   2.664  21.195  0.00  0.00    +0.000 C 
ATOM     15  C   UNL     1       3.426   2.751  19.785  0.00  0.00    +0.000 C 
ENDBRANCH   9  10
ENDBRANCH   1   9
TORSDOF 5
ENDMDL
MODEL 6
REMARK VINA RESULT:      -5.2      2.129      2.873
REMARK  Name = 
REMARK  5 active torsions:
REMARK  status: ('A' for Active; 'I' for Inactive)
REMARK    1  A    between atoms: N_1  and  C_2
REMARK    2  A    between atoms: C_2  and  P_3
REMARK    3  A    between atoms: P_3  and  O_5
REMARK    4  A    between atoms: P_3  and  C_6
REMARK    5  A    between atoms: C_6  and  N_7
REMARK                            x       y       z     vdW  Elec       q    Type
REMARK                         _______ _______ _______ _____ _____    ______ ____
ROOT
ATOM      1  P   UNL     1       5.529   4.607  17.303  0.00  0.00    +0.000 P 
ATOM      2  O   UNL     1       5.887   3.746  16.075  0.00  0.00    +0.000 OA
ENDROOT
BRANCH   1   3
ATOM      3  O   UNL     1       5.785   3.569  18.589  0.00  0.00    +0.000 OA
ATOM      4  H   UNL     1       5.747   4.076  19.421  0.00  0.00    +0.000 HD
ENDBRANCH   1   3
BRANCH   1   5
ATOM      5  C   UNL     1       7.277   5.137  17.417  0.00  0.00    +0.000 C 
BRANCH   5   6
ATOM      6  N   UNL     1       7.424   6.245  16.461  0.00  0.00    +0.000 NA
ATOM      7  H   UNL     1       7.710   7.081  16.968  0.00  0.00    +0.000 HD
ATOM      8  H   UNL     1       6.499   6.445  16.072  0.00  0.00    +0.000 HD
ENDBRANCH   5   6
ENDBRANCH   1   5
BRANCH   1   9
ATOM      9  C   UNL     1       3.781   4.078  17.191  0.00  0.00    +0.000 C 
BRANCH   9  10
ATOM     10  N   UNL     1       3.204   3.909  18.556  0.00  0.00    +0.000 NA
ATOM     11  C   UNL     1       2.741   5.185  19.130  0.00  0.00    +0.000 C 
ATOM     12  C   UNL     1       2.090   4.982  20.507  0.00  0.00    +0.000 C 
ATOM     13  C   UNL     1       0.920   4.011  20.430  0.00  0.00    +0.000 C 
ATOM     14  C   UNL     1       1.374   2.708  19.794  0.00  0.00    +0.000 C 
ATOM     15  C   UNL     1       2.073   2.959  18.455  0.00  0.00    +0.000 C 
ENDBRANCH   9  10
ENDBRANCH   1   9
TORSDOF 5
ENDMDL
MODEL 7
REMARK VINA RESULT:      -5.2      2.408      2.901
REMARK  Name = 
REMARK  5 active torsions:
REMARK  status: ('A' for Active; 'I' for Inactive)
REMARK    1  A    between atoms: N_1  and  C_2
REMARK    2  A    between atoms: C_2  and  P_3
REMARK    3  A    between atoms: P_3  and  O_5
REMARK    4  A    between atoms: P_3  and  C_6
REMARK    5  A    between atoms: C_6  and  N_7
REMARK                            x       y       z     vdW  Elec       q    Type
REMARK                         _______ _______ _______ _____ _____    ______ ____
ROOT
ATOM      1  P   UNL     1       5.281   4.326  17.636  0.00  0.00    +0.000 P 
ATOM      2  O   UNL     1       4.974   5.714  17.037  0.00  0.00    +0.000 OA
ENDROOT
BRANCH   1   3
ATOM      3  O   UNL     1       5.945   3.491  16.349  0.00  0.00    +0.000 OA
ATOM      4  H   UNL     1       5.235   3.249  15.726  0.00  0.00    +0.000 HD
ENDBRANCH   1   3
BRANCH   1   5
ATOM      5  C   UNL     1       6.956   4.913  18.085  0.00  0.00    +0.000 C 
BRANCH   5   6
ATOM      6  N   UNL     1       7.881   4.225  17.172  0.00  0.00    +0.000 NA
ATOM      7  H   UNL     1       8.680   3.886  17.707  0.00  0.00    +0.000 HD
ATOM      8  H   UNL     1       8.247   4.921  16.518  0.00  0.00    +0.000 HD
ENDBRANCH   5   6
ENDBRANCH   1   5
BRANCH   1   9
ATOM      9  C   UNL     1       3.608   3.739  17.187  0.00  0.00    +0.000 C 
BRANCH   9  10
ATOM     10  N   UNL     1       2.952   3.101  18.365  0.00  0.00    +0.000 NA
ATOM     11  C   UNL     1       3.578   3.498  19.638  0.00  0.00    +0.000 C 
ATOM     12  C   UNL     1       2.848   2.885  20.843  0.00  0.00    +0.000 C 
ATOM     13  C   UNL     1       1.377   3.280  20.861  0.00  0.00    +0.000 C 
ATOM     14  C   UNL     1       0.732   2.919  19.533  0.00  0.00    +0.000 C 
ATOM     15  C   UNL     1       1.524   3.497  18.357  0.00  0.00    +0.000 C 
ENDBRANCH   9  10
ENDBRANCH   1   9
TORSDOF 5
ENDMDL
MODEL 8
REMARK VINA RESULT:      -5.2      1.560      2.965
REMARK  Name = 
REMARK  5 active torsions:
REMARK  status: ('A' for Active; 'I' for Inactive)
REMARK    1  A    between atoms: N_1  and  C_2
REMARK    2  A    between atoms: C_2  and  P_3
REMARK    3  A    between atoms: P_3  and  O_5
REMARK    4  A    between atoms: P_3  and  C_6
REMARK    5  A    between atoms: C_6  and  N_7
REMARK                            x       y       z     vdW  Elec       q    Type
REMARK                         _______ _______ _______ _____ _____    ______ ____
ROOT
ATOM      1  P   UNL     1       6.783   5.101  16.693  0.00  0.00    +0.000 P 
ATOM      2  O   UNL     1       8.009   4.212  16.985  0.00  0.00    +0.000 OA
ENDROOT
BRANCH   1   3
ATOM      3  O   UNL     1       7.443   6.630  16.545  0.00  0.00    +0.000 OA
ATOM      4  H   UNL     1       8.161   6.731  17.197  0.00  0.00    +0.000 HD
ENDBRANCH   1   3
BRANCH   1   5
ATOM      5  C   UNL     1       7.048   4.842  14.900  0.00  0.00    +0.000 C 
BRANCH   5   6
ATOM      6  N   UNL     1       6.343   3.596  14.565  0.00  0.00    +0.000 NA
ATOM      7  H   UNL     1       6.317   3.000  15.392  0.00  0.00    +0.000 HD
ATOM      8  H   UNL     1       6.906   3.098  13.870  0.00  0.00    +0.000 HD
ENDBRANCH   5   6
ENDBRANCH   1   5
BRANCH   1   9
ATOM      9  C   UNL     1       6.518   5.360  18.484  0.00  0.00    +0.000 C 
BRANCH   9  10
ATOM     10  N   UNL     1       5.059   5.385  18.792  0.00  0.00    +0.000 NA
ATOM     11  C   UNL     1       4.315   6.294  17.902  0.00  0.00    +0.000 C 
ATOM     12  C   UNL     1       2.806   6.257  18.190  0.00  0.00    +0.000 C 
ATOM     13  C   UNL     1       2.249   4.846  18.049  0.00  0.00    +0.000 C 
ATOM     14  C   UNL     1       3.041   3.891  18.925  0.00  0.00    +0.000 C 
ATOM     15  C   UNL     1       4.543   4.004  18.651  0.00  0.00    +0.000 C 
ENDBRANCH   9  10
ENDBRANCH   1   9
TORSDOF 5
ENDMDL
MODEL 9
REMARK VINA RESULT:      -5.1      2.959      4.361
REMARK  Name = 
REMARK  5 active torsions:
REMARK  status: ('A' for Active; 'I' for Inactive)
REMARK    1  A    between atoms: N_1  and  C_2
REMARK    2  A    between atoms: C_2  and  P_3
REMARK    3  A    between atoms: P_3  and  O_5
REMARK    4  A    between atoms: P_3  and  C_6
REMARK    5  A    between atoms: C_6  and  N_7
REMARK                            x       y       z     vdW  Elec       q    Type
REMARK                         _______ _______ _______ _____ _____    ______ ____
ROOT
ATOM      1  P   UNL     1       4.214   3.390  18.979  0.00  0.00    +0.000 P 
ATOM      2  O   UNL     1       3.196   3.940  19.998  0.00  0.00    +0.000 OA
ENDROOT
BRANCH   1   3
ATOM      3  O   UNL     1       5.204   2.416  19.911  0.00  0.00    +0.000 OA
ATOM      4  H   UNL     1       5.441   2.892  20.728  0.00  0.00    +0.000 HD
ENDBRANCH   1   3
BRANCH   1   5
ATOM      5  C   UNL     1       3.117   1.953  18.690  0.00  0.00    +0.000 C 
BRANCH   5   6
ATOM      6  N   UNL     1       4.006   0.828  18.363  0.00  0.00    +0.000 NA
ATOM      7  H   UNL     1       4.799   0.838  19.004  0.00  0.00    +0.000 HD
ATOM      8  H   UNL     1       4.389   0.995  17.429  0.00  0.00    +0.000 HD
ENDBRANCH   5   6
ENDBRANCH   1   5
BRANCH   1   9
ATOM      9  C   UNL     1       5.311   4.825  19.268  0.00  0.00    +0.000 C 
BRANCH   9  10
ATOM     10  N   UNL     1       5.822   5.353  17.971  0.00  0.00    +0.000 NA
ATOM     11  C   UNL     1       6.476   4.311  17.160  0.00  0.00    +0.000 C 
ATOM     12  C   UNL     1       6.936   4.858  15.799  0.00  0.00    +0.000 C 
ATOM     13  C   UNL     1       5.771   5.449  15.016  0.00  0.00    +0.000 C 
ATOM     14  C   UNL     1       5.059   6.492  15.861  0.00  0.00    +0.000 C 
ATOM     15  C   UNL     1       4.673   5.925  17.231  0.00  0.00    +0.000 C 
ENDBRANCH   9  10
ENDBRANCH   1   9
TORSDOF 5
ENDMDL
