MODEL 1
REMARK VINA RESULT:      -6.9      0.000      0.000
REMARK  Name = 
REMARK  4 active torsions:
REMARK  status: ('A' for Active; 'I' for Inactive)
REMARK    1  A    between atoms: C_1  and  C_2
REMARK    2  A    between atoms: N_4  and  C_5
REMARK    3  A    between atoms: C_5  and  C_6
REMARK    4  A    between atoms: N_11  and  C_12
REMARK                            x       y       z     vdW  Elec       q    Type
REMARK                         _______ _______ _______ _____ _____    ______ ____
ROOT
ATOM      1  C   UNL     1       5.736   3.731  15.371  0.00  0.00    +0.000 C 
ATOM      2  C   UNL     1       6.024   4.488  16.629  0.00  0.00    +0.000 A 
ATOM      3  N   UNL     1       7.097   5.218  16.760  0.00  0.00    +0.000 NA
ATOM      4  N   UNL     1       6.926   5.844  17.975  0.00  0.00    +0.000 N 
ATOM      5  C   UNL     1       5.741   5.415  18.581  0.00  0.00    +0.000 A 
ATOM      6  O   UNL     1       5.347   5.718  19.700  0.00  0.00    +0.000 OA
ATOM      7  N   UNL     1       5.169   4.533  17.679  0.00  0.00    +0.000 N 
ENDROOT
BRANCH   7   8
ATOM      8  C   UNL     1       3.929   3.890  17.847  0.00  0.00    +0.000 A 
ATOM      9  C   UNL     1       3.894   2.553  18.264  0.00  0.00    +0.000 A 
ATOM     10  C   UNL     1       2.673   1.927  18.540  0.00  0.00    +0.000 A 
ATOM     11  C   UNL     1       1.487   2.626  18.354  0.00  0.00    +0.000 A 
ATOM     12  F   UNL     1       0.320   2.030  18.635  0.00  0.00    +0.000 F 
ATOM     13  C   UNL     1       1.497   3.930  17.882  0.00  0.00    +0.000 A 
ATOM     14  C   UNL     1       2.717   4.563  17.631  0.00  0.00    +0.000 A 
ENDBRANCH   7   8
BRANCH   4  15
ATOM     15  C   UNL     1       7.953   6.626  18.621  0.00  0.00    +0.000 C 
BRANCH  15  16
ATOM     16  C   UNL     1       8.342   7.842  17.834  0.00  0.00    +0.000 C 
ATOM     17  C   UNL     1       7.459   9.061  17.698  0.00  0.00    +0.000 C 
ATOM     18  C   UNL     1       8.670   9.114  18.582  0.00  0.00    +0.000 C 
ENDBRANCH  15  16
ENDBRANCH   4  15
TORSDOF 3
ENDMDL
MODEL 2
REMARK VINA RESULT:      -6.9      2.944      6.221
REMARK  Name = 
REMARK  4 active torsions:
REMARK  status: ('A' for Active; 'I' for Inactive)
REMARK    1  A    between atoms: C_1  and  C_2
REMARK    2  A    between atoms: N_4  and  C_5
REMARK    3  A    between atoms: C_5  and  C_6
REMARK    4  A    between atoms: N_11  and  C_12
REMARK                            x       y       z     vdW  Elec       q    Type
REMARK                         _______ _______ _______ _____ _____    ______ ____
ROOT
ATOM      1  C   UNL     1       5.605   3.824  15.604  0.00  0.00    +0.000 C 
ATOM      2  C   UNL     1       4.571   4.207  16.616  0.00  0.00    +0.000 A 
ATOM      3  N   UNL     1       3.403   3.630  16.657  0.00  0.00    +0.000 NA
ATOM      4  N   UNL     1       2.813   4.152  17.787  0.00  0.00    +0.000 N 
ATOM      5  C   UNL     1       3.653   5.101  18.380  0.00  0.00    +0.000 A 
ATOM      6  O   UNL     1       3.386   5.804  19.346  0.00  0.00    +0.000 OA
ATOM      7  N   UNL     1       4.797   5.114  17.598  0.00  0.00    +0.000 N 
ENDROOT
BRANCH   7   8
ATOM      8  C   UNL     1       5.944   5.888  17.851  0.00  0.00    +0.000 A 
ATOM      9  C   UNL     1       6.121   7.103  17.177  0.00  0.00    +0.000 A 
ATOM     10  C   UNL     1       7.199   7.938  17.491  0.00  0.00    +0.000 A 
ATOM     11  C   UNL     1       8.124   7.535  18.445  0.00  0.00    +0.000 A 
ATOM     12  F   UNL     1       9.146   8.343  18.756  0.00  0.00    +0.000 F 
ATOM     13  C   UNL     1       8.002   6.306  19.078  0.00  0.00    +0.000 A 
ATOM     14  C   UNL     1       6.911   5.484  18.783  0.00  0.00    +0.000 A 
ENDBRANCH   7   8
BRANCH   4  15
ATOM     15  C   UNL     1       1.432   3.930  18.141  0.00  0.00    +0.000 C 
BRANCH  15  16
ATOM     16  C   UNL     1       1.258   2.832  19.147  0.00  0.00    +0.000 C 
ATOM     17  C   UNL     1       2.254   2.548  20.248  0.00  0.00    +0.000 C 
ATOM     18  C   UNL     1       0.945   3.205  20.579  0.00  0.00    +0.000 C 
ENDBRANCH  15  16
ENDBRANCH   4  15
TORSDOF 3
ENDMDL
MODEL 3
REMARK VINA RESULT:      -6.8      2.521      4.133
REMARK  Name = 
REMARK  4 active torsions:
REMARK  status: ('A' for Active; 'I' for Inactive)
REMARK    1  A    between atoms: C_1  and  C_2
REMARK    2  A    between atoms: N_4  and  C_5
REMARK    3  A    between atoms: C_5  and  C_6
REMARK    4  A    between atoms: N_11  and  C_12
REMARK                            x       y       z     vdW  Elec       q    Type
REMARK                         _______ _______ _______ _____ _____    ______ ____
ROOT
ATOM      1  C   UNL     1       6.954   5.490  19.431  0.00  0.00    +0.000 C 
ATOM      2  C   UNL     1       6.219   5.205  18.158  0.00  0.00    +0.000 A 
ATOM      3  N   UNL     1       6.748   5.448  16.991  0.00  0.00    +0.000 NA
ATOM      4  N   UNL     1       5.836   4.931  16.098  0.00  0.00    +0.000 N 
ATOM      5  C   UNL     1       4.723   4.425  16.778  0.00  0.00    +0.000 A 
ATOM      6  O   UNL     1       3.704   3.976  16.270  0.00  0.00    +0.000 OA
ATOM      7  N   UNL     1       5.001   4.613  18.123  0.00  0.00    +0.000 N 
ENDROOT
BRANCH   7   8
ATOM      8  C   UNL     1       4.178   4.202  19.187  0.00  0.00    +0.000 A 
ATOM      9  C   UNL     1       3.276   5.111  19.755  0.00  0.00    +0.000 A 
ATOM     10  C   UNL     1       2.375   4.696  20.741  0.00  0.00    +0.000 A 
ATOM     11  C   UNL     1       2.408   3.383  21.191  0.00  0.00    +0.000 A 
ATOM     12  F   UNL     1       1.534   2.982  22.123  0.00  0.00    +0.000 F 
ATOM     13  C   UNL     1       3.336   2.482  20.687  0.00  0.00    +0.000 A 
ATOM     14  C   UNL     1       4.218   2.891  19.684  0.00  0.00    +0.000 A 
ENDBRANCH   7   8
BRANCH   4  15
ATOM     15  C   UNL     1       5.918   5.125  14.671  0.00  0.00    +0.000 C 
BRANCH  15  16
ATOM     16  C   UNL     1       6.228   3.860  13.928  0.00  0.00    +0.000 C 
ATOM     17  C   UNL     1       5.482   3.420  12.690  0.00  0.00    +0.000 C 
ATOM     18  C   UNL     1       6.876   3.961  12.565  0.00  0.00    +0.000 C 
ENDBRANCH  15  16
ENDBRANCH   4  15
TORSDOF 3
ENDMDL
MODEL 4
REMARK VINA RESULT:      -6.8      2.775      3.996
REMARK  Name = 
REMARK  4 active torsions:
REMARK  status: ('A' for Active; 'I' for Inactive)
REMARK    1  A    between atoms: C_1  and  C_2
REMARK    2  A    between atoms: N_4  and  C_5
REMARK    3  A    between atoms: C_5  and  C_6
REMARK    4  A    between atoms: N_11  and  C_12
REMARK                            x       y       z     vdW  Elec       q    Type
REMARK                         _______ _______ _______ _____ _____    ______ ____
ROOT
ATOM      1  C   UNL     1       3.704   7.540  17.438  0.00  0.00    +0.000 C 
ATOM      2  C   UNL     1       4.394   6.385  16.781  0.00  0.00    +0.000 A 
ATOM      3  N   UNL     1       5.289   6.561  15.849  0.00  0.00    +0.000 NA
ATOM      4  N   UNL     1       5.772   5.294  15.610  0.00  0.00    +0.000 N 
ATOM      5  C   UNL     1       5.091   4.357  16.395  0.00  0.00    +0.000 A 
ATOM      6  O   UNL     1       5.226   3.141  16.354  0.00  0.00    +0.000 OA
ATOM      7  N   UNL     1       4.199   5.097  17.154  0.00  0.00    +0.000 N 
ENDROOT
BRANCH   7   8
ATOM      8  C   UNL     1       3.336   4.573  18.132  0.00  0.00    +0.000 A 
ATOM      9  C   UNL     1       3.746   4.541  19.471  0.00  0.00    +0.000 A 
ATOM     10  C   UNL     1       2.865   4.123  20.474  0.00  0.00    +0.000 A 
ATOM     11  C   UNL     1       1.590   3.693  20.131  0.00  0.00    +0.000 A 
ATOM     12  F   UNL     1       0.742   3.308  21.094  0.00  0.00    +0.000 F 
ATOM     13  C   UNL     1       1.185   3.655  18.805  0.00  0.00    +0.000 A 
ATOM     14  C   UNL     1       2.057   4.097  17.806  0.00  0.00    +0.000 A 
ENDBRANCH   7   8
BRANCH   4  15
ATOM     15  C   UNL     1       6.667   4.973  14.524  0.00  0.00    +0.000 C 
BRANCH  15  16
ATOM     16  C   UNL     1       6.233   3.763  13.751  0.00  0.00    +0.000 C 
ATOM     17  C   UNL     1       5.167   3.798  12.680  0.00  0.00    +0.000 C 
ATOM     18  C   UNL     1       6.610   3.664  12.289  0.00  0.00    +0.000 C 
ENDBRANCH  15  16
ENDBRANCH   4  15
TORSDOF 3
ENDMDL
MODEL 5
REMARK VINA RESULT:      -6.7      0.156      1.148
REMARK  Name = 
REMARK  4 active torsions:
REMARK  status: ('A' for Active; 'I' for Inactive)
REMARK    1  A    between atoms: C_1  and  C_2
REMARK    2  A    between atoms: N_4  and  C_5
REMARK    3  A    between atoms: C_5  and  C_6
REMARK    4  A    between atoms: N_11  and  C_12
REMARK                            x       y       z     vdW  Elec       q    Type
REMARK                         _______ _______ _______ _____ _____    ______ ____
ROOT
ATOM      1  C   UNL     1       5.539   3.677  15.463  0.00  0.00    +0.000 C 
ATOM      2  C   UNL     1       5.901   4.461  16.686  0.00  0.00    +0.000 A 
ATOM      3  N   UNL     1       6.973   5.201  16.734  0.00  0.00    +0.000 NA
ATOM      4  N   UNL     1       6.876   5.849  17.945  0.00  0.00    +0.000 N 
ATOM      5  C   UNL     1       5.736   5.423  18.635  0.00  0.00    +0.000 A 
ATOM      6  O   UNL     1       5.412   5.744  19.771  0.00  0.00    +0.000 OA
ATOM      7  N   UNL     1       5.115   4.519  17.788  0.00  0.00    +0.000 N 
ENDROOT
BRANCH   7   8
ATOM      8  C   UNL     1       3.894   3.870  18.048  0.00  0.00    +0.000 A 
ATOM      9  C   UNL     1       2.688   4.539  17.799  0.00  0.00    +0.000 A 
ATOM     10  C   UNL     1       1.465   3.878  17.948  0.00  0.00    +0.000 A 
ATOM     11  C   UNL     1       1.447   2.562  18.392  0.00  0.00    +0.000 A 
ATOM     12  F   UNL     1       0.275   1.925  18.519  0.00  0.00    +0.000 F 
ATOM     13  C   UNL     1       2.625   1.901  18.705  0.00  0.00    +0.000 A 
ATOM     14  C   UNL     1       3.848   2.554  18.531  0.00  0.00    +0.000 A 
ENDBRANCH   7   8
BRANCH   4  15
ATOM     15  C   UNL     1       7.935   6.650  18.509  0.00  0.00    +0.000 C 
BRANCH  15  16
ATOM     16  C   UNL     1       8.232   7.877  17.700  0.00  0.00    +0.000 C 
ATOM     17  C   UNL     1       7.312   9.074  17.638  0.00  0.00    +0.000 C 
ATOM     18  C   UNL     1       8.586   9.156  18.426  0.00  0.00    +0.000 C 
ENDBRANCH  15  16
ENDBRANCH   4  15
TORSDOF 3
ENDMDL
MODEL 6
REMARK VINA RESULT:      -6.7      2.635      3.906
REMARK  Name = 
REMARK  4 active torsions:
REMARK  status: ('A' for Active; 'I' for Inactive)
REMARK    1  A    between atoms: C_1  and  C_2
REMARK    2  A    between atoms: N_4  and  C_5
REMARK    3  A    between atoms: C_5  and  C_6
REMARK    4  A    between atoms: N_11  and  C_12
REMARK                            x       y       z     vdW  Elec       q    Type
REMARK                         _______ _______ _______ _____ _____    ______ ____
ROOT
ATOM      1  C   UNL     1       3.937   7.524  17.379  0.00  0.00    +0.000 C 
ATOM      2  C   UNL     1       4.625   6.330  16.792  0.00  0.00    +0.000 A 
ATOM      3  N   UNL     1       5.598   6.454  15.933  0.00  0.00    +0.000 NA
ATOM      4  N   UNL     1       6.042   5.163  15.747  0.00  0.00    +0.000 N 
ATOM      5  C   UNL     1       5.260   4.268  16.485  0.00  0.00    +0.000 A 
ATOM      6  O   UNL     1       5.343   3.047  16.469  0.00  0.00    +0.000 OA
ATOM      7  N   UNL     1       4.344   5.057  17.162  0.00  0.00    +0.000 N 
ENDROOT
BRANCH   7   8
ATOM      8  C   UNL     1       3.384   4.585  18.074  0.00  0.00    +0.000 A 
ATOM      9  C   UNL     1       2.134   4.160  17.604  0.00  0.00    +0.000 A 
ATOM     10  C   UNL     1       1.204   3.588  18.478  0.00  0.00    +0.000 A 
ATOM     11  C   UNL     1       1.506   3.485  19.830  0.00  0.00    +0.000 A 
ATOM     12  F   UNL     1       0.621   2.922  20.663  0.00  0.00    +0.000 F 
ATOM     13  C   UNL     1       2.712   3.958  20.327  0.00  0.00    +0.000 A 
ATOM     14  C   UNL     1       3.651   4.505  19.449  0.00  0.00    +0.000 A 
ENDBRANCH   7   8
BRANCH   4  15
ATOM     15  C   UNL     1       7.005   4.788  14.739  0.00  0.00    +0.000 C 
BRANCH  15  16
ATOM     16  C   UNL     1       6.415   4.735  13.361  0.00  0.00    +0.000 C 
ATOM     17  C   UNL     1       7.138   4.149  12.170  0.00  0.00    +0.000 C 
ATOM     18  C   UNL     1       6.006   3.391  12.800  0.00  0.00    +0.000 C 
ENDBRANCH  15  16
ENDBRANCH   4  15
TORSDOF 3
ENDMDL
MODEL 7
REMARK VINA RESULT:      -6.6      3.341      4.872
REMARK  Name = 
REMARK  4 active torsions:
REMARK  status: ('A' for Active; 'I' for Inactive)
REMARK    1  A    between atoms: C_1  and  C_2
REMARK    2  A    between atoms: N_4  and  C_5
REMARK    3  A    between atoms: C_5  and  C_6
REMARK    4  A    between atoms: N_11  and  C_12
REMARK                            x       y       z     vdW  Elec       q    Type
REMARK                         _______ _______ _______ _____ _____    ______ ____
ROOT
ATOM      1  C   UNL     1       1.562   4.207  18.024  0.00  0.00    +0.000 C 
ATOM      2  C   UNL     1       2.948   4.712  17.769  0.00  0.00    +0.000 A 
ATOM      3  N   UNL     1       3.876   3.944  17.269  0.00  0.00    +0.000 NA
ATOM      4  N   UNL     1       4.938   4.798  17.062  0.00  0.00    +0.000 N 
ATOM      5  C   UNL     1       4.621   6.085  17.511  0.00  0.00    +0.000 A 
ATOM      6  O   UNL     1       5.376   7.048  17.547  0.00  0.00    +0.000 OA
ATOM      7  N   UNL     1       3.314   6.001  17.965  0.00  0.00    +0.000 N 
ENDROOT
BRANCH   7   8
ATOM      8  C   UNL     1       2.558   7.078  18.461  0.00  0.00    +0.000 A 
ATOM      9  C   UNL     1       2.219   7.117  19.820  0.00  0.00    +0.000 A 
ATOM     10  C   UNL     1       1.560   8.228  20.356  0.00  0.00    +0.000 A 
ATOM     11  C   UNL     1       1.198   9.279  19.522  0.00  0.00    +0.000 A 
ATOM     12  F   UNL     1       0.581  10.349  20.040  0.00  0.00    +0.000 F 
ATOM     13  C   UNL     1       1.466   9.232  18.162  0.00  0.00    +0.000 A 
ATOM     14  C   UNL     1       2.148   8.133  17.632  0.00  0.00    +0.000 A 
ENDBRANCH   7   8
BRANCH   4  15
ATOM     15  C   UNL     1       6.256   4.354  16.678  0.00  0.00    +0.000 C 
BRANCH  15  16
ATOM     16  C   UNL     1       6.315   3.861  15.263  0.00  0.00    +0.000 C 
ATOM     17  C   UNL     1       5.442   4.405  14.156  0.00  0.00    +0.000 C 
ATOM     18  C   UNL     1       6.897   4.769  14.203  0.00  0.00    +0.000 C 
ENDBRANCH  15  16
ENDBRANCH   4  15
TORSDOF 3
ENDMDL
MODEL 8
REMARK VINA RESULT:      -6.6      3.353      4.971
REMARK  Name = 
REMARK  4 active torsions:
REMARK  status: ('A' for Active; 'I' for Inactive)
REMARK    1  A    between atoms: C_1  and  C_2
REMARK    2  A    between atoms: N_4  and  C_5
REMARK    3  A    between atoms: C_5  and  C_6
REMARK    4  A    between atoms: N_11  and  C_12
REMARK                            x       y       z     vdW  Elec       q    Type
REMARK                         _______ _______ _______ _____ _____    ______ ____
ROOT
ATOM      1  C   UNL     1       1.600   4.334  18.089  0.00  0.00    +0.000 C 
ATOM      2  C   UNL     1       2.991   4.806  17.800  0.00  0.00    +0.000 A 
ATOM      3  N   UNL     1       3.892   4.015  17.289  0.00  0.00    +0.000 NA
ATOM      4  N   UNL     1       4.967   4.843  17.052  0.00  0.00    +0.000 N 
ATOM      5  C   UNL     1       4.687   6.141  17.493  0.00  0.00    +0.000 A 
ATOM      6  O   UNL     1       5.463   7.088  17.503  0.00  0.00    +0.000 OA
ATOM      7  N   UNL     1       3.388   6.090  17.974  0.00  0.00    +0.000 N 
ENDROOT
BRANCH   7   8
ATOM      8  C   UNL     1       2.665   7.187  18.474  0.00  0.00    +0.000 A 
ATOM      9  C   UNL     1       2.286   8.220  17.606  0.00  0.00    +0.000 A 
ATOM     10  C   UNL     1       1.476   9.267  18.058  0.00  0.00    +0.000 A 
ATOM     11  C   UNL     1       1.084   9.304  19.390  0.00  0.00    +0.000 A 
ATOM     12  F   UNL     1       0.295  10.298  19.818  0.00  0.00    +0.000 F 
ATOM     13  C   UNL     1       1.500   8.326  20.282  0.00  0.00    +0.000 A 
ATOM     14  C   UNL     1       2.288   7.267  19.823  0.00  0.00    +0.000 A 
ENDBRANCH   7   8
BRANCH   4  15
ATOM     15  C   UNL     1       6.267   4.367  16.645  0.00  0.00    +0.000 C 
BRANCH  15  16
ATOM     16  C   UNL     1       6.280   3.835  15.243  0.00  0.00    +0.000 C 
ATOM     17  C   UNL     1       5.427   4.399  14.132  0.00  0.00    +0.000 C 
ATOM     18  C   UNL     1       6.901   4.680  14.153  0.00  0.00    +0.000 C 
ENDBRANCH  15  16
ENDBRANCH   4  15
TORSDOF 3
ENDMDL
MODEL 9
REMARK VINA RESULT:      -6.6      3.184      5.968
REMARK  Name = 
REMARK  4 active torsions:
REMARK  status: ('A' for Active; 'I' for Inactive)
REMARK    1  A    between atoms: C_1  and  C_2
REMARK    2  A    between atoms: N_4  and  C_5
REMARK    3  A    between atoms: C_5  and  C_6
REMARK    4  A    between atoms: N_11  and  C_12
REMARK                            x       y       z     vdW  Elec       q    Type
REMARK                         _______ _______ _______ _____ _____    ______ ____
ROOT
ATOM      1  C   UNL     1       3.191   7.716  17.487  0.00  0.00    +0.000 C 
ATOM      2  C   UNL     1       3.310   6.541  18.407  0.00  0.00    +0.000 A 
ATOM      3  N   UNL     1       2.537   6.404  19.448  0.00  0.00    +0.000 NA
ATOM      4  N   UNL     1       2.859   5.159  19.940  0.00  0.00    +0.000 N 
ATOM      5  C   UNL     1       3.890   4.589  19.185  0.00  0.00    +0.000 A 
ATOM      6  O   UNL     1       4.459   3.530  19.415  0.00  0.00    +0.000 OA
ATOM      7  N   UNL     1       4.163   5.511  18.187  0.00  0.00    +0.000 N 
ENDROOT
BRANCH   7   8
ATOM      8  C   UNL     1       5.101   5.336  17.155  0.00  0.00    +0.000 A 
ATOM      9  C   UNL     1       4.756   4.579  16.027  0.00  0.00    +0.000 A 
ATOM     10  C   UNL     1       5.633   4.480  14.942  0.00  0.00    +0.000 A 
ATOM     11  C   UNL     1       6.875   5.099  15.006  0.00  0.00    +0.000 A 
ATOM     12  F   UNL     1       7.707   5.017  13.959  0.00  0.00    +0.000 F 
ATOM     13  C   UNL     1       7.262   5.801  16.138  0.00  0.00    +0.000 A 
ATOM     14  C   UNL     1       6.375   5.921  17.211  0.00  0.00    +0.000 A 
ENDBRANCH   7   8
BRANCH   4  15
ATOM     15  C   UNL     1       2.374   4.648  21.200  0.00  0.00    +0.000 C 
BRANCH  15  16
ATOM     16  C   UNL     1       1.207   3.720  21.041  0.00  0.00    +0.000 C 
ATOM     17  C   UNL     1       0.856   3.042  19.737  0.00  0.00    +0.000 C 
ATOM     18  C   UNL     1       1.476   2.244  20.847  0.00  0.00    +0.000 C 
ENDBRANCH  15  16
ENDBRANCH   4  15
TORSDOF 3
ENDMDL
