MODEL 1
REMARK VINA RESULT:      -7.6      0.000      0.000
REMARK  Name = 
REMARK  6 active torsions:
REMARK  status: ('A' for Active; 'I' for Inactive)
REMARK    1  A    between atoms: C_1  and  C_2
REMARK    2  A    between atoms: C_6  and  C_7
REMARK    3  A    between atoms: C_7  and  C_8
REMARK    4  A    between atoms: C_10  and  O_11
REMARK    5  A    between atoms: C_13  and  S_14
REMARK    6  A    between atoms: S_14  and  C_15
REMARK                            x       y       z     vdW  Elec       q    Type
REMARK                         _______ _______ _______ _____ _____    ______ ____
ROOT
ATOM      1  C   UNL     1       5.654   5.255  16.380  0.00  0.00    +0.000 A 
ATOM      2  C   UNL     1       6.963   4.875  16.600  0.00  0.00    +0.000 A 
ATOM      3  C   UNL     1       7.249   4.446  17.878  0.00  0.00    +0.000 A 
ATOM      4  N   UNL     1       6.370   4.416  18.888  0.00  0.00    +0.000 NA
ATOM      5  C   UNL     1       5.133   4.830  18.598  0.00  0.00    +0.000 A 
ATOM      6  N   UNL     1       4.731   5.238  17.374  0.00  0.00    +0.000 NA
ENDROOT
BRANCH   3   7
ATOM      7  O   UNL     1       8.498   3.992  18.186  0.00  0.00    +0.000 OA
ATOM      8  H   UNL     1       9.110   4.270  17.494  0.00  0.00    +0.000 HD
ENDBRANCH   3   7
BRANCH   1   9
ATOM      9  C   UNL     1       5.213   5.691  14.993  0.00  0.00    +0.000 C 
BRANCH   9  15
ATOM     10  C   UNL     1       5.351   2.022  11.506  0.00  0.00    +0.000 C 
ATOM     11  C   UNL     1       5.988   3.210  12.169  0.00  0.00    +0.000 A 
ATOM     12  C   UNL     1       7.263   3.641  11.785  0.00  0.00    +0.000 A 
ATOM     13  C   UNL     1       7.854   4.737  12.414  0.00  0.00    +0.000 A 
ATOM     14  C   UNL     1       7.185   5.399  13.443  0.00  0.00    +0.000 A 
ATOM     15  C   UNL     1       5.916   4.977  13.858  0.00  0.00    +0.000 A 
ATOM     16  C   UNL     1       5.315   3.893  13.194  0.00  0.00    +0.000 A 
ENDBRANCH   9  15
ENDBRANCH   1   9
BRANCH   5  17
ATOM     17  S   UNL     1       3.871   4.782  19.863  0.00  0.00    +0.000 S 
BRANCH  17  18
ATOM     18  C   UNL     1       3.553   2.971  20.068  0.00  0.00    +0.000 C 
ATOM     19  C   UNL     1       2.305   2.685  20.915  0.00  0.00    +0.000 C 
ATOM     20  C   UNL     1       0.992   3.060  20.223  0.00  0.00    +0.000 C 
ATOM     21  C   UNL     1       0.858   2.447  18.832  0.00  0.00    +0.000 C 
ATOM     22  C   UNL     1       2.096   2.649  17.963  0.00  0.00    +0.000 C 
ATOM     23  C   UNL     1       3.391   2.288  18.695  0.00  0.00    +0.000 C 
ENDBRANCH  17  18
ENDBRANCH   5  17
TORSDOF 5
ENDMDL
MODEL 2
REMARK VINA RESULT:      -7.6      1.146      1.437
REMARK  Name = 
REMARK  6 active torsions:
REMARK  status: ('A' for Active; 'I' for Inactive)
REMARK    1  A    between atoms: C_1  and  C_2
REMARK    2  A    between atoms: C_6  and  C_7
REMARK    3  A    between atoms: C_7  and  C_8
REMARK    4  A    between atoms: C_10  and  O_11
REMARK    5  A    between atoms: C_13  and  S_14
REMARK    6  A    between atoms: S_14  and  C_15
REMARK                            x       y       z     vdW  Elec       q    Type
REMARK                         _______ _______ _______ _____ _____    ______ ____
ROOT
ATOM      1  C   UNL     1       5.705   5.492  16.763  0.00  0.00    +0.000 A 
ATOM      2  C   UNL     1       6.809   6.058  17.367  0.00  0.00    +0.000 A 
ATOM      3  C   UNL     1       7.131   5.550  18.607  0.00  0.00    +0.000 A 
ATOM      4  N   UNL     1       6.436   4.603  19.249  0.00  0.00    +0.000 NA
ATOM      5  C   UNL     1       5.363   4.131  18.606  0.00  0.00    +0.000 A 
ATOM      6  N   UNL     1       4.973   4.529  17.375  0.00  0.00    +0.000 NA
ENDROOT
BRANCH   3   7
ATOM      7  O   UNL     1       8.240   5.997  19.265  0.00  0.00    +0.000 OA
ATOM      8  H   UNL     1       8.419   6.906  18.992  0.00  0.00    +0.000 HD
ENDBRANCH   3   7
BRANCH   1   9
ATOM      9  C   UNL     1       5.292   5.935  15.369  0.00  0.00    +0.000 C 
BRANCH   9  15
ATOM     10  C   UNL     1       5.266   2.400  11.745  0.00  0.00    +0.000 C 
ATOM     11  C   UNL     1       5.979   3.492  12.490  0.00  0.00    +0.000 A 
ATOM     12  C   UNL     1       7.310   3.805  12.193  0.00  0.00    +0.000 A 
ATOM     13  C   UNL     1       7.970   4.812  12.897  0.00  0.00    +0.000 A 
ATOM     14  C   UNL     1       7.312   5.501  13.916  0.00  0.00    +0.000 A 
ATOM     15  C   UNL     1       5.985   5.195  14.245  0.00  0.00    +0.000 A 
ATOM     16  C   UNL     1       5.318   4.203  13.505  0.00  0.00    +0.000 A 
ENDBRANCH   9  15
ENDBRANCH   1   9
BRANCH   5  17
ATOM     17  S   UNL     1       4.394   2.828  19.354  0.00  0.00    +0.000 S 
BRANCH  17  18
ATOM     18  C   UNL     1       2.740   3.022  18.548  0.00  0.00    +0.000 C 
ATOM     19  C   UNL     1       1.648   2.191  19.238  0.00  0.00    +0.000 C 
ATOM     20  C   UNL     1       1.274   2.703  20.630  0.00  0.00    +0.000 C 
ATOM     21  C   UNL     1       0.918   4.187  20.642  0.00  0.00    +0.000 C 
ATOM     22  C   UNL     1       1.940   5.057  19.917  0.00  0.00    +0.000 C 
ATOM     23  C   UNL     1       2.309   4.503  18.539  0.00  0.00    +0.000 C 
ENDBRANCH  17  18
ENDBRANCH   5  17
TORSDOF 5
ENDMDL
MODEL 3
REMARK VINA RESULT:      -7.5      1.120      1.409
REMARK  Name = 
REMARK  6 active torsions:
REMARK  status: ('A' for Active; 'I' for Inactive)
REMARK    1  A    between atoms: C_1  and  C_2
REMARK    2  A    between atoms: C_6  and  C_7
REMARK    3  A    between atoms: C_7  and  C_8
REMARK    4  A    between atoms: C_10  and  O_11
REMARK    5  A    between atoms: C_13  and  S_14
REMARK    6  A    between atoms: S_14  and  C_15
REMARK                            x       y       z     vdW  Elec       q    Type
REMARK                         _______ _______ _______ _____ _____    ______ ____
ROOT
ATOM      1  C   UNL     1       5.712   5.575  16.812  0.00  0.00    +0.000 A 
ATOM      2  C   UNL     1       6.832   6.154  17.376  0.00  0.00    +0.000 A 
ATOM      3  C   UNL     1       7.177   5.683  18.625  0.00  0.00    +0.000 A 
ATOM      4  N   UNL     1       6.491   4.759  19.310  0.00  0.00    +0.000 NA
ATOM      5  C   UNL     1       5.403   4.273  18.704  0.00  0.00    +0.000 A 
ATOM      6  N   UNL     1       4.990   4.635  17.470  0.00  0.00    +0.000 NA
ENDROOT
BRANCH   3   7
ATOM      7  O   UNL     1       8.301   6.145  19.246  0.00  0.00    +0.000 OA
ATOM      8  H   UNL     1       8.773   6.730  18.640  0.00  0.00    +0.000 HD
ENDBRANCH   3   7
BRANCH   1   9
ATOM      9  C   UNL     1       5.273   5.977  15.415  0.00  0.00    +0.000 C 
BRANCH   9  15
ATOM     10  C   UNL     1       5.238   2.446  11.786  0.00  0.00    +0.000 C 
ATOM     11  C   UNL     1       5.958   3.526  12.542  0.00  0.00    +0.000 A 
ATOM     12  C   UNL     1       7.298   3.818  12.263  0.00  0.00    +0.000 A 
ATOM     13  C   UNL     1       7.965   4.813  12.977  0.00  0.00    +0.000 A 
ATOM     14  C   UNL     1       7.304   5.512  13.987  0.00  0.00    +0.000 A 
ATOM     15  C   UNL     1       5.969   5.227  14.299  0.00  0.00    +0.000 A 
ATOM     16  C   UNL     1       5.296   4.246  13.549  0.00  0.00    +0.000 A 
ENDBRANCH   9  15
ENDBRANCH   1   9
BRANCH   5  17
ATOM     17  S   UNL     1       4.444   2.998  19.511  0.00  0.00    +0.000 S 
BRANCH  17  18
ATOM     18  C   UNL     1       2.996   3.930  20.187  0.00  0.00    +0.000 C 
ATOM     19  C   UNL     1       2.245   4.717  19.104  0.00  0.00    +0.000 C 
ATOM     20  C   UNL     1       1.491   3.830  18.111  0.00  0.00    +0.000 C 
ATOM     21  C   UNL     1       0.566   2.827  18.794  0.00  0.00    +0.000 C 
ATOM     22  C   UNL     1       1.243   2.055  19.921  0.00  0.00    +0.000 C 
ATOM     23  C   UNL     1       2.008   2.970  20.882  0.00  0.00    +0.000 C 
ENDBRANCH  17  18
ENDBRANCH   5  17
TORSDOF 5
ENDMDL
MODEL 4
REMARK VINA RESULT:      -7.5      4.802      7.634
REMARK  Name = 
REMARK  6 active torsions:
REMARK  status: ('A' for Active; 'I' for Inactive)
REMARK    1  A    between atoms: C_1  and  C_2
REMARK    2  A    between atoms: C_6  and  C_7
REMARK    3  A    between atoms: C_7  and  C_8
REMARK    4  A    between atoms: C_10  and  O_11
REMARK    5  A    between atoms: C_13  and  S_14
REMARK    6  A    between atoms: S_14  and  C_15
REMARK                            x       y       z     vdW  Elec       q    Type
REMARK                         _______ _______ _______ _____ _____    ______ ____
ROOT
ATOM      1  C   UNL     1       6.588   6.450  17.226  0.00  0.00    +0.000 A 
ATOM      2  C   UNL     1       7.165   5.631  18.176  0.00  0.00    +0.000 A 
ATOM      3  C   UNL     1       8.082   6.239  19.006  0.00  0.00    +0.000 A 
ATOM      4  N   UNL     1       8.458   7.521  18.919  0.00  0.00    +0.000 NA
ATOM      5  C   UNL     1       7.874   8.236  17.952  0.00  0.00    +0.000 A 
ATOM      6  N   UNL     1       6.938   7.755  17.105  0.00  0.00    +0.000 NA
ENDROOT
BRANCH   3   7
ATOM      7  O   UNL     1       8.666   5.534  20.017  0.00  0.00    +0.000 OA
ATOM      8  H   UNL     1       9.562   5.867  20.152  0.00  0.00    +0.000 HD
ENDBRANCH   3   7
BRANCH   1   9
ATOM      9  C   UNL     1       5.521   5.899  16.296  0.00  0.00    +0.000 C 
BRANCH   9  15
ATOM     10  C   UNL     1       2.415   2.136  17.645  0.00  0.00    +0.000 C 
ATOM     11  C   UNL     1       2.768   3.595  17.653  0.00  0.00    +0.000 A 
ATOM     12  C   UNL     1       1.922   4.529  18.261  0.00  0.00    +0.000 A 
ATOM     13  C   UNL     1       2.250   5.885  18.254  0.00  0.00    +0.000 A 
ATOM     14  C   UNL     1       3.416   6.320  17.626  0.00  0.00    +0.000 A 
ATOM     15  C   UNL     1       4.272   5.408  16.995  0.00  0.00    +0.000 A 
ATOM     16  C   UNL     1       3.950   4.040  17.038  0.00  0.00    +0.000 A 
ENDBRANCH   9  15
ENDBRANCH   1   9
BRANCH   5  17
ATOM     17  S   UNL     1       8.269   9.971  17.782  0.00  0.00    +0.000 S 
BRANCH  17  18
ATOM     18  C   UNL     1       9.753  10.171  18.868  0.00  0.00    +0.000 C 
ATOM     19  C   UNL     1      10.861  11.000  18.204  0.00  0.00    +0.000 C 
ATOM     20  C   UNL     1      10.509  12.480  18.041  0.00  0.00    +0.000 C 
ATOM     21  C   UNL     1      10.051  13.129  19.344  0.00  0.00    +0.000 C 
ATOM     22  C   UNL     1       8.989  12.318  20.080  0.00  0.00    +0.000 C 
ATOM     23  C   UNL     1       9.363  10.838  20.204  0.00  0.00    +0.000 C 
ENDBRANCH  17  18
ENDBRANCH   5  17
TORSDOF 5
ENDMDL
MODEL 5
REMARK VINA RESULT:      -7.4      4.378      7.563
REMARK  Name = 
REMARK  6 active torsions:
REMARK  status: ('A' for Active; 'I' for Inactive)
REMARK    1  A    between atoms: C_1  and  C_2
REMARK    2  A    between atoms: C_6  and  C_7
REMARK    3  A    between atoms: C_7  and  C_8
REMARK    4  A    between atoms: C_10  and  O_11
REMARK    5  A    between atoms: C_13  and  S_14
REMARK    6  A    between atoms: S_14  and  C_15
REMARK                            x       y       z     vdW  Elec       q    Type
REMARK                         _______ _______ _______ _____ _____    ______ ____
ROOT
ATOM      1  C   UNL     1       1.911   5.673  20.425  0.00  0.00    +0.000 A 
ATOM      2  C   UNL     1       0.847   4.796  20.367  0.00  0.00    +0.000 A 
ATOM      3  C   UNL     1       1.123   3.565  19.810  0.00  0.00    +0.000 A 
ATOM      4  N   UNL     1       2.311   3.203  19.308  0.00  0.00    +0.000 NA
ATOM      5  C   UNL     1       3.278   4.123  19.377  0.00  0.00    +0.000 A 
ATOM      6  N   UNL     1       3.131   5.347  19.931  0.00  0.00    +0.000 NA
ENDROOT
BRANCH   3   7
ATOM      7  O   UNL     1       0.158   2.603  19.758  0.00  0.00    +0.000 OA
ATOM      8  H   UNL     1       0.035   2.237  20.643  0.00  0.00    +0.000 HD
ENDBRANCH   3   7
BRANCH   1   9
ATOM      9  C   UNL     1       1.735   7.037  21.072  0.00  0.00    +0.000 C 
BRANCH   9  15
ATOM     10  C   UNL     1      -0.588  11.372  19.872  0.00  0.00    +0.000 C 
ATOM     11  C   UNL     1       0.354  10.260  19.511  0.00  0.00    +0.000 A 
ATOM     12  C   UNL     1       0.959  10.219  18.250  0.00  0.00    +0.000 A 
ATOM     13  C   UNL     1       1.823   9.177  17.917  0.00  0.00    +0.000 A 
ATOM     14  C   UNL     1       2.076   8.157  18.834  0.00  0.00    +0.000 A 
ATOM     15  C   UNL     1       1.470   8.164  20.097  0.00  0.00    +0.000 A 
ATOM     16  C   UNL     1       0.628   9.238  20.435  0.00  0.00    +0.000 A 
ENDBRANCH   9  15
ENDBRANCH   1   9
BRANCH   5  17
ATOM     17  S   UNL     1       4.915   3.723  18.780  0.00  0.00    +0.000 S 
BRANCH  17  18
ATOM     18  C   UNL     1       5.573   5.363  18.232  0.00  0.00    +0.000 C 
ATOM     19  C   UNL     1       7.099   5.360  18.069  0.00  0.00    +0.000 C 
ATOM     20  C   UNL     1       7.590   4.521  16.886  0.00  0.00    +0.000 C 
ATOM     21  C   UNL     1       6.903   4.887  15.574  0.00  0.00    +0.000 C 
ATOM     22  C   UNL     1       5.384   4.963  15.690  0.00  0.00    +0.000 C 
ATOM     23  C   UNL     1       4.929   5.789  16.896  0.00  0.00    +0.000 C 
ENDBRANCH  17  18
ENDBRANCH   5  17
TORSDOF 5
ENDMDL
MODEL 6
REMARK VINA RESULT:      -7.4      1.427      1.965
REMARK  Name = 
REMARK  6 active torsions:
REMARK  status: ('A' for Active; 'I' for Inactive)
REMARK    1  A    between atoms: C_1  and  C_2
REMARK    2  A    between atoms: C_6  and  C_7
REMARK    3  A    between atoms: C_7  and  C_8
REMARK    4  A    between atoms: C_10  and  O_11
REMARK    5  A    between atoms: C_13  and  S_14
REMARK    6  A    between atoms: S_14  and  C_15
REMARK                            x       y       z     vdW  Elec       q    Type
REMARK                         _______ _______ _______ _____ _____    ______ ____
ROOT
ATOM      1  C   UNL     1       5.779   4.888  15.780  0.00  0.00    +0.000 A 
ATOM      2  C   UNL     1       6.846   5.218  16.592  0.00  0.00    +0.000 A 
ATOM      3  C   UNL     1       6.834   4.647  17.846  0.00  0.00    +0.000 A 
ATOM      4  N   UNL     1       5.864   3.852  18.315  0.00  0.00    +0.000 NA
ATOM      5  C   UNL     1       4.853   3.608  17.475  0.00  0.00    +0.000 A 
ATOM      6  N   UNL     1       4.776   4.085  16.213  0.00  0.00    +0.000 NA
ENDROOT
BRANCH   3   7
ATOM      7  O   UNL     1       7.871   4.859  18.707  0.00  0.00    +0.000 OA
ATOM      8  H   UNL     1       7.818   5.763  19.041  0.00  0.00    +0.000 HD
ENDBRANCH   3   7
BRANCH   1   9
ATOM      9  C   UNL     1       5.719   5.415  14.356  0.00  0.00    +0.000 C 
BRANCH   9  15
ATOM     10  C   UNL     1       3.229   2.944  10.705  0.00  0.00    +0.000 C 
ATOM     11  C   UNL     1       4.472   3.145  11.524  0.00  0.00    +0.000 A 
ATOM     12  C   UNL     1       5.580   2.308  11.353  0.00  0.00    +0.000 A 
ATOM     13  C   UNL     1       6.727   2.491  12.125  0.00  0.00    +0.000 A 
ATOM     14  C   UNL     1       6.769   3.500  13.087  0.00  0.00    +0.000 A 
ATOM     15  C   UNL     1       5.667   4.340  13.291  0.00  0.00    +0.000 A 
ATOM     16  C   UNL     1       4.530   4.169  12.483  0.00  0.00    +0.000 A 
ENDBRANCH   9  15
ENDBRANCH   1   9
BRANCH   5  17
ATOM     17  S   UNL     1       3.530   2.519  17.984  0.00  0.00    +0.000 S 
BRANCH  17  18
ATOM     18  C   UNL     1       2.033   3.600  17.875  0.00  0.00    +0.000 C 
ATOM     19  C   UNL     1       0.826   3.010  18.619  0.00  0.00    +0.000 C 
ATOM     20  C   UNL     1       0.984   3.006  20.142  0.00  0.00    +0.000 C 
ATOM     21  C   UNL     1       1.353   4.376  20.704  0.00  0.00    +0.000 C 
ATOM     22  C   UNL     1       2.511   5.038  19.964  0.00  0.00    +0.000 C 
ATOM     23  C   UNL     1       2.332   5.003  18.444  0.00  0.00    +0.000 C 
ENDBRANCH  17  18
ENDBRANCH   5  17
TORSDOF 5
ENDMDL
MODEL 7
REMARK VINA RESULT:      -7.4      1.268      1.881
REMARK  Name = 
REMARK  6 active torsions:
REMARK  status: ('A' for Active; 'I' for Inactive)
REMARK    1  A    between atoms: C_1  and  C_2
REMARK    2  A    between atoms: C_6  and  C_7
REMARK    3  A    between atoms: C_7  and  C_8
REMARK    4  A    between atoms: C_10  and  O_11
REMARK    5  A    between atoms: C_13  and  S_14
REMARK    6  A    between atoms: S_14  and  C_15
REMARK                            x       y       z     vdW  Elec       q    Type
REMARK                         _______ _______ _______ _____ _____    ______ ____
ROOT
ATOM      1  C   UNL     1       6.493   4.792  15.065  0.00  0.00    +0.000 A 
ATOM      2  C   UNL     1       7.546   4.679  15.951  0.00  0.00    +0.000 A 
ATOM      3  C   UNL     1       7.194   4.414  17.257  0.00  0.00    +0.000 A 
ATOM      4  N   UNL     1       5.936   4.302  17.703  0.00  0.00    +0.000 NA
ATOM      5  C   UNL     1       4.977   4.456  16.785  0.00  0.00    +0.000 A 
ATOM      6  N   UNL     1       5.204   4.684  15.472  0.00  0.00    +0.000 NA
ENDROOT
BRANCH   3   7
ATOM      7  O   UNL     1       8.159   4.224  18.203  0.00  0.00    +0.000 OA
ATOM      8  H   UNL     1       8.851   3.661  17.833  0.00  0.00    +0.000 HD
ENDBRANCH   3   7
BRANCH   1   9
ATOM      9  C   UNL     1       6.767   5.026  13.589  0.00  0.00    +0.000 C 
BRANCH   9  15
ATOM     10  C   UNL     1       3.069   3.026  10.767  0.00  0.00    +0.000 C 
ATOM     11  C   UNL     1       4.469   2.966  11.307  0.00  0.00    +0.000 A 
ATOM     12  C   UNL     1       5.298   1.877  11.016  0.00  0.00    +0.000 A 
ATOM     13  C   UNL     1       6.594   1.822  11.530  0.00  0.00    +0.000 A 
ATOM     14  C   UNL     1       7.065   2.844  12.353  0.00  0.00    +0.000 A 
ATOM     15  C   UNL     1       6.249   3.937  12.674  0.00  0.00    +0.000 A 
ATOM     16  C   UNL     1       4.958   4.000  12.122  0.00  0.00    +0.000 A 
ENDBRANCH   9  15
ENDBRANCH   1   9
BRANCH   5  17
ATOM     17  S   UNL     1       3.264   4.277  17.265  0.00  0.00    +0.000 S 
BRANCH  17  18
ATOM     18  C   UNL     1       3.340   3.027  18.627  0.00  0.00    +0.000 C 
ATOM     19  C   UNL     1       3.205   3.663  20.017  0.00  0.00    +0.000 C 
ATOM     20  C   UNL     1       1.809   4.218  20.307  0.00  0.00    +0.000 C 
ATOM     21  C   UNL     1       0.702   3.195  20.067  0.00  0.00    +0.000 C 
ATOM     22  C   UNL     1       0.819   2.487  18.721  0.00  0.00    +0.000 C 
ATOM     23  C   UNL     1       2.233   1.966  18.454  0.00  0.00    +0.000 C 
ENDBRANCH  17  18
ENDBRANCH   5  17
TORSDOF 5
ENDMDL
MODEL 8
REMARK VINA RESULT:      -7.3      6.669      8.724
REMARK  Name = 
REMARK  6 active torsions:
REMARK  status: ('A' for Active; 'I' for Inactive)
REMARK    1  A    between atoms: C_1  and  C_2
REMARK    2  A    between atoms: C_6  and  C_7
REMARK    3  A    between atoms: C_7  and  C_8
REMARK    4  A    between atoms: C_10  and  O_11
REMARK    5  A    between atoms: C_13  and  S_14
REMARK    6  A    between atoms: S_14  and  C_15
REMARK                            x       y       z     vdW  Elec       q    Type
REMARK                         _______ _______ _______ _____ _____    ______ ____
ROOT
ATOM      1  C   UNL     1       1.542   8.285  19.938  0.00  0.00    +0.000 A 
ATOM      2  C   UNL     1       1.206   8.336  21.276  0.00  0.00    +0.000 A 
ATOM      3  C   UNL     1       0.175   9.192  21.595  0.00  0.00    +0.000 A 
ATOM      4  N   UNL     1      -0.468   9.975  20.719  0.00  0.00    +0.000 NA
ATOM      5  C   UNL     1      -0.060   9.886  19.449  0.00  0.00    +0.000 A 
ATOM      6  N   UNL     1       0.916   9.058  19.016  0.00  0.00    +0.000 NA
ENDROOT
BRANCH   3   7
ATOM      7  O   UNL     1      -0.276   9.274  22.880  0.00  0.00    +0.000 OA
ATOM      8  H   UNL     1      -0.431  10.202  23.097  0.00  0.00    +0.000 HD
ENDBRANCH   3   7
BRANCH   1   9
ATOM      9  C   UNL     1       2.627   7.332  19.464  0.00  0.00    +0.000 C 
BRANCH   9  15
ATOM     10  C   UNL     1       1.283   2.848  21.392  0.00  0.00    +0.000 C 
ATOM     11  C   UNL     1       1.514   3.734  20.202  0.00  0.00    +0.000 A 
ATOM     12  C   UNL     1       1.361   3.236  18.903  0.00  0.00    +0.000 A 
ATOM     13  C   UNL     1       1.589   4.061  17.802  0.00  0.00    +0.000 A 
ATOM     14  C   UNL     1       1.990   5.384  17.989  0.00  0.00    +0.000 A 
ATOM     15  C   UNL     1       2.168   5.901  19.278  0.00  0.00    +0.000 A 
ATOM     16  C   UNL     1       1.901   5.072  20.381  0.00  0.00    +0.000 A 
ENDBRANCH   9  15
ENDBRANCH   1   9
BRANCH   5  17
ATOM     17  S   UNL     1      -0.885  10.852  18.192  0.00  0.00    +0.000 S 
BRANCH  17  18
ATOM     18  C   UNL     1      -2.123   9.665  17.498  0.00  0.00    +0.000 C 
ATOM     19  C   UNL     1      -3.485   9.760  18.199  0.00  0.00    +0.000 C 
ATOM     20  C   UNL     1      -4.239  11.059  17.906  0.00  0.00    +0.000 C 
ATOM     21  C   UNL     1      -4.375  11.343  16.413  0.00  0.00    +0.000 C 
ATOM     22  C   UNL     1      -3.060  11.205  15.652  0.00  0.00    +0.000 C 
ATOM     23  C   UNL     1      -2.321   9.907  15.987  0.00  0.00    +0.000 C 
ENDBRANCH  17  18
ENDBRANCH   5  17
TORSDOF 5
ENDMDL
MODEL 9
REMARK VINA RESULT:      -7.3      3.485      7.139
REMARK  Name = 
REMARK  6 active torsions:
REMARK  status: ('A' for Active; 'I' for Inactive)
REMARK    1  A    between atoms: C_1  and  C_2
REMARK    2  A    between atoms: C_6  and  C_7
REMARK    3  A    between atoms: C_7  and  C_8
REMARK    4  A    between atoms: C_10  and  O_11
REMARK    5  A    between atoms: C_13  and  S_14
REMARK    6  A    between atoms: S_14  and  C_15
REMARK                            x       y       z     vdW  Elec       q    Type
REMARK                         _______ _______ _______ _____ _____    ______ ____
ROOT
ATOM      1  C   UNL     1       1.972   7.329  19.641  0.00  0.00    +0.000 A 
ATOM      2  C   UNL     1       1.384   8.543  19.346  0.00  0.00    +0.000 A 
ATOM      3  C   UNL     1       1.843   9.161  18.202  0.00  0.00    +0.000 A 
ATOM      4  N   UNL     1       2.816   8.685  17.415  0.00  0.00    +0.000 NA
ATOM      5  C   UNL     1       3.352   7.519  17.790  0.00  0.00    +0.000 A 
ATOM      6  N   UNL     1       2.958   6.809  18.870  0.00  0.00    +0.000 NA
ENDROOT
BRANCH   3   7
ATOM      7  O   UNL     1       1.288  10.335  17.786  0.00  0.00    +0.000 OA
ATOM      8  H   UNL     1       1.939  11.041  17.890  0.00  0.00    +0.000 HD
ENDBRANCH   3   7
BRANCH   1   9
ATOM      9  C   UNL     1       1.502   6.533  20.847  0.00  0.00    +0.000 C 
BRANCH   9  15
ATOM     10  C   UNL     1       0.515   2.153  18.507  0.00  0.00    +0.000 C 
ATOM     11  C   UNL     1       1.216   2.917  19.594  0.00  0.00    +0.000 A 
ATOM     12  C   UNL     1       2.006   2.250  20.537  0.00  0.00    +0.000 A 
ATOM     13  C   UNL     1       2.645   2.964  21.551  0.00  0.00    +0.000 A 
ATOM     14  C   UNL     1       2.485   4.347  21.642  0.00  0.00    +0.000 A 
ATOM     15  C   UNL     1       1.686   5.036  20.721  0.00  0.00    +0.000 A 
ATOM     16  C   UNL     1       1.075   4.312  19.682  0.00  0.00    +0.000 A 
ENDBRANCH   9  15
ENDBRANCH   1   9
BRANCH   5  17
ATOM     17  S   UNL     1       4.624   6.771  16.780  0.00  0.00    +0.000 S 
BRANCH  17  18
ATOM     18  C   UNL     1       4.802   5.082  17.514  0.00  0.00    +0.000 C 
ATOM     19  C   UNL     1       5.491   4.096  16.560  0.00  0.00    +0.000 C 
ATOM     20  C   UNL     1       6.975   4.394  16.334  0.00  0.00    +0.000 C 
ATOM     21  C   UNL     1       7.758   4.529  17.637  0.00  0.00    +0.000 C 
ATOM     22  C   UNL     1       7.089   5.453  18.649  0.00  0.00    +0.000 C 
ATOM     23  C   UNL     1       5.601   5.143  18.832  0.00  0.00    +0.000 C 
ENDBRANCH  17  18
ENDBRANCH   5  17
TORSDOF 5
ENDMDL
