MODEL 1
REMARK VINA RESULT:      -7.6      0.000      0.000
REMARK  Name = 
REMARK  12 active torsions:
REMARK  status: ('A' for Active; 'I' for Inactive)
REMARK    1  A    between atoms: C_1  and  C_2
REMARK    2  A    between atoms: C_2  and  C_3
REMARK    3  A    between atoms: C_2  and  O_4
REMARK    4  A    between atoms: O_4  and  C_5
REMARK    5  A    between atoms: C_7  and  N_8
REMARK    6  A    between atoms: C_17  and  C_18
REMARK    7  A    between atoms: C_18  and  N_19
REMARK    8  A    between atoms: N_19  and  C_20
REMARK    9  A    between atoms: C_21  and  C_23
REMARK   10  A    between atoms: C_23  and  O_24
REMARK   11  A    between atoms: CA_25  and  C_26
REMARK   12  A    between atoms: C_32  and  C_33
REMARK                            x       y       z     vdW  Elec       q    Type
REMARK                         _______ _______ _______ _____ _____    ______ ____
ROOT
ATOM      1  N   UNL     1       0.557   9.408  19.920  0.00  0.00    +0.000 N 
ATOM      2  C   UNL     1       0.640  10.312  20.950  0.00  0.00    +0.000 C 
ATOM      3  O   UNL     1       1.562  10.319  21.764  0.00  0.00    +0.000 OA
ATOM      4  N   UNL     1      -0.436  11.225  21.005  0.00  0.00    +0.000 N 
ATOM      5  C   UNL     1      -0.462  12.208  22.088  0.00  0.00    +0.000 C 
ATOM      6  C   UNL     1      -1.869  12.370  22.639  0.00  0.00    +0.000 C 
ATOM      7  C   UNL     1      -2.793  12.879  21.541  0.00  0.00    +0.000 C 
ATOM      8  C   UNL     1      -2.564  12.171  20.233  0.00  0.00    +0.000 A 
ATOM      9  C   UNL     1      -3.520  12.301  19.209  0.00  0.00    +0.000 A 
ATOM     10  C   UNL     1      -3.426  11.564  18.017  0.00  0.00    +0.000 A 
ATOM     11  CA  UNL     1      -2.285  10.782  17.885  0.00  0.00    +0.000 A 
ATOM     12  N   UNL     1      -1.318  10.690  18.843  0.00  0.00    +0.000 NA
ATOM     13  C   UNL     1      -1.456  11.360  20.007  0.00  0.00    +0.000 A 
ATOM     14  H   UNL     1       0.073   9.816  19.131  0.00  0.00    +0.000 HD
ENDROOT
BRANCH   1  17
ATOM     15  C   UNL     1       2.783   6.491  19.484  0.00  0.00    +0.000 A 
ATOM     16  C   UNL     1       1.906   7.386  20.127  0.00  0.00    +0.000 A 
ATOM     17  C   UNL     1       1.574   8.569  19.485  0.00  0.00    +0.000 A 
ATOM     18  N   UNL     1       2.049   8.908  18.271  0.00  0.00    +0.000 NA
ATOM     19  C   UNL     1       2.919   8.061  17.692  0.00  0.00    +0.000 A 
ATOM     20  C   UNL     1       3.289   6.833  18.224  0.00  0.00    +0.000 A 
BRANCH  20  21
ATOM     21  C   UNL     1       4.090   6.002  17.386  0.00  0.00    +0.000 C 
ATOM     22  N   UNL     1       4.708   5.292  16.702  0.00  0.00    +0.000 NA
ENDBRANCH  20  21
BRANCH  15  23
ATOM     23  O   UNL     1       2.931   5.288  20.125  0.00  0.00    +0.000 OA
BRANCH  23  25
ATOM     24  C   UNL     1       1.274   3.766  19.305  0.00  0.00    +0.000 C 
ATOM     25  C   UNL     1       1.767   4.546  20.521  0.00  0.00    +0.000 C 
ATOM     26  C   UNL     1       2.151   3.569  21.633  0.00  0.00    +0.000 C 
ENDBRANCH  23  25
ENDBRANCH  15  23
ENDBRANCH   1  17
BRANCH  11  27
ATOM     27  C   UNL     1      -1.976   9.909  16.723  0.00  0.00    +0.000 C 
ATOM     28  O   UNL     1      -2.783   9.548  15.880  0.00  0.00    +0.000 OA
ENDBRANCH  11  27
BRANCH  10  29
ATOM     29  C   UNL     1      -4.579  11.578  17.040  0.00  0.00    +0.000 C 
BRANCH  29  30
ATOM     30  N   UNL     1      -5.919  11.635  17.625  0.00  0.00    +0.000 N 
ATOM     31  C   UNL     1      -6.208  10.670  18.684  0.00  0.00    +0.000 C 
ATOM     32  C   UNL     1      -6.622  12.840  17.556  0.00  0.00    +0.000 C 
ATOM     33  O   UNL     1      -6.236  13.811  16.900  0.00  0.00    +0.000 OA
BRANCH  32  34
ATOM     34  C   UNL     1      -7.913  12.948  18.391  0.00  0.00    +0.000 C 
BRANCH  34  35
ATOM     35  O   UNL     1      -7.750  13.650  19.613  0.00  0.00    +0.000 OA
ATOM     36  H   UNL     1      -8.469  14.309  19.645  0.00  0.00    +0.000 HD
ENDBRANCH  34  35
ENDBRANCH  32  34
ENDBRANCH  29  30
ENDBRANCH  10  29
TORSDOF 9
ENDMDL
MODEL 2
REMARK VINA RESULT:      -7.4      4.183     10.059
REMARK  Name = 
REMARK  12 active torsions:
REMARK  status: ('A' for Active; 'I' for Inactive)
REMARK    1  A    between atoms: C_1  and  C_2
REMARK    2  A    between atoms: C_2  and  C_3
REMARK    3  A    between atoms: C_2  and  O_4
REMARK    4  A    between atoms: O_4  and  C_5
REMARK    5  A    between atoms: C_7  and  N_8
REMARK    6  A    between atoms: C_17  and  C_18
REMARK    7  A    between atoms: C_18  and  N_19
REMARK    8  A    between atoms: N_19  and  C_20
REMARK    9  A    between atoms: C_21  and  C_23
REMARK   10  A    between atoms: C_23  and  O_24
REMARK   11  A    between atoms: CA_25  and  C_26
REMARK   12  A    between atoms: C_32  and  C_33
REMARK                            x       y       z     vdW  Elec       q    Type
REMARK                         _______ _______ _______ _____ _____    ______ ____
ROOT
ATOM      1  N   UNL     1       2.122   7.496  19.970  0.00  0.00    +0.000 N 
ATOM      2  C   UNL     1       1.490   6.429  20.558  0.00  0.00    +0.000 C 
ATOM      3  O   UNL     1       0.462   6.541  21.223  0.00  0.00    +0.000 OA
ATOM      4  N   UNL     1       2.134   5.190  20.348  0.00  0.00    +0.000 N 
ATOM      5  C   UNL     1       1.562   3.992  20.964  0.00  0.00    +0.000 C 
ATOM      6  C   UNL     1       2.652   3.098  21.529  0.00  0.00    +0.000 C 
ATOM      7  C   UNL     1       3.569   2.637  20.403  0.00  0.00    +0.000 C 
ATOM      8  C   UNL     1       3.914   3.755  19.457  0.00  0.00    +0.000 A 
ATOM      9  C   UNL     1       4.973   3.579  18.549  0.00  0.00    +0.000 A 
ATOM     10  C   UNL     1       5.425   4.629  17.732  0.00  0.00    +0.000 A 
ATOM     11  CA  UNL     1       4.693   5.808  17.815  0.00  0.00    +0.000 A 
ATOM     12  N   UNL     1       3.625   5.977  18.647  0.00  0.00    +0.000 NA
ATOM     13  C   UNL     1       3.245   4.975  19.467  0.00  0.00    +0.000 A 
ATOM     14  H   UNL     1       2.602   7.202  19.128  0.00  0.00    +0.000 HD
ENDROOT
BRANCH   1  17
ATOM     15  C   UNL     1       0.851  10.902  20.633  0.00  0.00    +0.000 A 
ATOM     16  C   UNL     1       1.147   9.545  20.866  0.00  0.00    +0.000 A 
ATOM     17  C   UNL     1       1.594   8.770  19.807  0.00  0.00    +0.000 A 
ATOM     18  N   UNL     1       1.760   9.251  18.560  0.00  0.00    +0.000 NA
ATOM     19  C   UNL     1       1.432  10.538  18.347  0.00  0.00    +0.000 A 
ATOM     20  C   UNL     1       1.015  11.415  19.340  0.00  0.00    +0.000 A 
BRANCH  20  21
ATOM     21  C   UNL     1       0.875  12.780  18.954  0.00  0.00    +0.000 C 
ATOM     22  N   UNL     1       0.732  13.901  18.676  0.00  0.00    +0.000 NA
ENDBRANCH  20  21
BRANCH  15  23
ATOM     23  O   UNL     1       0.564  11.619  21.767  0.00  0.00    +0.000 OA
BRANCH  23  25
ATOM     24  C   UNL     1      -1.334  11.082  23.122  0.00  0.00    +0.000 C 
ATOM     25  C   UNL     1      -0.791  12.007  22.038  0.00  0.00    +0.000 C 
ATOM     26  C   UNL     1      -0.806  13.450  22.544  0.00  0.00    +0.000 C 
ENDBRANCH  23  25
ENDBRANCH  15  23
ENDBRANCH   1  17
BRANCH  11  27
ATOM     27  C   UNL     1       4.989   7.053  17.059  0.00  0.00    +0.000 C 
ATOM     28  O   UNL     1       5.098   7.129  15.845  0.00  0.00    +0.000 OA
ENDBRANCH  11  27
BRANCH  10  29
ATOM     29  C   UNL     1       6.693   4.456  16.929  0.00  0.00    +0.000 C 
BRANCH  29  30
ATOM     30  N   UNL     1       6.528   3.957  15.563  0.00  0.00    +0.000 N 
ATOM     31  C   UNL     1       5.364   3.109  15.318  0.00  0.00    +0.000 C 
ATOM     32  C   UNL     1       7.109   4.679  14.519  0.00  0.00    +0.000 C 
ATOM     33  O   UNL     1       7.877   5.628  14.699  0.00  0.00    +0.000 OA
BRANCH  32  34
ATOM     34  C   UNL     1       6.715   4.279  13.084  0.00  0.00    +0.000 C 
BRANCH  34  35
ATOM     35  O   UNL     1       7.573   4.804  12.084  0.00  0.00    +0.000 OA
ATOM     36  H   UNL     1       7.736   4.076  11.456  0.00  0.00    +0.000 HD
ENDBRANCH  34  35
ENDBRANCH  32  34
ENDBRANCH  29  30
ENDBRANCH  10  29
TORSDOF 9
ENDMDL
MODEL 3
REMARK VINA RESULT:      -7.4      3.492     10.445
REMARK  Name = 
REMARK  12 active torsions:
REMARK  status: ('A' for Active; 'I' for Inactive)
REMARK    1  A    between atoms: C_1  and  C_2
REMARK    2  A    between atoms: C_2  and  C_3
REMARK    3  A    between atoms: C_2  and  O_4
REMARK    4  A    between atoms: O_4  and  C_5
REMARK    5  A    between atoms: C_7  and  N_8
REMARK    6  A    between atoms: C_17  and  C_18
REMARK    7  A    between atoms: C_18  and  N_19
REMARK    8  A    between atoms: N_19  and  C_20
REMARK    9  A    between atoms: C_21  and  C_23
REMARK   10  A    between atoms: C_23  and  O_24
REMARK   11  A    between atoms: CA_25  and  C_26
REMARK   12  A    between atoms: C_32  and  C_33
REMARK                            x       y       z     vdW  Elec       q    Type
REMARK                         _______ _______ _______ _____ _____    ______ ____
ROOT
ATOM      1  N   UNL     1       2.374   6.521  19.807  0.00  0.00    +0.000 N 
ATOM      2  C   UNL     1       1.669   5.346  19.888  0.00  0.00    +0.000 C 
ATOM      3  O   UNL     1       0.640   5.224  20.551  0.00  0.00    +0.000 OA
ATOM      4  N   UNL     1       2.240   4.279  19.159  0.00  0.00    +0.000 N 
ATOM      5  C   UNL     1       1.587   2.971  19.210  0.00  0.00    +0.000 C 
ATOM      6  C   UNL     1       2.613   1.856  19.323  0.00  0.00    +0.000 C 
ATOM      7  C   UNL     1       3.517   1.866  18.096  0.00  0.00    +0.000 C 
ATOM      8  C   UNL     1       3.942   3.259  17.717  0.00  0.00    +0.000 A 
ATOM      9  C   UNL     1       5.003   3.425  16.808  0.00  0.00    +0.000 A 
ATOM     10  C   UNL     1       5.529   4.694  16.515  0.00  0.00    +0.000 A 
ATOM     11  CA  UNL     1       4.869   5.766  17.104  0.00  0.00    +0.000 A 
ATOM     12  N   UNL     1       3.801   5.627  17.941  0.00  0.00    +0.000 NA
ATOM     13  C   UNL     1       3.349   4.395  18.258  0.00  0.00    +0.000 A 
ATOM     14  H   UNL     1       2.847   6.587  18.915  0.00  0.00    +0.000 HD
ENDROOT
BRANCH   1  17
ATOM     15  C   UNL     1       0.743   9.836  19.873  0.00  0.00    +0.000 A 
ATOM     16  C   UNL     1       1.381   8.701  19.339  0.00  0.00    +0.000 A 
ATOM     17  C   UNL     1       1.926   7.771  20.212  0.00  0.00    +0.000 A 
ATOM     18  N   UNL     1       1.875   7.901  21.552  0.00  0.00    +0.000 NA
ATOM     19  C   UNL     1       1.299   9.013  22.042  0.00  0.00    +0.000 A 
ATOM     20  C   UNL     1       0.686   9.986  21.264  0.00  0.00    +0.000 A 
BRANCH  20  21
ATOM     21  C   UNL     1      -0.015  11.006  21.972  0.00  0.00    +0.000 C 
ATOM     22  N   UNL     1      -0.629  11.821  22.531  0.00  0.00    +0.000 NA
ENDBRANCH  20  21
BRANCH  15  23
ATOM     23  O   UNL     1       0.106  10.615  18.940  0.00  0.00    +0.000 OA
BRANCH  23  25
ATOM     24  C   UNL     1      -1.924  11.883  18.913  0.00  0.00    +0.000 C 
ATOM     25  C   UNL     1      -1.314  10.493  18.763  0.00  0.00    +0.000 C 
ATOM     26  C   UNL     1      -1.597   9.960  17.358  0.00  0.00    +0.000 C 
ENDBRANCH  23  25
ENDBRANCH  15  23
ENDBRANCH   1  17
BRANCH  11  27
ATOM     27  C   UNL     1       5.251   7.194  16.951  0.00  0.00    +0.000 C 
ATOM     28  O   UNL     1       6.383   7.636  17.071  0.00  0.00    +0.000 OA
ENDBRANCH  11  27
BRANCH  10  29
ATOM     29  C   UNL     1       6.796   4.805  15.698  0.00  0.00    +0.000 C 
BRANCH  29  30
ATOM     30  N   UNL     1       6.694   4.410  14.293  0.00  0.00    +0.000 N 
ATOM     31  C   UNL     1       5.393   3.914  13.850  0.00  0.00    +0.000 C 
ATOM     32  C   UNL     1       7.583   4.980  13.379  0.00  0.00    +0.000 C 
ATOM     33  O   UNL     1       8.540   5.681  13.714  0.00  0.00    +0.000 OA
BRANCH  32  34
ATOM     34  C   UNL     1       7.297   4.744  11.882  0.00  0.00    +0.000 C 
BRANCH  34  35
ATOM     35  O   UNL     1       7.412   3.387  11.483  0.00  0.00    +0.000 OA
ATOM     36  H   UNL     1       6.654   2.921  11.883  0.00  0.00    +0.000 HD
ENDBRANCH  34  35
ENDBRANCH  32  34
ENDBRANCH  29  30
ENDBRANCH  10  29
TORSDOF 9
ENDMDL
MODEL 4
REMARK VINA RESULT:      -7.0      4.057     10.496
REMARK  Name = 
REMARK  12 active torsions:
REMARK  status: ('A' for Active; 'I' for Inactive)
REMARK    1  A    between atoms: C_1  and  C_2
REMARK    2  A    between atoms: C_2  and  C_3
REMARK    3  A    between atoms: C_2  and  O_4
REMARK    4  A    between atoms: O_4  and  C_5
REMARK    5  A    between atoms: C_7  and  N_8
REMARK    6  A    between atoms: C_17  and  C_18
REMARK    7  A    between atoms: C_18  and  N_19
REMARK    8  A    between atoms: N_19  and  C_20
REMARK    9  A    between atoms: C_21  and  C_23
REMARK   10  A    between atoms: C_23  and  O_24
REMARK   11  A    between atoms: CA_25  and  C_26
REMARK   12  A    between atoms: C_32  and  C_33
REMARK                            x       y       z     vdW  Elec       q    Type
REMARK                         _______ _______ _______ _____ _____    ______ ____
ROOT
ATOM      1  N   UNL     1       2.375   6.403  19.721  0.00  0.00    +0.000 N 
ATOM      2  C   UNL     1       1.674   5.225  19.781  0.00  0.00    +0.000 C 
ATOM      3  O   UNL     1       0.634   5.095  20.425  0.00  0.00    +0.000 OA
ATOM      4  N   UNL     1       2.261   4.166  19.054  0.00  0.00    +0.000 N 
ATOM      5  C   UNL     1       1.612   2.855  19.083  0.00  0.00    +0.000 C 
ATOM      6  C   UNL     1       2.640   1.743  19.206  0.00  0.00    +0.000 C 
ATOM      7  C   UNL     1       3.564   1.766  17.995  0.00  0.00    +0.000 C 
ATOM      8  C   UNL     1       3.992   3.162  17.634  0.00  0.00    +0.000 A 
ATOM      9  C   UNL     1       5.067   3.339  16.744  0.00  0.00    +0.000 A 
ATOM     10  C   UNL     1       5.594   4.612  16.470  0.00  0.00    +0.000 A 
ATOM     11  CA  UNL     1       4.920   5.677  17.056  0.00  0.00    +0.000 A 
ATOM     12  N   UNL     1       3.838   5.528  17.874  0.00  0.00    +0.000 NA
ATOM     13  C   UNL     1       3.385   4.293  18.173  0.00  0.00    +0.000 A 
ATOM     14  H   UNL     1       2.864   6.478  18.838  0.00  0.00    +0.000 HD
ENDROOT
BRANCH   1  17
ATOM     15  C   UNL     1       1.054   9.854  19.713  0.00  0.00    +0.000 A 
ATOM     16  C   UNL     1       1.742   8.714  19.256  0.00  0.00    +0.000 A 
ATOM     17  C   UNL     1       1.917   7.649  20.128  0.00  0.00    +0.000 A 
ATOM     18  N   UNL     1       1.458   7.650  21.395  0.00  0.00    +0.000 NA
ATOM     19  C   UNL     1       0.842   8.765  21.825  0.00  0.00    +0.000 A 
ATOM     20  C   UNL     1       0.576   9.871  21.029  0.00  0.00    +0.000 A 
BRANCH  20  21
ATOM     21  C   UNL     1      -0.234  10.887  21.615  0.00  0.00    +0.000 C 
ATOM     22  N   UNL     1      -0.868  11.749  22.074  0.00  0.00    +0.000 NA
ENDBRANCH  20  21
BRANCH  15  23
ATOM     23  O   UNL     1       0.800  10.786  18.739  0.00  0.00    +0.000 OA
BRANCH  23  25
ATOM     24  C   UNL     1       2.518  12.244  17.930  0.00  0.00    +0.000 C 
ATOM     25  C   UNL     1       1.326  12.115  18.873  0.00  0.00    +0.000 C 
ATOM     26  C   UNL     1       0.247  13.122  18.472  0.00  0.00    +0.000 C 
ENDBRANCH  23  25
ENDBRANCH  15  23
ENDBRANCH   1  17
BRANCH  11  27
ATOM     27  C   UNL     1       5.299   7.108  16.920  0.00  0.00    +0.000 C 
ATOM     28  O   UNL     1       6.435   7.546  17.018  0.00  0.00    +0.000 OA
ENDBRANCH  11  27
BRANCH  10  29
ATOM     29  C   UNL     1       6.874   4.733  15.677  0.00  0.00    +0.000 C 
BRANCH  29  30
ATOM     30  N   UNL     1       6.778   4.433  14.248  0.00  0.00    +0.000 N 
ATOM     31  C   UNL     1       5.497   3.912  13.778  0.00  0.00    +0.000 C 
ATOM     32  C   UNL     1       7.633   5.105  13.371  0.00  0.00    +0.000 C 
ATOM     33  O   UNL     1       8.562   5.822  13.750  0.00  0.00    +0.000 OA
BRANCH  32  34
ATOM     34  C   UNL     1       7.346   4.961  11.864  0.00  0.00    +0.000 C 
BRANCH  34  35
ATOM     35  O   UNL     1       7.712   6.098  11.098  0.00  0.00    +0.000 OA
ATOM     36  H   UNL     1       6.895   6.407  10.664  0.00  0.00    +0.000 HD
ENDBRANCH  34  35
ENDBRANCH  32  34
ENDBRANCH  29  30
ENDBRANCH  10  29
TORSDOF 9
ENDMDL
MODEL 5
REMARK VINA RESULT:      -6.9      4.218      7.740
REMARK  Name = 
REMARK  12 active torsions:
REMARK  status: ('A' for Active; 'I' for Inactive)
REMARK    1  A    between atoms: C_1  and  C_2
REMARK    2  A    between atoms: C_2  and  C_3
REMARK    3  A    between atoms: C_2  and  O_4
REMARK    4  A    between atoms: O_4  and  C_5
REMARK    5  A    between atoms: C_7  and  N_8
REMARK    6  A    between atoms: C_17  and  C_18
REMARK    7  A    between atoms: C_18  and  N_19
REMARK    8  A    between atoms: N_19  and  C_20
REMARK    9  A    between atoms: C_21  and  C_23
REMARK   10  A    between atoms: C_23  and  O_24
REMARK   11  A    between atoms: CA_25  and  C_26
REMARK   12  A    between atoms: C_32  and  C_33
REMARK                            x       y       z     vdW  Elec       q    Type
REMARK                         _______ _______ _______ _____ _____    ______ ____
ROOT
ATOM      1  N   UNL     1       4.214   4.349  17.242  0.00  0.00    +0.000 N 
ATOM      2  C   UNL     1       4.054   3.334  18.153  0.00  0.00    +0.000 C 
ATOM      3  O   UNL     1       4.582   2.231  18.029  0.00  0.00    +0.000 OA
ATOM      4  N   UNL     1       3.212   3.662  19.239  0.00  0.00    +0.000 N 
ATOM      5  C   UNL     1       2.945   2.637  20.248  0.00  0.00    +0.000 C 
ATOM      6  C   UNL     1       1.485   2.657  20.669  0.00  0.00    +0.000 C 
ATOM      7  C   UNL     1       1.151   4.006  21.291  0.00  0.00    +0.000 C 
ATOM      8  C   UNL     1       1.735   5.152  20.510  0.00  0.00    +0.000 A 
ATOM      9  C   UNL     1       1.279   6.458  20.768  0.00  0.00    +0.000 A 
ATOM     10  C   UNL     1       1.690   7.549  19.985  0.00  0.00    +0.000 A 
ATOM     11  CA  UNL     1       2.643   7.264  19.014  0.00  0.00    +0.000 A 
ATOM     12  N   UNL     1       3.141   6.014  18.790  0.00  0.00    +0.000 NA
ATOM     13  C   UNL     1       2.688   4.968  19.513  0.00  0.00    +0.000 A 
ATOM     14  H   UNL     1       4.145   5.249  17.700  0.00  0.00    +0.000 HD
ENDROOT
BRANCH   1  17
ATOM     15  C   UNL     1       5.821   4.401  13.915  0.00  0.00    +0.000 A 
ATOM     16  C   UNL     1       4.864   4.102  14.903  0.00  0.00    +0.000 A 
ATOM     17  C   UNL     1       5.160   4.393  16.226  0.00  0.00    +0.000 A 
ATOM     18  N   UNL     1       6.322   4.950  16.616  0.00  0.00    +0.000 NA
ATOM     19  C   UNL     1       7.241   5.189  15.664  0.00  0.00    +0.000 A 
ATOM     20  C   UNL     1       7.036   4.976  14.307  0.00  0.00    +0.000 A 
BRANCH  20  21
ATOM     21  C   UNL     1       8.063   5.446  13.436  0.00  0.00    +0.000 C 
ATOM     22  N   UNL     1       8.895   5.790  12.698  0.00  0.00    +0.000 NA
ENDBRANCH  20  21
BRANCH  15  23
ATOM     23  O   UNL     1       5.380   4.219  12.629  0.00  0.00    +0.000 OA
BRANCH  23  25
ATOM     24  C   UNL     1       3.992   3.013  11.097  0.00  0.00    +0.000 C 
ATOM     25  C   UNL     1       5.077   2.896  12.162  0.00  0.00    +0.000 C 
ATOM     26  C   UNL     1       6.335   2.285  11.544  0.00  0.00    +0.000 C 
ENDBRANCH  23  25
ENDBRANCH  15  23
ENDBRANCH   1  17
BRANCH  11  27
ATOM     27  C   UNL     1       3.216   8.250  18.062  0.00  0.00    +0.000 C 
ATOM     28  O   UNL     1       2.604   8.787  17.152  0.00  0.00    +0.000 OA
ENDBRANCH  11  27
BRANCH  10  29
ATOM     29  C   UNL     1       1.017   8.890  20.164  0.00  0.00    +0.000 C 
BRANCH  29  30
ATOM     30  N   UNL     1       0.583   9.216  21.523  0.00  0.00    +0.000 N 
ATOM     31  C   UNL     1       1.580   9.059  22.579  0.00  0.00    +0.000 C 
ATOM     32  C   UNL     1      -0.482  10.106  21.682  0.00  0.00    +0.000 C 
ATOM     33  O   UNL     1      -1.170  10.512  20.742  0.00  0.00    +0.000 OA
BRANCH  32  34
ATOM     34  C   UNL     1      -0.756  10.624  23.108  0.00  0.00    +0.000 C 
BRANCH  34  35
ATOM     35  O   UNL     1      -1.937  11.401  23.220  0.00  0.00    +0.000 OA
ATOM     36  H   UNL     1      -2.258  11.278  24.133  0.00  0.00    +0.000 HD
ENDBRANCH  34  35
ENDBRANCH  32  34
ENDBRANCH  29  30
ENDBRANCH  10  29
TORSDOF 9
ENDMDL
MODEL 6
REMARK VINA RESULT:      -6.9      4.164      5.322
REMARK  Name = 
REMARK  12 active torsions:
REMARK  status: ('A' for Active; 'I' for Inactive)
REMARK    1  A    between atoms: C_1  and  C_2
REMARK    2  A    between atoms: C_2  and  C_3
REMARK    3  A    between atoms: C_2  and  O_4
REMARK    4  A    between atoms: O_4  and  C_5
REMARK    5  A    between atoms: C_7  and  N_8
REMARK    6  A    between atoms: C_17  and  C_18
REMARK    7  A    between atoms: C_18  and  N_19
REMARK    8  A    between atoms: N_19  and  C_20
REMARK    9  A    between atoms: C_21  and  C_23
REMARK   10  A    between atoms: C_23  and  O_24
REMARK   11  A    between atoms: CA_25  and  C_26
REMARK   12  A    between atoms: C_32  and  C_33
REMARK                            x       y       z     vdW  Elec       q    Type
REMARK                         _______ _______ _______ _____ _____    ______ ____
ROOT
ATOM      1  N   UNL     1       1.103   9.177  20.255  0.00  0.00    +0.000 N 
ATOM      2  C   UNL     1       0.459   9.193  21.467  0.00  0.00    +0.000 C 
ATOM      3  O   UNL     1       0.295   8.186  22.154  0.00  0.00    +0.000 OA
ATOM      4  N   UNL     1      -0.018  10.466  21.850  0.00  0.00    +0.000 N 
ATOM      5  C   UNL     1      -0.752  10.586  23.110  0.00  0.00    +0.000 C 
ATOM      6  C   UNL     1      -1.945  11.515  22.957  0.00  0.00    +0.000 C 
ATOM      7  C   UNL     1      -1.461  12.909  22.578  0.00  0.00    +0.000 C 
ATOM      8  C   UNL     1      -0.385  12.870  21.527  0.00  0.00    +0.000 A 
ATOM      9  C   UNL     1      -0.044  14.058  20.854  0.00  0.00    +0.000 A 
ATOM     10  C   UNL     1       0.858  14.060  19.777  0.00  0.00    +0.000 A 
ATOM     11  CA  UNL     1       1.456  12.838  19.495  0.00  0.00    +0.000 A 
ATOM     12  N   UNL     1       1.182  11.688  20.176  0.00  0.00    +0.000 NA
ATOM     13  C   UNL     1       0.267  11.694  21.168  0.00  0.00    +0.000 A 
ATOM     14  H   UNL     1       1.556  10.066  20.085  0.00  0.00    +0.000 HD
ENDROOT
BRANCH   1  17
ATOM     15  C   UNL     1       2.617   5.850  19.710  0.00  0.00    +0.000 A 
ATOM     16  C   UNL     1       2.018   6.920  20.403  0.00  0.00    +0.000 A 
ATOM     17  C   UNL     1       1.871   8.136  19.752  0.00  0.00    +0.000 A 
ATOM     18  N   UNL     1       2.274   8.346  18.484  0.00  0.00    +0.000 NA
ATOM     19  C   UNL     1       2.883   7.326  17.854  0.00  0.00    +0.000 A 
ATOM     20  C   UNL     1       3.044   6.056  18.393  0.00  0.00    +0.000 A 
BRANCH  20  21
ATOM     21  C   UNL     1       3.561   5.061  17.512  0.00  0.00    +0.000 C 
ATOM     22  N   UNL     1       3.963   4.216  16.821  0.00  0.00    +0.000 NA
ENDBRANCH  20  21
BRANCH  15  23
ATOM     23  O   UNL     1       2.580   4.654  20.380  0.00  0.00    +0.000 OA
BRANCH  23  25
ATOM     24  C   UNL     1       0.950   3.299  19.268  0.00  0.00    +0.000 C 
ATOM     25  C   UNL     1       1.323   3.988  20.577  0.00  0.00    +0.000 C 
ATOM     26  C   UNL     1       1.480   2.941  21.679  0.00  0.00    +0.000 C 
ENDBRANCH  23  25
ENDBRANCH  15  23
ENDBRANCH   1  17
BRANCH  11  27
ATOM     27  C   UNL     1       2.429  12.595  18.398  0.00  0.00    +0.000 C 
ATOM     28  O   UNL     1       2.612  11.521  17.845  0.00  0.00    +0.000 OA
ENDBRANCH  11  27
BRANCH  10  29
ATOM     29  C   UNL     1       1.033  15.316  18.955  0.00  0.00    +0.000 C 
BRANCH  29  30
ATOM     30  N   UNL     1       1.664  16.448  19.634  0.00  0.00    +0.000 N 
ATOM     31  C   UNL     1       0.801  17.252  20.496  0.00  0.00    +0.000 C 
ATOM     32  C   UNL     1       3.042  16.402  19.858  0.00  0.00    +0.000 C 
ATOM     33  O   UNL     1       3.775  15.531  19.384  0.00  0.00    +0.000 OA
BRANCH  32  34
ATOM     34  C   UNL     1       3.638  17.477  20.788  0.00  0.00    +0.000 C 
BRANCH  34  35
ATOM     35  O   UNL     1       4.615  18.296  20.167  0.00  0.00    +0.000 OA
ATOM     36  H   UNL     1       5.462  17.818  20.249  0.00  0.00    +0.000 HD
ENDBRANCH  34  35
ENDBRANCH  32  34
ENDBRANCH  29  30
ENDBRANCH  10  29
TORSDOF 9
ENDMDL
MODEL 7
REMARK VINA RESULT:      -6.9      3.827      5.038
REMARK  Name = 
REMARK  12 active torsions:
REMARK  status: ('A' for Active; 'I' for Inactive)
REMARK    1  A    between atoms: C_1  and  C_2
REMARK    2  A    between atoms: C_2  and  C_3
REMARK    3  A    between atoms: C_2  and  O_4
REMARK    4  A    between atoms: O_4  and  C_5
REMARK    5  A    between atoms: C_7  and  N_8
REMARK    6  A    between atoms: C_17  and  C_18
REMARK    7  A    between atoms: C_18  and  N_19
REMARK    8  A    between atoms: N_19  and  C_20
REMARK    9  A    between atoms: C_21  and  C_23
REMARK   10  A    between atoms: C_23  and  O_24
REMARK   11  A    between atoms: CA_25  and  C_26
REMARK   12  A    between atoms: C_32  and  C_33
REMARK                            x       y       z     vdW  Elec       q    Type
REMARK                         _______ _______ _______ _____ _____    ______ ____
ROOT
ATOM      1  N   UNL     1       2.058   8.528  19.282  0.00  0.00    +0.000 N 
ATOM      2  C   UNL     1       2.249   9.444  18.278  0.00  0.00    +0.000 C 
ATOM      3  O   UNL     1       2.824   9.175  17.224  0.00  0.00    +0.000 OA
ATOM      4  N   UNL     1       1.744  10.731  18.566  0.00  0.00    +0.000 N 
ATOM      5  C   UNL     1       1.928  11.792  17.575  0.00  0.00    +0.000 C 
ATOM      6  C   UNL     1       2.301  13.103  18.247  0.00  0.00    +0.000 C 
ATOM      7  C   UNL     1       1.175  13.539  19.176  0.00  0.00    +0.000 C 
ATOM      8  C   UNL     1       0.633  12.395  19.987  0.00  0.00    +0.000 A 
ATOM      9  C   UNL     1      -0.189  12.671  21.095  0.00  0.00    +0.000 A 
ATOM     10  C   UNL     1      -0.618  11.655  21.965  0.00  0.00    +0.000 A 
ATOM     11  CA  UNL     1      -0.260  10.363  21.599  0.00  0.00    +0.000 A 
ATOM     12  N   UNL     1       0.487  10.070  20.496  0.00  0.00    +0.000 NA
ATOM     13  C   UNL     1       0.941  11.067  19.706  0.00  0.00    +0.000 A 
ATOM     14  H   UNL     1       1.214   8.742  19.798  0.00  0.00    +0.000 HD
ENDROOT
BRANCH   1  17
ATOM     15  C   UNL     1       3.173   5.184  18.177  0.00  0.00    +0.000 A 
ATOM     16  C   UNL     1       2.833   6.547  18.088  0.00  0.00    +0.000 A 
ATOM     17  C   UNL     1       2.229   7.154  19.179  0.00  0.00    +0.000 A 
ATOM     18  N   UNL     1       1.951   6.504  20.325  0.00  0.00    +0.000 NA
ATOM     19  C   UNL     1       2.244   5.192  20.375  0.00  0.00    +0.000 A 
ATOM     20  C   UNL     1       2.886   4.493  19.361  0.00  0.00    +0.000 A 
BRANCH  20  21
ATOM     21  C   UNL     1       3.263   3.152  19.664  0.00  0.00    +0.000 C 
ATOM     22  N   UNL     1       3.544   2.042  19.874  0.00  0.00    +0.000 NA
ENDBRANCH  20  21
BRANCH  15  23
ATOM     23  O   UNL     1       3.900   4.714  17.112  0.00  0.00    +0.000 OA
BRANCH  23  25
ATOM     24  C   UNL     1       6.217   4.718  17.712  0.00  0.00    +0.000 C 
ATOM     25  C   UNL     1       5.161   5.319  16.790  0.00  0.00    +0.000 C 
ATOM     26  C   UNL     1       5.511   4.999  15.336  0.00  0.00    +0.000 C 
ENDBRANCH  23  25
ENDBRANCH  15  23
ENDBRANCH   1  17
BRANCH  11  27
ATOM     27  C   UNL     1      -0.588   9.134  22.368  0.00  0.00    +0.000 C 
ATOM     28  O   UNL     1      -0.765   8.027  21.883  0.00  0.00    +0.000 OA
ENDBRANCH  11  27
BRANCH  10  29
ATOM     29  C   UNL     1      -1.321  12.023  23.251  0.00  0.00    +0.000 C 
BRANCH  29  30
ATOM     30  N   UNL     1      -2.323  13.086  23.157  0.00  0.00    +0.000 N 
ATOM     31  C   UNL     1      -3.691  12.665  22.864  0.00  0.00    +0.000 C 
ATOM     32  C   UNL     1      -2.080  14.286  23.828  0.00  0.00    +0.000 C 
ATOM     33  O   UNL     1      -1.005  14.552  24.369  0.00  0.00    +0.000 OA
BRANCH  32  34
ATOM     34  C   UNL     1      -3.250  15.286  23.921  0.00  0.00    +0.000 C 
BRANCH  34  35
ATOM     35  O   UNL     1      -3.848  15.353  25.206  0.00  0.00    +0.000 OA
ATOM     36  H   UNL     1      -3.544  14.561  25.688  0.00  0.00    +0.000 HD
ENDBRANCH  34  35
ENDBRANCH  32  34
ENDBRANCH  29  30
ENDBRANCH  10  29
TORSDOF 9
ENDMDL
MODEL 8
REMARK VINA RESULT:      -6.9      3.465      4.788
REMARK  Name = 
REMARK  12 active torsions:
REMARK  status: ('A' for Active; 'I' for Inactive)
REMARK    1  A    between atoms: C_1  and  C_2
REMARK    2  A    between atoms: C_2  and  C_3
REMARK    3  A    between atoms: C_2  and  O_4
REMARK    4  A    between atoms: O_4  and  C_5
REMARK    5  A    between atoms: C_7  and  N_8
REMARK    6  A    between atoms: C_17  and  C_18
REMARK    7  A    between atoms: C_18  and  N_19
REMARK    8  A    between atoms: N_19  and  C_20
REMARK    9  A    between atoms: C_21  and  C_23
REMARK   10  A    between atoms: C_23  and  O_24
REMARK   11  A    between atoms: CA_25  and  C_26
REMARK   12  A    between atoms: C_32  and  C_33
REMARK                            x       y       z     vdW  Elec       q    Type
REMARK                         _______ _______ _______ _____ _____    ______ ____
ROOT
ATOM      1  N   UNL     1       1.615   9.676  19.678  0.00  0.00    +0.000 N 
ATOM      2  C   UNL     1       1.784  10.539  18.624  0.00  0.00    +0.000 C 
ATOM      3  O   UNL     1       2.301  10.206  17.559  0.00  0.00    +0.000 OA
ATOM      4  N   UNL     1       1.330  11.853  18.875  0.00  0.00    +0.000 N 
ATOM      5  C   UNL     1       1.497  12.861  17.828  0.00  0.00    +0.000 C 
ATOM      6  C   UNL     1       1.938  14.189  18.420  0.00  0.00    +0.000 C 
ATOM      7  C   UNL     1       0.871  14.702  19.378  0.00  0.00    +0.000 C 
ATOM      8  C   UNL     1       0.336  13.612  20.267  0.00  0.00    +0.000 A 
ATOM      9  C   UNL     1      -0.424  13.963  21.397  0.00  0.00    +0.000 A 
ATOM     10  C   UNL     1      -0.841  13.001  22.332  0.00  0.00    +0.000 A 
ATOM     11  CA  UNL     1      -0.537  11.684  22.011  0.00  0.00    +0.000 A 
ATOM     12  N   UNL     1       0.148  11.319  20.889  0.00  0.00    +0.000 NA
ATOM     13  C   UNL     1       0.592  12.264  20.033  0.00  0.00    +0.000 A 
ATOM     14  H   UNL     1       0.803   9.939  20.222  0.00  0.00    +0.000 HD
ENDROOT
BRANCH   1  17
ATOM     15  C   UNL     1       2.673   6.258  18.755  0.00  0.00    +0.000 A 
ATOM     16  C   UNL     1       2.388   7.629  18.599  0.00  0.00    +0.000 A 
ATOM     17  C   UNL     1       1.742   8.295  19.631  0.00  0.00    +0.000 A 
ATOM     18  N   UNL     1       1.373   7.695  20.778  0.00  0.00    +0.000 NA
ATOM     19  C   UNL     1       1.615   6.376  20.890  0.00  0.00    +0.000 A 
ATOM     20  C   UNL     1       2.290   5.621  19.941  0.00  0.00    +0.000 A 
BRANCH  20  21
ATOM     21  C   UNL     1       2.599   4.279  20.311  0.00  0.00    +0.000 C 
ATOM     22  N   UNL     1       2.805   3.177  20.623  0.00  0.00    +0.000 NA
ENDBRANCH  20  21
BRANCH  15  23
ATOM     23  O   UNL     1       3.444   5.726  17.752  0.00  0.00    +0.000 OA
BRANCH  23  25
ATOM     24  C   UNL     1       5.724   5.327  18.363  0.00  0.00    +0.000 C 
ATOM     25  C   UNL     1       4.781   6.210  17.552  0.00  0.00    +0.000 C 
ATOM     26  C   UNL     1       5.132   6.104  16.067  0.00  0.00    +0.000 C 
ENDBRANCH  23  25
ENDBRANCH  15  23
ENDBRANCH   1  17
BRANCH  11  27
ATOM     27  C   UNL     1      -0.863  10.502  22.850  0.00  0.00    +0.000 C 
ATOM     28  O   UNL     1      -0.144  10.038  23.722  0.00  0.00    +0.000 OA
ENDBRANCH  11  27
BRANCH  10  29
ATOM     29  C   UNL     1      -1.471  13.449  23.631  0.00  0.00    +0.000 C 
BRANCH  29  30
ATOM     30  N   UNL     1      -2.877  13.848  23.561  0.00  0.00    +0.000 N 
ATOM     31  C   UNL     1      -3.173  15.053  22.790  0.00  0.00    +0.000 C 
ATOM     32  C   UNL     1      -3.854  12.866  23.742  0.00  0.00    +0.000 C 
ATOM     33  O   UNL     1      -3.597  11.716  24.105  0.00  0.00    +0.000 OA
BRANCH  32  34
ATOM     34  C   UNL     1      -5.309  13.257  23.418  0.00  0.00    +0.000 C 
BRANCH  34  35
ATOM     35  O   UNL     1      -5.892  12.489  22.377  0.00  0.00    +0.000 OA
ATOM     36  H   UNL     1      -6.745  12.167  22.723  0.00  0.00    +0.000 HD
ENDBRANCH  34  35
ENDBRANCH  32  34
ENDBRANCH  29  30
ENDBRANCH  10  29
TORSDOF 9
ENDMDL
MODEL 9
REMARK VINA RESULT:      -6.8      3.812      4.883
REMARK  Name = 
REMARK  12 active torsions:
REMARK  status: ('A' for Active; 'I' for Inactive)
REMARK    1  A    between atoms: C_1  and  C_2
REMARK    2  A    between atoms: C_2  and  C_3
REMARK    3  A    between atoms: C_2  and  O_4
REMARK    4  A    between atoms: O_4  and  C_5
REMARK    5  A    between atoms: C_7  and  N_8
REMARK    6  A    between atoms: C_17  and  C_18
REMARK    7  A    between atoms: C_18  and  N_19
REMARK    8  A    between atoms: N_19  and  C_20
REMARK    9  A    between atoms: C_21  and  C_23
REMARK   10  A    between atoms: C_23  and  O_24
REMARK   11  A    between atoms: CA_25  and  C_26
REMARK   12  A    between atoms: C_32  and  C_33
REMARK                            x       y       z     vdW  Elec       q    Type
REMARK                         _______ _______ _______ _____ _____    ______ ____
ROOT
ATOM      1  N   UNL     1       1.626   9.605  19.662  0.00  0.00    +0.000 N 
ATOM      2  C   UNL     1       1.801  10.474  18.615  0.00  0.00    +0.000 C 
ATOM      3  O   UNL     1       2.319  10.145  17.549  0.00  0.00    +0.000 OA
ATOM      4  N   UNL     1       1.353  11.789  18.874  0.00  0.00    +0.000 N 
ATOM      5  C   UNL     1       1.527  12.803  17.834  0.00  0.00    +0.000 C 
ATOM      6  C   UNL     1       1.973  14.125  18.436  0.00  0.00    +0.000 C 
ATOM      7  C   UNL     1       0.906  14.636  19.396  0.00  0.00    +0.000 C 
ATOM      8  C   UNL     1       0.364  13.543  20.275  0.00  0.00    +0.000 A 
ATOM      9  C   UNL     1      -0.397  13.890  21.407  0.00  0.00    +0.000 A 
ATOM     10  C   UNL     1      -0.820  12.923  22.334  0.00  0.00    +0.000 A 
ATOM     11  CA  UNL     1      -0.522  11.607  22.004  0.00  0.00    +0.000 A 
ATOM     12  N   UNL     1       0.164  11.246  20.881  0.00  0.00    +0.000 NA
ATOM     13  C   UNL     1       0.614  12.195  20.033  0.00  0.00    +0.000 A 
ATOM     14  H   UNL     1       0.814   9.867  20.206  0.00  0.00    +0.000 HD
ENDROOT
BRANCH   1  17
ATOM     15  C   UNL     1       2.663   6.188  18.712  0.00  0.00    +0.000 A 
ATOM     16  C   UNL     1       2.383   7.560  18.567  0.00  0.00    +0.000 A 
ATOM     17  C   UNL     1       1.747   8.223  19.606  0.00  0.00    +0.000 A 
ATOM     18  N   UNL     1       1.381   7.618  20.752  0.00  0.00    +0.000 NA
ATOM     19  C   UNL     1       1.618   6.298  20.854  0.00  0.00    +0.000 A 
ATOM     20  C   UNL     1       2.284   5.545  19.897  0.00  0.00    +0.000 A 
BRANCH  20  21
ATOM     21  C   UNL     1       2.589   4.199  20.257  0.00  0.00    +0.000 C 
ATOM     22  N   UNL     1       2.839   3.090  20.504  0.00  0.00    +0.000 NA
ENDBRANCH  20  21
BRANCH  15  23
ATOM     23  O   UNL     1       3.426   5.659  17.702  0.00  0.00    +0.000 OA
BRANCH  23  25
ATOM     24  C   UNL     1       5.679   4.931  18.053  0.00  0.00    +0.000 C 
ATOM     25  C   UNL     1       4.794   6.069  17.555  0.00  0.00    +0.000 C 
ATOM     26  C   UNL     1       5.081   6.330  16.076  0.00  0.00    +0.000 C 
ENDBRANCH  23  25
ENDBRANCH  15  23
ENDBRANCH   1  17
BRANCH  11  27
ATOM     27  C   UNL     1      -0.856  10.420  22.835  0.00  0.00    +0.000 C 
ATOM     28  O   UNL     1      -0.122   9.919  23.672  0.00  0.00    +0.000 OA
ENDBRANCH  11  27
BRANCH  10  29
ATOM     29  C   UNL     1      -1.451  13.365  23.634  0.00  0.00    +0.000 C 
BRANCH  29  30
ATOM     30  N   UNL     1      -2.892  13.618  23.598  0.00  0.00    +0.000 N 
ATOM     31  C   UNL     1      -3.748  12.588  24.181  0.00  0.00    +0.000 C 
ATOM     32  C   UNL     1      -3.330  14.943  23.522  0.00  0.00    +0.000 C 
ATOM     33  O   UNL     1      -2.570  15.896  23.334  0.00  0.00    +0.000 OA
BRANCH  32  34
ATOM     34  C   UNL     1      -4.835  15.197  23.737  0.00  0.00    +0.000 C 
BRANCH  34  35
ATOM     35  O   UNL     1      -5.122  16.070  24.818  0.00  0.00    +0.000 OA
ATOM     36  H   UNL     1      -5.077  16.975  24.455  0.00  0.00    +0.000 HD
ENDBRANCH  34  35
ENDBRANCH  32  34
ENDBRANCH  29  30
ENDBRANCH  10  29
TORSDOF 9
ENDMDL
