MODEL 1
REMARK VINA RESULT:      -8.4      0.000      0.000
REMARK  Name = 
REMARK  13 active torsions:
REMARK  status: ('A' for Active; 'I' for Inactive)
REMARK    1  A    between atoms: C_1  and  C_2
REMARK    2  A    between atoms: C_2  and  C_3
REMARK    3  A    between atoms: C_2  and  C_4
REMARK    4  A    between atoms: C_4  and  C_5
REMARK    5  A    between atoms: C_5  and  O_6
REMARK    6  A    between atoms: C_5  and  C_7
REMARK    7  A    between atoms: N_9  and  C_10
REMARK    8  A    between atoms: N_9  and  C_29
REMARK    9  A    between atoms: C_10  and  C_11
REMARK   10  A    between atoms: C_11  and  N_12
REMARK   11  A    between atoms: C_18  and  C_19
REMARK   12  A    between atoms: C_23  and  C_24
REMARK   13  A    between atoms: C_29  and  C_30
REMARK                            x       y       z     vdW  Elec       q    Type
REMARK                         _______ _______ _______ _____ _____    ______ ____
ROOT
ATOM      1  C   UNL     1       4.478   5.368  19.032  0.00  0.00    +0.000 C 
ENDROOT
BRANCH   1   2
ATOM      2  N   UNL     1       5.700   5.975  18.474  0.00  0.00    +0.000 NA
ATOM      3  C   UNL     1       5.509   6.872  17.328  0.00  0.00    +0.000 C 
ATOM      4  C   UNL     1       6.959   7.291  17.082  0.00  0.00    +0.000 C 
ATOM      5  C   UNL     1       7.776   6.049  17.437  0.00  0.00    +0.000 C 
ATOM      6  C   UNL     1       6.749   5.060  18.001  0.00  0.00    +0.000 C 
ATOM      7  C   UNL     1       6.229   4.092  16.932  0.00  0.00    +0.000 C 
ATOM      8  C   UNL     1       5.450   4.765  15.781  0.00  0.00    +0.000 C 
ATOM      9  C   UNL     1       4.903   6.178  16.094  0.00  0.00    +0.000 C 
BRANCH   8  10
ATOM     10  C   UNL     1       6.150   4.590  14.435  0.00  0.00    +0.000 A 
ATOM     11  C   UNL     1       7.274   5.307  14.016  0.00  0.00    +0.000 A 
ATOM     12  C   UNL     1       7.837   5.081  12.751  0.00  0.00    +0.000 A 
ATOM     13  C   UNL     1       7.278   4.149  11.878  0.00  0.00    +0.000 A 
ATOM     14  C   UNL     1       6.160   3.412  12.276  0.00  0.00    +0.000 A 
ATOM     15  C   UNL     1       5.627   3.626  13.557  0.00  0.00    +0.000 A 
BRANCH  14  16
ATOM     16  C   UNL     1       5.455   2.416  11.417  0.00  0.00    +0.000 C 
ATOM     17  N   UNL     1       4.169   2.660  11.046  0.00  0.00    +0.000 N 
ATOM     18  O   UNL     1       5.994   1.374  11.063  0.00  0.00    +0.000 OA
ATOM     19  H   UNL     1       3.604   3.431  11.375  0.00  0.00    +0.000 HD
ATOM     20  H   UNL     1       3.709   1.913  10.542  0.00  0.00    +0.000 HD
ENDBRANCH  14  16
ENDBRANCH   8  10
ENDBRANCH   1   2
BRANCH   1  21
ATOM     21  C   UNL     1       3.238   6.275  18.839  0.00  0.00    +0.000 C 
BRANCH  21  24
ATOM     22  C   UNL     1       1.849   7.840  20.103  0.00  0.00    +0.000 C 
ATOM     23  O   UNL     1       2.131   8.726  19.283  0.00  0.00    +0.000 OA
ATOM     24  N   UNL     1       2.464   6.590  20.055  0.00  0.00    +0.000 N 
BRANCH  22  25
ATOM     25  C   UNL     1       0.800   8.156  21.194  0.00  0.00    +0.000 C 
BRANCH  25  26
ATOM     26  O   UNL     1       1.488   8.546  22.388  0.00  0.00    +0.000 OA
ATOM     27  H   UNL     1       1.304   7.848  23.046  0.00  0.00    +0.000 HD
ENDBRANCH  25  26
BRANCH  25  28
ATOM     28  C   UNL     1      -0.131   9.305  20.784  0.00  0.00    +0.000 C 
BRANCH  28  30
ATOM     29  C   UNL     1       0.207  11.830  20.483  0.00  0.00    +0.000 C 
ATOM     30  C   UNL     1       0.140  10.660  21.465  0.00  0.00    +0.000 C 
ATOM     31  C   UNL     1      -0.950  10.940  22.504  0.00  0.00    +0.000 C 
ENDBRANCH  28  30
ENDBRANCH  25  28
ENDBRANCH  22  25
BRANCH  24  32
ATOM     32  C   UNL     1       2.250   5.495  21.016  0.00  0.00    +0.000 C 
BRANCH  32  33
ATOM     33  C   UNL     1       1.149   4.484  20.633  0.00  0.00    +0.000 C 
ATOM     34  C   UNL     1       1.097   4.100  19.148  0.00  0.00    +0.000 C 
ATOM     35  C   UNL     1       2.230   3.190  18.677  0.00  0.00    +0.000 C 
ATOM     36  C   UNL     1       2.511   2.002  19.590  0.00  0.00    +0.000 C 
ATOM     37  C   UNL     1       2.467   2.326  21.080  0.00  0.00    +0.000 C 
ATOM     38  C   UNL     1       1.276   3.200  21.473  0.00  0.00    +0.000 C 
ENDBRANCH  32  33
ENDBRANCH  24  32
ENDBRANCH  21  24
ENDBRANCH   1  21
TORSDOF 11
ENDMDL
MODEL 2
REMARK VINA RESULT:      -8.3      3.701      9.223
REMARK  Name = 
REMARK  13 active torsions:
REMARK  status: ('A' for Active; 'I' for Inactive)
REMARK    1  A    between atoms: C_1  and  C_2
REMARK    2  A    between atoms: C_2  and  C_3
REMARK    3  A    between atoms: C_2  and  C_4
REMARK    4  A    between atoms: C_4  and  C_5
REMARK    5  A    between atoms: C_5  and  O_6
REMARK    6  A    between atoms: C_5  and  C_7
REMARK    7  A    between atoms: N_9  and  C_10
REMARK    8  A    between atoms: N_9  and  C_29
REMARK    9  A    between atoms: C_10  and  C_11
REMARK   10  A    between atoms: C_11  and  N_12
REMARK   11  A    between atoms: C_18  and  C_19
REMARK   12  A    between atoms: C_23  and  C_24
REMARK   13  A    between atoms: C_29  and  C_30
REMARK                            x       y       z     vdW  Elec       q    Type
REMARK                         _______ _______ _______ _____ _____    ______ ____
ROOT
ATOM      1  C   UNL     1       1.694   8.292  20.121  0.00  0.00    +0.000 C 
ENDROOT
BRANCH   1   2
ATOM      2  N   UNL     1       0.503   8.974  19.585  0.00  0.00    +0.000 NA
ATOM      3  C   UNL     1       0.686   9.691  18.316  0.00  0.00    +0.000 C 
ATOM      4  C   UNL     1      -0.736  10.213  18.106  0.00  0.00    +0.000 C 
ATOM      5  C   UNL     1      -1.245  10.502  19.518  0.00  0.00    +0.000 C 
ATOM      6  C   UNL     1      -0.135   9.985  20.441  0.00  0.00    +0.000 C 
ATOM      7  C   UNL     1       0.843  11.094  20.848  0.00  0.00    +0.000 C 
ATOM      8  C   UNL     1       1.640  11.709  19.677  0.00  0.00    +0.000 C 
ATOM      9  C   UNL     1       1.706  10.841  18.398  0.00  0.00    +0.000 C 
BRANCH   8  10
ATOM     10  C   UNL     1       1.318  13.189  19.480  0.00  0.00    +0.000 A 
ATOM     11  C   UNL     1       0.132  13.812  19.879  0.00  0.00    +0.000 A 
ATOM     12  C   UNL     1      -0.074  15.179  19.639  0.00  0.00    +0.000 A 
ATOM     13  C   UNL     1       0.892  15.941  18.983  0.00  0.00    +0.000 A 
ATOM     14  C   UNL     1       2.089  15.345  18.583  0.00  0.00    +0.000 A 
ATOM     15  C   UNL     1       2.295  13.984  18.858  0.00  0.00    +0.000 A 
BRANCH  14  16
ATOM     16  C   UNL     1       3.178  16.049  17.844  0.00  0.00    +0.000 C 
ATOM     17  N   UNL     1       4.077  15.311  17.137  0.00  0.00    +0.000 N 
ATOM     18  O   UNL     1       3.301  17.267  17.882  0.00  0.00    +0.000 OA
ATOM     19  H   UNL     1       4.128  14.301  17.133  0.00  0.00    +0.000 HD
ATOM     20  H   UNL     1       4.845  15.828  16.730  0.00  0.00    +0.000 HD
ENDBRANCH  14  16
ENDBRANCH   8  10
ENDBRANCH   1   2
BRANCH   1  21
ATOM     21  C   UNL     1       2.267   7.253  19.124  0.00  0.00    +0.000 C 
BRANCH  21  24
ATOM     22  C   UNL     1       1.972   5.113  20.268  0.00  0.00    +0.000 C 
ATOM     23  O   UNL     1       0.782   5.401  20.464  0.00  0.00    +0.000 OA
ATOM     24  N   UNL     1       2.858   6.038  19.717  0.00  0.00    +0.000 N 
BRANCH  22  25
ATOM     25  C   UNL     1       2.460   3.699  20.658  0.00  0.00    +0.000 C 
BRANCH  25  26
ATOM     26  O   UNL     1       2.317   3.541  22.074  0.00  0.00    +0.000 OA
ATOM     27  H   UNL     1       2.566   4.398  22.469  0.00  0.00    +0.000 HD
ENDBRANCH  25  26
BRANCH  25  28
ATOM     28  C   UNL     1       1.641   2.597  19.971  0.00  0.00    +0.000 C 
BRANCH  28  30
ATOM     29  C   UNL     1       2.158   2.993  17.489  0.00  0.00    +0.000 C 
ATOM     30  C   UNL     1       2.244   2.027  18.672  0.00  0.00    +0.000 C 
ATOM     31  C   UNL     1       3.710   1.651  18.907  0.00  0.00    +0.000 C 
ENDBRANCH  28  30
ENDBRANCH  25  28
ENDBRANCH  22  25
BRANCH  24  32
ATOM     32  C   UNL     1       4.298   5.820  19.504  0.00  0.00    +0.000 C 
BRANCH  32  33
ATOM     33  C   UNL     1       4.691   5.315  18.100  0.00  0.00    +0.000 C 
ATOM     34  C   UNL     1       4.886   6.407  17.039  0.00  0.00    +0.000 C 
ATOM     35  C   UNL     1       6.156   7.240  17.199  0.00  0.00    +0.000 C 
ATOM     36  C   UNL     1       7.420   6.429  17.459  0.00  0.00    +0.000 C 
ATOM     37  C   UNL     1       7.236   5.268  18.430  0.00  0.00    +0.000 C 
ATOM     38  C   UNL     1       5.967   4.456  18.170  0.00  0.00    +0.000 C 
ENDBRANCH  32  33
ENDBRANCH  24  32
ENDBRANCH  21  24
ENDBRANCH   1  21
TORSDOF 11
ENDMDL
MODEL 3
REMARK VINA RESULT:      -8.2      3.232     10.354
REMARK  Name = 
REMARK  13 active torsions:
REMARK  status: ('A' for Active; 'I' for Inactive)
REMARK    1  A    between atoms: C_1  and  C_2
REMARK    2  A    between atoms: C_2  and  C_3
REMARK    3  A    between atoms: C_2  and  C_4
REMARK    4  A    between atoms: C_4  and  C_5
REMARK    5  A    between atoms: C_5  and  O_6
REMARK    6  A    between atoms: C_5  and  C_7
REMARK    7  A    between atoms: N_9  and  C_10
REMARK    8  A    between atoms: N_9  and  C_29
REMARK    9  A    between atoms: C_10  and  C_11
REMARK   10  A    between atoms: C_11  and  N_12
REMARK   11  A    between atoms: C_18  and  C_19
REMARK   12  A    between atoms: C_23  and  C_24
REMARK   13  A    between atoms: C_29  and  C_30
REMARK                            x       y       z     vdW  Elec       q    Type
REMARK                         _______ _______ _______ _____ _____    ______ ____
ROOT
ATOM      1  C   UNL     1       0.820   9.215  18.497  0.00  0.00    +0.000 C 
ENDROOT
BRANCH   1   2
ATOM      2  N   UNL     1       0.569  10.655  18.310  0.00  0.00    +0.000 NA
ATOM      3  C   UNL     1       1.351  11.562  19.160  0.00  0.00    +0.000 C 
ATOM      4  C   UNL     1       0.829  12.907  18.652  0.00  0.00    +0.000 C 
ATOM      5  C   UNL     1      -0.636  12.640  18.313  0.00  0.00    +0.000 C 
ATOM      6  C   UNL     1      -0.808  11.128  18.508  0.00  0.00    +0.000 C 
ATOM      7  C   UNL     1      -1.340  10.782  19.904  0.00  0.00    +0.000 C 
ATOM      8  C   UNL     1      -0.396  11.166  21.065  0.00  0.00    +0.000 C 
ATOM      9  C   UNL     1       1.083  11.382  20.666  0.00  0.00    +0.000 C 
BRANCH   8  10
ATOM     10  C   UNL     1      -1.014  12.218  21.982  0.00  0.00    +0.000 A 
ATOM     11  C   UNL     1      -0.368  13.378  22.422  0.00  0.00    +0.000 A 
ATOM     12  C   UNL     1      -1.019  14.279  23.278  0.00  0.00    +0.000 A 
ATOM     13  C   UNL     1      -2.317  14.030  23.721  0.00  0.00    +0.000 A 
ATOM     14  C   UNL     1      -2.987  12.884  23.290  0.00  0.00    +0.000 A 
ATOM     15  C   UNL     1      -2.336  12.007  22.408  0.00  0.00    +0.000 A 
BRANCH  14  16
ATOM     16  C   UNL     1      -4.361  12.494  23.725  0.00  0.00    +0.000 C 
ATOM     17  N   UNL     1      -5.393  12.634  22.849  0.00  0.00    +0.000 N 
ATOM     18  O   UNL     1      -4.587  12.081  24.855  0.00  0.00    +0.000 OA
ATOM     19  H   UNL     1      -5.329  13.067  21.937  0.00  0.00    +0.000 HD
ATOM     20  H   UNL     1      -6.313  12.442  23.221  0.00  0.00    +0.000 HD
ENDBRANCH  14  16
ENDBRANCH   8  10
ENDBRANCH   1   2
BRANCH   1  21
ATOM     21  C   UNL     1       2.322   8.863  18.353  0.00  0.00    +0.000 C 
BRANCH  21  24
ATOM     22  C   UNL     1       2.271   6.907  19.819  0.00  0.00    +0.000 C 
ATOM     23  O   UNL     1       1.827   7.623  20.729  0.00  0.00    +0.000 OA
ATOM     24  N   UNL     1       2.689   7.456  18.607  0.00  0.00    +0.000 N 
BRANCH  22  25
ATOM     25  C   UNL     1       2.360   5.383  20.059  0.00  0.00    +0.000 C 
BRANCH  25  26
ATOM     26  O   UNL     1       2.621   5.154  21.449  0.00  0.00    +0.000 OA
ATOM     27  H   UNL     1       3.487   4.706  21.492  0.00  0.00    +0.000 HD
ENDBRANCH  25  26
BRANCH  25  28
ATOM     28  C   UNL     1       1.053   4.664  19.697  0.00  0.00    +0.000 C 
BRANCH  28  30
ATOM     29  C   UNL     1       2.069   3.530  17.631  0.00  0.00    +0.000 C 
ATOM     30  C   UNL     1       1.209   3.364  18.884  0.00  0.00    +0.000 C 
ATOM     31  C   UNL     1       1.819   2.274  19.770  0.00  0.00    +0.000 C 
ENDBRANCH  28  30
ENDBRANCH  25  28
ENDBRANCH  22  25
BRANCH  24  32
ATOM     32  C   UNL     1       3.288   6.707  17.491  0.00  0.00    +0.000 C 
BRANCH  32  33
ATOM     33  C   UNL     1       4.822   6.819  17.366  0.00  0.00    +0.000 C 
ATOM     34  C   UNL     1       5.627   5.915  18.309  0.00  0.00    +0.000 C 
ATOM     35  C   UNL     1       5.611   4.431  17.949  0.00  0.00    +0.000 C 
ATOM     36  C   UNL     1       5.866   4.132  16.476  0.00  0.00    +0.000 C 
ATOM     37  C   UNL     1       5.163   5.079  15.509  0.00  0.00    +0.000 C 
ATOM     38  C   UNL     1       5.269   6.549  15.918  0.00  0.00    +0.000 C 
ENDBRANCH  32  33
ENDBRANCH  24  32
ENDBRANCH  21  24
ENDBRANCH   1  21
TORSDOF 11
ENDMDL
MODEL 4
REMARK VINA RESULT:      -8.1      0.903      1.007
REMARK  Name = 
REMARK  13 active torsions:
REMARK  status: ('A' for Active; 'I' for Inactive)
REMARK    1  A    between atoms: C_1  and  C_2
REMARK    2  A    between atoms: C_2  and  C_3
REMARK    3  A    between atoms: C_2  and  C_4
REMARK    4  A    between atoms: C_4  and  C_5
REMARK    5  A    between atoms: C_5  and  O_6
REMARK    6  A    between atoms: C_5  and  C_7
REMARK    7  A    between atoms: N_9  and  C_10
REMARK    8  A    between atoms: N_9  and  C_29
REMARK    9  A    between atoms: C_10  and  C_11
REMARK   10  A    between atoms: C_11  and  N_12
REMARK   11  A    between atoms: C_18  and  C_19
REMARK   12  A    between atoms: C_23  and  C_24
REMARK   13  A    between atoms: C_29  and  C_30
REMARK                            x       y       z     vdW  Elec       q    Type
REMARK                         _______ _______ _______ _____ _____    ______ ____
ROOT
ATOM      1  C   UNL     1       5.224   5.158  19.329  0.00  0.00    +0.000 C 
ENDROOT
BRANCH   1   2
ATOM      2  N   UNL     1       6.066   6.087  18.556  0.00  0.00    +0.000 NA
ATOM      3  C   UNL     1       5.422   6.737  17.407  0.00  0.00    +0.000 C 
ATOM      4  C   UNL     1       6.582   7.603  16.915  0.00  0.00    +0.000 C 
ATOM      5  C   UNL     1       7.827   6.766  17.202  0.00  0.00    +0.000 C 
ATOM      6  C   UNL     1       7.303   5.547  17.973  0.00  0.00    +0.000 C 
ATOM      7  C   UNL     1       7.031   4.353  17.051  0.00  0.00    +0.000 C 
ATOM      8  C   UNL     1       5.922   4.589  16.003  0.00  0.00    +0.000 C 
ATOM      9  C   UNL     1       4.951   5.750  16.323  0.00  0.00    +0.000 C 
BRANCH   8  10
ATOM     10  C   UNL     1       6.459   4.526  14.575  0.00  0.00    +0.000 A 
ATOM     11  C   UNL     1       7.472   5.342  14.062  0.00  0.00    +0.000 A 
ATOM     12  C   UNL     1       7.887   5.214  12.728  0.00  0.00    +0.000 A 
ATOM     13  C   UNL     1       7.288   4.284  11.881  0.00  0.00    +0.000 A 
ATOM     14  C   UNL     1       6.281   3.450  12.371  0.00  0.00    +0.000 A 
ATOM     15  C   UNL     1       5.897   3.567  13.716  0.00  0.00    +0.000 A 
BRANCH  14  16
ATOM     16  C   UNL     1       5.543   2.444  11.551  0.00  0.00    +0.000 C 
ATOM     17  N   UNL     1       6.150   1.262  11.258  0.00  0.00    +0.000 N 
ATOM     18  O   UNL     1       4.421   2.666  11.114  0.00  0.00    +0.000 OA
ATOM     19  H   UNL     1       7.109   1.029  11.476  0.00  0.00    +0.000 HD
ATOM     20  H   UNL     1       5.645   0.655  10.626  0.00  0.00    +0.000 HD
ENDBRANCH  14  16
ENDBRANCH   8  10
ENDBRANCH   1   2
BRANCH   1  21
ATOM     21  C   UNL     1       3.731   5.256  18.931  0.00  0.00    +0.000 C 
BRANCH  21  24
ATOM     22  C   UNL     1       2.449   7.248  19.532  0.00  0.00    +0.000 C 
ATOM     23  O   UNL     1       2.994   7.859  18.601  0.00  0.00    +0.000 OA
ATOM     24  N   UNL     1       2.847   5.958  19.881  0.00  0.00    +0.000 N 
BRANCH  22  25
ATOM     25  C   UNL     1       1.316   7.955  20.311  0.00  0.00    +0.000 C 
BRANCH  25  26
ATOM     26  O   UNL     1       1.769   8.210  21.646  0.00  0.00    +0.000 OA
ATOM     27  H   UNL     1       2.736   8.077  21.633  0.00  0.00    +0.000 HD
ENDBRANCH  25  26
BRANCH  25  28
ATOM     28  C   UNL     1       0.929   9.297  19.676  0.00  0.00    +0.000 C 
BRANCH  28  30
ATOM     29  C   UNL     1       0.454  11.368  21.114  0.00  0.00    +0.000 C 
ATOM     30  C   UNL     1      -0.123  10.122  20.442  0.00  0.00    +0.000 C 
ATOM     31  C   UNL     1      -1.244  10.541  19.487  0.00  0.00    +0.000 C 
ENDBRANCH  28  30
ENDBRANCH  25  28
ENDBRANCH  22  25
BRANCH  24  32
ATOM     32  C   UNL     1       2.312   5.174  21.005  0.00  0.00    +0.000 C 
BRANCH  32  33
ATOM     33  C   UNL     1       1.100   4.279  20.671  0.00  0.00    +0.000 C 
ATOM     34  C   UNL     1       0.836   4.061  19.175  0.00  0.00    +0.000 C 
ATOM     35  C   UNL     1       1.832   3.140  18.473  0.00  0.00    +0.000 C 
ATOM     36  C   UNL     1       2.134   1.845  19.218  0.00  0.00    +0.000 C 
ATOM     37  C   UNL     1       2.299   2.009  20.726  0.00  0.00    +0.000 C 
ATOM     38  C   UNL     1       1.233   2.906  21.356  0.00  0.00    +0.000 C 
ENDBRANCH  32  33
ENDBRANCH  24  32
ENDBRANCH  21  24
ENDBRANCH   1  21
TORSDOF 11
ENDMDL
MODEL 5
REMARK VINA RESULT:      -8.1      3.646      9.059
REMARK  Name = 
REMARK  13 active torsions:
REMARK  status: ('A' for Active; 'I' for Inactive)
REMARK    1  A    between atoms: C_1  and  C_2
REMARK    2  A    between atoms: C_2  and  C_3
REMARK    3  A    between atoms: C_2  and  C_4
REMARK    4  A    between atoms: C_4  and  C_5
REMARK    5  A    between atoms: C_5  and  O_6
REMARK    6  A    between atoms: C_5  and  C_7
REMARK    7  A    between atoms: N_9  and  C_10
REMARK    8  A    between atoms: N_9  and  C_29
REMARK    9  A    between atoms: C_10  and  C_11
REMARK   10  A    between atoms: C_11  and  N_12
REMARK   11  A    between atoms: C_18  and  C_19
REMARK   12  A    between atoms: C_23  and  C_24
REMARK   13  A    between atoms: C_29  and  C_30
REMARK                            x       y       z     vdW  Elec       q    Type
REMARK                         _______ _______ _______ _____ _____    ______ ____
ROOT
ATOM      1  C   UNL     1       1.906   8.282  19.632  0.00  0.00    +0.000 C 
ENDROOT
BRANCH   1   2
ATOM      2  N   UNL     1       1.597   9.722  19.592  0.00  0.00    +0.000 NA
ATOM      3  C   UNL     1       0.424  10.153  20.363  0.00  0.00    +0.000 C 
ATOM      4  C   UNL     1       0.469  11.656  20.086  0.00  0.00    +0.000 C 
ATOM      5  C   UNL     1       0.995  11.761  18.656  0.00  0.00    +0.000 C 
ATOM      6  C   UNL     1       1.355  10.320  18.271  0.00  0.00    +0.000 C 
ATOM      7  C   UNL     1       0.215   9.620  17.521  0.00  0.00    +0.000 C 
ATOM      8  C   UNL     1      -1.077   9.434  18.346  0.00  0.00    +0.000 C 
ATOM      9  C   UNL     1      -0.897   9.526  19.880  0.00  0.00    +0.000 C 
BRANCH   8  10
ATOM     10  C   UNL     1      -2.253  10.205  17.752  0.00  0.00    +0.000 A 
ATOM     11  C   UNL     1      -2.562  10.273  16.390  0.00  0.00    +0.000 A 
ATOM     12  C   UNL     1      -3.660  11.022  15.941  0.00  0.00    +0.000 A 
ATOM     13  C   UNL     1      -4.457  11.728  16.841  0.00  0.00    +0.000 A 
ATOM     14  C   UNL     1      -4.176  11.669  18.207  0.00  0.00    +0.000 A 
ATOM     15  C   UNL     1      -3.093  10.890  18.645  0.00  0.00    +0.000 A 
BRANCH  14  16
ATOM     16  C   UNL     1      -4.934  12.409  19.259  0.00  0.00    +0.000 C 
ATOM     17  N   UNL     1      -4.279  13.329  20.018  0.00  0.00    +0.000 N 
ATOM     18  O   UNL     1      -6.120  12.189  19.474  0.00  0.00    +0.000 OA
ATOM     19  H   UNL     1      -3.284  13.502  19.994  0.00  0.00    +0.000 HD
ATOM     20  H   UNL     1      -4.815  13.735  20.774  0.00  0.00    +0.000 HD
ENDBRANCH  14  16
ENDBRANCH   8  10
ENDBRANCH   1   2
BRANCH   1  21
ATOM     21  C   UNL     1       2.538   7.786  18.308  0.00  0.00    +0.000 C 
BRANCH  21  24
ATOM     22  C   UNL     1       4.360   6.369  17.500  0.00  0.00    +0.000 C 
ATOM     23  O   UNL     1       4.528   7.154  16.555  0.00  0.00    +0.000 OA
ATOM     24  N   UNL     1       3.286   6.516  18.378  0.00  0.00    +0.000 N 
BRANCH  22  25
ATOM     25  C   UNL     1       5.367   5.210  17.681  0.00  0.00    +0.000 C 
BRANCH  25  26
ATOM     26  O   UNL     1       4.837   4.042  17.043  0.00  0.00    +0.000 OA
ATOM     27  H   UNL     1       4.392   3.529  17.744  0.00  0.00    +0.000 HD
ENDBRANCH  25  26
BRANCH  25  28
ATOM     28  C   UNL     1       6.727   5.524  17.045  0.00  0.00    +0.000 C 
BRANCH  28  30
ATOM     29  C   UNL     1       7.807   7.693  17.889  0.00  0.00    +0.000 C 
ATOM     30  C   UNL     1       7.770   6.167  17.980  0.00  0.00    +0.000 C 
ATOM     31  C   UNL     1       7.485   5.758  19.428  0.00  0.00    +0.000 C 
ENDBRANCH  28  30
ENDBRANCH  25  28
ENDBRANCH  22  25
BRANCH  24  32
ATOM     32  C   UNL     1       2.961   5.605  19.488  0.00  0.00    +0.000 C 
BRANCH  32  33
ATOM     33  C   UNL     1       1.581   4.921  19.399  0.00  0.00    +0.000 C 
ATOM     34  C   UNL     1       1.345   4.077  18.139  0.00  0.00    +0.000 C 
ATOM     35  C   UNL     1       2.110   2.756  18.096  0.00  0.00    +0.000 C 
ATOM     36  C   UNL     1       2.041   1.939  19.380  0.00  0.00    +0.000 C 
ATOM     37  C   UNL     1       2.166   2.761  20.659  0.00  0.00    +0.000 C 
ATOM     38  C   UNL     1       1.331   4.041  20.639  0.00  0.00    +0.000 C 
ENDBRANCH  32  33
ENDBRANCH  24  32
ENDBRANCH  21  24
ENDBRANCH   1  21
TORSDOF 11
ENDMDL
MODEL 6
REMARK VINA RESULT:      -8.1      3.298      9.552
REMARK  Name = 
REMARK  13 active torsions:
REMARK  status: ('A' for Active; 'I' for Inactive)
REMARK    1  A    between atoms: C_1  and  C_2
REMARK    2  A    between atoms: C_2  and  C_3
REMARK    3  A    between atoms: C_2  and  C_4
REMARK    4  A    between atoms: C_4  and  C_5
REMARK    5  A    between atoms: C_5  and  O_6
REMARK    6  A    between atoms: C_5  and  C_7
REMARK    7  A    between atoms: N_9  and  C_10
REMARK    8  A    between atoms: N_9  and  C_29
REMARK    9  A    between atoms: C_10  and  C_11
REMARK   10  A    between atoms: C_11  and  N_12
REMARK   11  A    between atoms: C_18  and  C_19
REMARK   12  A    between atoms: C_23  and  C_24
REMARK   13  A    between atoms: C_29  and  C_30
REMARK                            x       y       z     vdW  Elec       q    Type
REMARK                         _______ _______ _______ _____ _____    ______ ____
ROOT
ATOM      1  C   UNL     1       2.053   8.579  19.210  0.00  0.00    +0.000 C 
ENDROOT
BRANCH   1   2
ATOM      2  N   UNL     1       0.717   9.164  19.006  0.00  0.00    +0.000 NA
ATOM      3  C   UNL     1       0.653  10.337  18.125  0.00  0.00    +0.000 C 
ATOM      4  C   UNL     1      -0.852  10.606  18.160  0.00  0.00    +0.000 C 
ATOM      5  C   UNL     1      -1.272  10.219  19.577  0.00  0.00    +0.000 C 
ATOM      6  C   UNL     1      -0.008   9.616  20.203  0.00  0.00    +0.000 C 
ATOM      7  C   UNL     1       0.792  10.651  21.003  0.00  0.00    +0.000 C 
ATOM      8  C   UNL     1       1.356  11.816  20.162  0.00  0.00    +0.000 C 
ATOM      9  C   UNL     1       1.457  11.543  18.643  0.00  0.00    +0.000 C 
BRANCH   8  10
ATOM     10  C   UNL     1       0.762  13.161  20.574  0.00  0.00    +0.000 A 
ATOM     11  C   UNL     1       0.209  13.445  21.827  0.00  0.00    +0.000 A 
ATOM     12  C   UNL     1      -0.325  14.711  22.103  0.00  0.00    +0.000 A 
ATOM     13  C   UNL     1      -0.332  15.710  21.130  0.00  0.00    +0.000 A 
ATOM     14  C   UNL     1       0.222  15.456  19.875  0.00  0.00    +0.000 A 
ATOM     15  C   UNL     1       0.782  14.194  19.622  0.00  0.00    +0.000 A 
BRANCH  14  16
ATOM     16  C   UNL     1       0.240  16.432  18.745  0.00  0.00    +0.000 C 
ATOM     17  N   UNL     1      -0.942  16.898  18.260  0.00  0.00    +0.000 N 
ATOM     18  O   UNL     1       1.287  16.800  18.228  0.00  0.00    +0.000 OA
ATOM     19  H   UNL     1      -1.857  16.574  18.542  0.00  0.00    +0.000 HD
ATOM     20  H   UNL     1      -0.879  17.485  17.438  0.00  0.00    +0.000 HD
ENDBRANCH  14  16
ENDBRANCH   8  10
ENDBRANCH   1   2
BRANCH   1  21
ATOM     21  C   UNL     1       2.600   7.915  17.921  0.00  0.00    +0.000 C 
BRANCH  21  24
ATOM     22  C   UNL     1       4.389   6.386  17.259  0.00  0.00    +0.000 C 
ATOM     23  O   UNL     1       4.607   7.098  16.268  0.00  0.00    +0.000 OA
ATOM     24  N   UNL     1       3.301   6.628  18.097  0.00  0.00    +0.000 N 
BRANCH  22  25
ATOM     25  C   UNL     1       5.350   5.209  17.545  0.00  0.00    +0.000 C 
BRANCH  25  26
ATOM     26  O   UNL     1       4.842   4.037  16.898  0.00  0.00    +0.000 OA
ATOM     27  H   UNL     1       5.220   3.277  17.378  0.00  0.00    +0.000 HD
ENDBRANCH  25  26
BRANCH  25  28
ATOM     28  C   UNL     1       6.763   5.475  17.007  0.00  0.00    +0.000 C 
BRANCH  28  30
ATOM     29  C   UNL     1       7.801   7.634  17.926  0.00  0.00    +0.000 C 
ATOM     30  C   UNL     1       7.751   6.107  18.006  0.00  0.00    +0.000 C 
ATOM     31  C   UNL     1       7.377   5.692  19.432  0.00  0.00    +0.000 C 
ENDBRANCH  28  30
ENDBRANCH  25  28
ENDBRANCH  22  25
BRANCH  24  32
ATOM     32  C   UNL     1       2.918   5.808  19.258  0.00  0.00    +0.000 C 
BRANCH  32  33
ATOM     33  C   UNL     1       1.555   5.094  19.142  0.00  0.00    +0.000 C 
ATOM     34  C   UNL     1       1.466   4.019  18.051  0.00  0.00    +0.000 C 
ATOM     35  C   UNL     1       2.224   2.728  18.356  0.00  0.00    +0.000 C 
ATOM     36  C   UNL     1       1.997   2.174  19.758  0.00  0.00    +0.000 C 
ATOM     37  C   UNL     1       1.975   3.230  20.858  0.00  0.00    +0.000 C 
ATOM     38  C   UNL     1       1.154   4.468  20.491  0.00  0.00    +0.000 C 
ENDBRANCH  32  33
ENDBRANCH  24  32
ENDBRANCH  21  24
ENDBRANCH   1  21
TORSDOF 11
ENDMDL
MODEL 7
REMARK VINA RESULT:      -8.1      3.587      8.424
REMARK  Name = 
REMARK  13 active torsions:
REMARK  status: ('A' for Active; 'I' for Inactive)
REMARK    1  A    between atoms: C_1  and  C_2
REMARK    2  A    between atoms: C_2  and  C_3
REMARK    3  A    between atoms: C_2  and  C_4
REMARK    4  A    between atoms: C_4  and  C_5
REMARK    5  A    between atoms: C_5  and  O_6
REMARK    6  A    between atoms: C_5  and  C_7
REMARK    7  A    between atoms: N_9  and  C_10
REMARK    8  A    between atoms: N_9  and  C_29
REMARK    9  A    between atoms: C_10  and  C_11
REMARK   10  A    between atoms: C_11  and  N_12
REMARK   11  A    between atoms: C_18  and  C_19
REMARK   12  A    between atoms: C_23  and  C_24
REMARK   13  A    between atoms: C_29  and  C_30
REMARK                            x       y       z     vdW  Elec       q    Type
REMARK                         _______ _______ _______ _____ _____    ______ ____
ROOT
ATOM      1  C   UNL     1       1.838   8.113  20.010  0.00  0.00    +0.000 C 
ENDROOT
BRANCH   1   2
ATOM      2  N   UNL     1       1.765   9.523  19.586  0.00  0.00    +0.000 NA
ATOM      3  C   UNL     1       0.760  10.350  20.266  0.00  0.00    +0.000 C 
ATOM      4  C   UNL     1       1.021  11.691  19.580  0.00  0.00    +0.000 C 
ATOM      5  C   UNL     1       1.414  11.315  18.152  0.00  0.00    +0.000 C 
ATOM      6  C   UNL     1       1.495   9.783  18.165  0.00  0.00    +0.000 C 
ATOM      7  C   UNL     1       0.188   9.131  17.699  0.00  0.00    +0.000 C 
ATOM      8  C   UNL     1      -1.030   9.411  18.607  0.00  0.00    +0.000 C 
ATOM      9  C   UNL     1      -0.687   9.871  20.043  0.00  0.00    +0.000 C 
BRANCH   8  10
ATOM     10  C   UNL     1      -2.117  10.199  17.881  0.00  0.00    +0.000 A 
ATOM     11  C   UNL     1      -2.890  11.214  18.454  0.00  0.00    +0.000 A 
ATOM     12  C   UNL     1      -3.878  11.871  17.705  0.00  0.00    +0.000 A 
ATOM     13  C   UNL     1      -4.120  11.516  16.379  0.00  0.00    +0.000 A 
ATOM     14  C   UNL     1      -3.356  10.513  15.780  0.00  0.00    +0.000 A 
ATOM     15  C   UNL     1      -2.350   9.886  16.532  0.00  0.00    +0.000 A 
BRANCH  14  16
ATOM     16  C   UNL     1      -3.549  10.024  14.383  0.00  0.00    +0.000 C 
ATOM     17  N   UNL     1      -2.455   9.839  13.594  0.00  0.00    +0.000 N 
ATOM     18  O   UNL     1      -4.663   9.813  13.921  0.00  0.00    +0.000 OA
ATOM     19  H   UNL     1      -1.508  10.088  13.844  0.00  0.00    +0.000 HD
ATOM     20  H   UNL     1      -2.646   9.595  12.632  0.00  0.00    +0.000 HD
ENDBRANCH  14  16
ENDBRANCH   8  10
ENDBRANCH   1   2
BRANCH   1  21
ATOM     21  C   UNL     1       2.672   7.253  19.029  0.00  0.00    +0.000 C 
BRANCH  21  24
ATOM     22  C   UNL     1       2.257   5.220  20.319  0.00  0.00    +0.000 C 
ATOM     23  O   UNL     1       1.212   5.728  20.752  0.00  0.00    +0.000 OA
ATOM     24  N   UNL     1       3.151   5.956  19.543  0.00  0.00    +0.000 N 
BRANCH  22  25
ATOM     25  C   UNL     1       2.555   3.743  20.669  0.00  0.00    +0.000 C 
BRANCH  25  26
ATOM     26  O   UNL     1       2.269   3.536  22.057  0.00  0.00    +0.000 OA
ATOM     27  H   UNL     1       1.345   3.819  22.188  0.00  0.00    +0.000 HD
ENDBRANCH  25  26
BRANCH  25  28
ATOM     28  C   UNL     1       1.690   2.772  19.855  0.00  0.00    +0.000 C 
BRANCH  28  30
ATOM     29  C   UNL     1       2.258   2.933  17.358  0.00  0.00    +0.000 C 
ATOM     30  C   UNL     1       2.381   2.115  18.644  0.00  0.00    +0.000 C 
ATOM     31  C   UNL     1       3.864   1.892  18.956  0.00  0.00    +0.000 C 
ENDBRANCH  28  30
ENDBRANCH  25  28
ENDBRANCH  22  25
BRANCH  24  32
ATOM     32  C   UNL     1       4.445   5.469  19.037  0.00  0.00    +0.000 C 
BRANCH  32  33
ATOM     33  C   UNL     1       4.980   6.193  17.784  0.00  0.00    +0.000 C 
ATOM     34  C   UNL     1       6.448   6.635  17.856  0.00  0.00    +0.000 C 
ATOM     35  C   UNL     1       7.468   5.503  17.755  0.00  0.00    +0.000 C 
ATOM     36  C   UNL     1       7.201   4.506  16.633  0.00  0.00    +0.000 C 
ATOM     37  C   UNL     1       5.735   4.124  16.464  0.00  0.00    +0.000 C 
ATOM     38  C   UNL     1       4.786   5.321  16.529  0.00  0.00    +0.000 C 
ENDBRANCH  32  33
ENDBRANCH  24  32
ENDBRANCH  21  24
ENDBRANCH   1  21
TORSDOF 11
ENDMDL
MODEL 8
REMARK VINA RESULT:      -8.0      3.683     10.234
REMARK  Name = 
REMARK  13 active torsions:
REMARK  status: ('A' for Active; 'I' for Inactive)
REMARK    1  A    between atoms: C_1  and  C_2
REMARK    2  A    between atoms: C_2  and  C_3
REMARK    3  A    between atoms: C_2  and  C_4
REMARK    4  A    between atoms: C_4  and  C_5
REMARK    5  A    between atoms: C_5  and  O_6
REMARK    6  A    between atoms: C_5  and  C_7
REMARK    7  A    between atoms: N_9  and  C_10
REMARK    8  A    between atoms: N_9  and  C_29
REMARK    9  A    between atoms: C_10  and  C_11
REMARK   10  A    between atoms: C_11  and  N_12
REMARK   11  A    between atoms: C_18  and  C_19
REMARK   12  A    between atoms: C_23  and  C_24
REMARK   13  A    between atoms: C_29  and  C_30
REMARK                            x       y       z     vdW  Elec       q    Type
REMARK                         _______ _______ _______ _____ _____    ______ ____
ROOT
ATOM      1  C   UNL     1       1.789   8.623  19.681  0.00  0.00    +0.000 C 
ENDROOT
BRANCH   1   2
ATOM      2  N   UNL     1       0.748   9.476  19.082  0.00  0.00    +0.000 NA
ATOM      3  C   UNL     1       1.072  10.903  18.962  0.00  0.00    +0.000 C 
ATOM      4  C   UNL     1      -0.209  11.406  18.297  0.00  0.00    +0.000 C 
ATOM      5  C   UNL     1      -1.312  10.533  18.894  0.00  0.00    +0.000 C 
ATOM      6  C   UNL     1      -0.566   9.496  19.743  0.00  0.00    +0.000 C 
ATOM      7  C   UNL     1      -0.464   9.918  21.214  0.00  0.00    +0.000 C 
ATOM      8  C   UNL     1       0.355  11.204  21.458  0.00  0.00    +0.000 C 
ATOM      9  C   UNL     1       1.320  11.597  20.314  0.00  0.00    +0.000 C 
BRANCH   8  10
ATOM     10  C   UNL     1      -0.500  12.326  22.042  0.00  0.00    +0.000 A 
ATOM     11  C   UNL     1      -0.051  13.625  22.302  0.00  0.00    +0.000 A 
ATOM     12  C   UNL     1      -0.914  14.583  22.855  0.00  0.00    +0.000 A 
ATOM     13  C   UNL     1      -2.232  14.257  23.172  0.00  0.00    +0.000 A 
ATOM     14  C   UNL     1      -2.708  12.970  22.914  0.00  0.00    +0.000 A 
ATOM     15  C   UNL     1      -1.843  12.031  22.331  0.00  0.00    +0.000 A 
BRANCH  14  16
ATOM     16  C   UNL     1      -4.084  12.496  23.243  0.00  0.00    +0.000 C 
ATOM     17  N   UNL     1      -4.407  12.264  24.544  0.00  0.00    +0.000 N 
ATOM     18  O   UNL     1      -4.919  12.284  22.371  0.00  0.00    +0.000 OA
ATOM     19  H   UNL     1      -3.761  12.302  25.320  0.00  0.00    +0.000 HD
ATOM     20  H   UNL     1      -5.319  11.858  24.704  0.00  0.00    +0.000 HD
ENDBRANCH  14  16
ENDBRANCH   8  10
ENDBRANCH   1   2
BRANCH   1  21
ATOM     21  C   UNL     1       1.876   7.240  18.990  0.00  0.00    +0.000 C 
BRANCH  21  24
ATOM     22  C   UNL     1       2.063   5.239  20.382  0.00  0.00    +0.000 C 
ATOM     23  O   UNL     1       0.857   5.336  20.653  0.00  0.00    +0.000 OA
ATOM     24  N   UNL     1       2.722   6.230  19.655  0.00  0.00    +0.000 N 
BRANCH  22  25
ATOM     25  C   UNL     1       2.829   3.992  20.878  0.00  0.00    +0.000 C 
BRANCH  25  26
ATOM     26  O   UNL     1       2.190   3.504  22.063  0.00  0.00    +0.000 OA
ATOM     27  H   UNL     1       2.029   2.554  21.913  0.00  0.00    +0.000 HD
ENDBRANCH  25  26
BRANCH  25  28
ATOM     28  C   UNL     1       2.828   2.863  19.838  0.00  0.00    +0.000 C 
BRANCH  28  30
ATOM     29  C   UNL     1       2.543   2.748  17.291  0.00  0.00    +0.000 C 
ATOM     30  C   UNL     1       1.886   3.063  18.635  0.00  0.00    +0.000 C 
ATOM     31  C   UNL     1       0.643   2.183  18.804  0.00  0.00    +0.000 C 
ENDBRANCH  28  30
ENDBRANCH  25  28
ENDBRANCH  22  25
BRANCH  24  32
ATOM     32  C   UNL     1       4.159   6.243  19.337  0.00  0.00    +0.000 C 
BRANCH  32  33
ATOM     33  C   UNL     1       4.538   5.653  17.963  0.00  0.00    +0.000 C 
ATOM     34  C   UNL     1       4.985   6.674  16.909  0.00  0.00    +0.000 C 
ATOM     35  C   UNL     1       6.371   7.274  17.140  0.00  0.00    +0.000 C 
ATOM     36  C   UNL     1       7.454   6.258  17.481  0.00  0.00    +0.000 C 
ATOM     37  C   UNL     1       7.012   5.164  18.448  0.00  0.00    +0.000 C 
ATOM     38  C   UNL     1       5.636   4.584  18.116  0.00  0.00    +0.000 C 
ENDBRANCH  32  33
ENDBRANCH  24  32
ENDBRANCH  21  24
ENDBRANCH   1  21
TORSDOF 11
ENDMDL
MODEL 9
REMARK VINA RESULT:      -7.9      3.600      9.375
REMARK  Name = 
REMARK  13 active torsions:
REMARK  status: ('A' for Active; 'I' for Inactive)
REMARK    1  A    between atoms: C_1  and  C_2
REMARK    2  A    between atoms: C_2  and  C_3
REMARK    3  A    between atoms: C_2  and  C_4
REMARK    4  A    between atoms: C_4  and  C_5
REMARK    5  A    between atoms: C_5  and  O_6
REMARK    6  A    between atoms: C_5  and  C_7
REMARK    7  A    between atoms: N_9  and  C_10
REMARK    8  A    between atoms: N_9  and  C_29
REMARK    9  A    between atoms: C_10  and  C_11
REMARK   10  A    between atoms: C_11  and  N_12
REMARK   11  A    between atoms: C_18  and  C_19
REMARK   12  A    between atoms: C_23  and  C_24
REMARK   13  A    between atoms: C_29  and  C_30
REMARK                            x       y       z     vdW  Elec       q    Type
REMARK                         _______ _______ _______ _____ _____    ______ ____
ROOT
ATOM      1  C   UNL     1       1.765   8.424  18.179  0.00  0.00    +0.000 C 
ENDROOT
BRANCH   1   2
ATOM      2  N   UNL     1       1.697   9.521  19.160  0.00  0.00    +0.000 NA
ATOM      3  C   UNL     1       0.768   9.328  20.280  0.00  0.00    +0.000 C 
ATOM      4  C   UNL     1       1.011  10.628  21.046  0.00  0.00    +0.000 C 
ATOM      5  C   UNL     1       1.285  11.663  19.956  0.00  0.00    +0.000 C 
ATOM      6  C   UNL     1       1.327  10.851  18.655  0.00  0.00    +0.000 C 
ATOM      7  C   UNL     1      -0.028  10.838  17.938  0.00  0.00    +0.000 C 
ATOM      8  C   UNL     1      -1.166  10.152  18.725  0.00  0.00    +0.000 C 
ATOM      9  C   UNL     1      -0.703   9.191  19.846  0.00  0.00    +0.000 C 
BRANCH   8  10
ATOM     10  C   UNL     1      -2.284  11.127  19.084  0.00  0.00    +0.000 A 
ATOM     11  C   UNL     1      -2.168  12.183  19.994  0.00  0.00    +0.000 A 
ATOM     12  C   UNL     1      -3.262  13.017  20.265  0.00  0.00    +0.000 A 
ATOM     13  C   UNL     1      -4.492  12.803  19.646  0.00  0.00    +0.000 A 
ATOM     14  C   UNL     1      -4.633  11.763  18.726  0.00  0.00    +0.000 A 
ATOM     15  C   UNL     1      -3.521  10.955  18.440  0.00  0.00    +0.000 A 
BRANCH  14  16
ATOM     16  C   UNL     1      -5.907  11.416  18.030  0.00  0.00    +0.000 C 
ATOM     17  N   UNL     1      -6.254  12.107  16.910  0.00  0.00    +0.000 N 
ATOM     18  O   UNL     1      -6.659  10.548  18.456  0.00  0.00    +0.000 OA
ATOM     19  H   UNL     1      -5.760  12.909  16.544  0.00  0.00    +0.000 HD
ATOM     20  H   UNL     1      -7.167  11.895  16.530  0.00  0.00    +0.000 HD
ENDBRANCH  14  16
ENDBRANCH   8  10
ENDBRANCH   1   2
BRANCH   1  21
ATOM     21  C   UNL     1       3.215   8.160  17.701  0.00  0.00    +0.000 C 
BRANCH  21  24
ATOM     22  C   UNL     1       4.561   6.367  16.727  0.00  0.00    +0.000 C 
ATOM     23  O   UNL     1       4.785   7.092  15.746  0.00  0.00    +0.000 OA
ATOM     24  N   UNL     1       3.662   6.754  17.720  0.00  0.00    +0.000 N 
BRANCH  22  25
ATOM     25  C   UNL     1       5.296   5.010  16.821  0.00  0.00    +0.000 C 
BRANCH  25  26
ATOM     26  O   UNL     1       5.236   4.368  15.543  0.00  0.00    +0.000 OA
ATOM     27  H   UNL     1       5.269   5.083  14.879  0.00  0.00    +0.000 HD
ENDBRANCH  25  26
BRANCH  25  28
ATOM     28  C   UNL     1       6.774   5.180  17.199  0.00  0.00    +0.000 C 
BRANCH  28  30
ATOM     29  C   UNL     1       7.966   5.757  19.397  0.00  0.00    +0.000 C 
ATOM     30  C   UNL     1       7.073   6.257  18.261  0.00  0.00    +0.000 C 
ATOM     31  C   UNL     1       7.738   7.465  17.595  0.00  0.00    +0.000 C 
ENDBRANCH  28  30
ENDBRANCH  25  28
ENDBRANCH  22  25
BRANCH  24  32
ATOM     32  C   UNL     1       3.277   5.942  18.887  0.00  0.00    +0.000 C 
BRANCH  32  33
ATOM     33  C   UNL     1       1.894   5.264  18.794  0.00  0.00    +0.000 C 
ATOM     34  C   UNL     1       1.764   4.180  17.715  0.00  0.00    +0.000 C 
ATOM     35  C   UNL     1       2.491   2.872  18.025  0.00  0.00    +0.000 C 
ATOM     36  C   UNL     1       2.266   2.339  19.435  0.00  0.00    +0.000 C 
ATOM     37  C   UNL     1       2.284   3.407  20.524  0.00  0.00    +0.000 C 
ATOM     38  C   UNL     1       1.493   4.662  20.153  0.00  0.00    +0.000 C 
ENDBRANCH  32  33
ENDBRANCH  24  32
ENDBRANCH  21  24
ENDBRANCH   1  21
TORSDOF 11
ENDMDL
