MODEL 1
REMARK VINA RESULT:      -7.6      0.000      0.000
REMARK  Name = 
REMARK  11 active torsions:
REMARK  status: ('A' for Active; 'I' for Inactive)
REMARK    1  A    between atoms: C_2  and  C_3
REMARK    2  A    between atoms: C_3  and  C_4
REMARK    3  A    between atoms: C_7  and  O_8
REMARK    4  A    between atoms: O_8  and  C_9
REMARK    5  A    between atoms: C_11  and  C_12
REMARK    6  A    between atoms: C_12  and  C_14
REMARK    7  A    between atoms: C_17  and  O_18
REMARK    8  A    between atoms: O_18  and  C_19
REMARK    9  A    between atoms: C_20  and  O_21
REMARK   10  A    between atoms: C_22  and  O_23
REMARK   11  A    between atoms: O_23  and  C_24
REMARK                            x       y       z     vdW  Elec       q    Type
REMARK                         _______ _______ _______ _____ _____    ______ ____
ROOT
ATOM      1  C   UNL     1       4.651   4.581  19.303  0.00  0.00    +0.000 A 
ATOM      2  C   UNL     1       4.129   5.880  19.291  0.00  0.00    +0.000 A 
ATOM      3  C   UNL     1       2.781   6.097  19.572  0.00  0.00    +0.000 A 
ATOM      4  C   UNL     1       1.969   5.021  19.938  0.00  0.00    +0.000 A 
ATOM      5  C   UNL     1       2.501   3.730  20.066  0.00  0.00    +0.000 A 
ATOM      6  C   UNL     1       3.848   3.513  19.741  0.00  0.00    +0.000 A 
ENDROOT
BRANCH   3   7
ATOM      7  C   UNL     1       2.252   7.471  19.390  0.00  0.00    +0.000 C 
ATOM      8  O   UNL     1       1.717   8.045  20.328  0.00  0.00    +0.000 OA
BRANCH   7   9
ATOM      9  C   UNL     1       2.370   8.094  18.047  0.00  0.00    +0.000 C 
ATOM     10  C   UNL     1       1.664   9.198  17.763  0.00  0.00    +0.000 C 
ENDBRANCH   7   9
ENDBRANCH   3   7
BRANCH   5  11
ATOM     11  O   UNL     1       1.556   2.816  20.454  0.00  0.00    +0.000 OA
ATOM     12  C   UNL     1       1.442   2.497  21.833  0.00  0.00    +0.000 C 
ENDBRANCH   5  11
BRANCH   6  13
ATOM     13  O   UNL     1       4.377   2.251  19.790  0.00  0.00    +0.000 OA
ATOM     14  H   UNL     1       4.953   2.211  20.573  0.00  0.00    +0.000 HD
ENDBRANCH   6  13
BRANCH   1  15
ATOM     15  O   UNL     1       5.943   4.316  18.862  0.00  0.00    +0.000 OA
BRANCH  15  19
ATOM     16  C   UNL     1       6.458   4.474  14.691  0.00  0.00    +0.000 A 
ATOM     17  C   UNL     1       5.622   3.511  15.261  0.00  0.00    +0.000 A 
ATOM     18  C   UNL     1       5.505   3.411  16.646  0.00  0.00    +0.000 A 
ATOM     19  C   UNL     1       6.159   4.326  17.486  0.00  0.00    +0.000 A 
ATOM     20  C   UNL     1       7.038   5.274  16.931  0.00  0.00    +0.000 A 
ATOM     21  C   UNL     1       7.194   5.324  15.536  0.00  0.00    +0.000 A 
BRANCH  20  22
ATOM     22  O   UNL     1       7.702   6.098  17.806  0.00  0.00    +0.000 OA
ATOM     23  C   UNL     1       7.572   7.500  17.581  0.00  0.00    +0.000 C 
ENDBRANCH  20  22
BRANCH  16  24
ATOM     24  C   UNL     1       6.587   4.567  13.189  0.00  0.00    +0.000 C 
BRANCH  24  26
ATOM     25  C   UNL     1       4.892   3.357  11.780  0.00  0.00    +0.000 C 
ATOM     26  C   UNL     1       6.022   3.362  12.497  0.00  0.00    +0.000 C 
ENDBRANCH  24  26
ENDBRANCH  16  24
ENDBRANCH  15  19
ENDBRANCH   1  15
TORSDOF 9
ENDMDL
MODEL 2
REMARK VINA RESULT:      -7.5      1.707      6.978
REMARK  Name = 
REMARK  11 active torsions:
REMARK  status: ('A' for Active; 'I' for Inactive)
REMARK    1  A    between atoms: C_2  and  C_3
REMARK    2  A    between atoms: C_3  and  C_4
REMARK    3  A    between atoms: C_7  and  O_8
REMARK    4  A    between atoms: O_8  and  C_9
REMARK    5  A    between atoms: C_11  and  C_12
REMARK    6  A    between atoms: C_12  and  C_14
REMARK    7  A    between atoms: C_17  and  O_18
REMARK    8  A    between atoms: O_18  and  C_19
REMARK    9  A    between atoms: C_20  and  O_21
REMARK   10  A    between atoms: C_22  and  O_23
REMARK   11  A    between atoms: O_23  and  C_24
REMARK                            x       y       z     vdW  Elec       q    Type
REMARK                         _______ _______ _______ _____ _____    ______ ____
ROOT
ATOM      1  C   UNL     1       4.644   4.177  17.299  0.00  0.00    +0.000 A 
ATOM      2  C   UNL     1       4.974   4.190  15.939  0.00  0.00    +0.000 A 
ATOM      3  C   UNL     1       6.286   4.437  15.539  0.00  0.00    +0.000 A 
ATOM      4  C   UNL     1       7.285   4.598  16.502  0.00  0.00    +0.000 A 
ATOM      5  C   UNL     1       6.993   4.474  17.867  0.00  0.00    +0.000 A 
ATOM      6  C   UNL     1       5.663   4.266  18.264  0.00  0.00    +0.000 A 
ENDROOT
BRANCH   3   7
ATOM      7  C   UNL     1       6.544   4.596  14.086  0.00  0.00    +0.000 C 
ATOM      8  O   UNL     1       7.424   5.355  13.705  0.00  0.00    +0.000 OA
BRANCH   7   9
ATOM      9  C   UNL     1       5.692   3.836  13.137  0.00  0.00    +0.000 C 
ATOM     10  C   UNL     1       6.251   3.237  12.076  0.00  0.00    +0.000 C 
ENDBRANCH   7   9
ENDBRANCH   3   7
BRANCH   5  11
ATOM     11  O   UNL     1       8.104   4.642  18.652  0.00  0.00    +0.000 OA
ATOM     12  C   UNL     1       8.224   5.832  19.417  0.00  0.00    +0.000 C 
ENDBRANCH   5  11
BRANCH   6  13
ATOM     13  O   UNL     1       5.338   4.212  19.592  0.00  0.00    +0.000 OA
ATOM     14  H   UNL     1       4.681   3.501  19.698  0.00  0.00    +0.000 HD
ENDBRANCH   6  13
BRANCH   1  15
ATOM     15  O   UNL     1       3.321   4.104  17.723  0.00  0.00    +0.000 OA
BRANCH  15  19
ATOM     16  C   UNL     1       1.765   7.156  20.161  0.00  0.00    +0.000 A 
ATOM     17  C   UNL     1       2.324   7.464  18.918  0.00  0.00    +0.000 A 
ATOM     18  C   UNL     1       2.903   6.464  18.140  0.00  0.00    +0.000 A 
ATOM     19  C   UNL     1       2.863   5.123  18.553  0.00  0.00    +0.000 A 
ATOM     20  C   UNL     1       2.343   4.802  19.820  0.00  0.00    +0.000 A 
ATOM     21  C   UNL     1       1.817   5.829  20.622  0.00  0.00    +0.000 A 
BRANCH  20  22
ATOM     22  O   UNL     1       2.391   3.483  20.200  0.00  0.00    +0.000 OA
ATOM     23  C   UNL     1       1.812   3.164  21.463  0.00  0.00    +0.000 C 
ENDBRANCH  20  22
BRANCH  16  24
ATOM     24  C   UNL     1       1.149   8.250  21.002  0.00  0.00    +0.000 C 
BRANCH  24  26
ATOM     25  C   UNL     1      -0.345   9.973  19.945  0.00  0.00    +0.000 C 
ATOM     26  C   UNL     1       0.876   9.491  20.205  0.00  0.00    +0.000 C 
ENDBRANCH  24  26
ENDBRANCH  16  24
ENDBRANCH  15  19
ENDBRANCH   1  15
TORSDOF 9
ENDMDL
MODEL 3
REMARK VINA RESULT:      -7.2      0.949      1.096
REMARK  Name = 
REMARK  11 active torsions:
REMARK  status: ('A' for Active; 'I' for Inactive)
REMARK    1  A    between atoms: C_2  and  C_3
REMARK    2  A    between atoms: C_3  and  C_4
REMARK    3  A    between atoms: C_7  and  O_8
REMARK    4  A    between atoms: O_8  and  C_9
REMARK    5  A    between atoms: C_11  and  C_12
REMARK    6  A    between atoms: C_12  and  C_14
REMARK    7  A    between atoms: C_17  and  O_18
REMARK    8  A    between atoms: O_18  and  C_19
REMARK    9  A    between atoms: C_20  and  O_21
REMARK   10  A    between atoms: C_22  and  O_23
REMARK   11  A    between atoms: O_23  and  C_24
REMARK                            x       y       z     vdW  Elec       q    Type
REMARK                         _______ _______ _______ _____ _____    ______ ____
ROOT
ATOM      1  C   UNL     1       4.882   4.564  19.202  0.00  0.00    +0.000 A 
ATOM      2  C   UNL     1       4.270   5.822  19.260  0.00  0.00    +0.000 A 
ATOM      3  C   UNL     1       2.922   5.930  19.598  0.00  0.00    +0.000 A 
ATOM      4  C   UNL     1       2.203   4.786  19.950  0.00  0.00    +0.000 A 
ATOM      5  C   UNL     1       2.829   3.533  20.009  0.00  0.00    +0.000 A 
ATOM      6  C   UNL     1       4.175   3.425  19.628  0.00  0.00    +0.000 A 
ENDROOT
BRANCH   3   7
ATOM      7  C   UNL     1       2.290   7.268  19.488  0.00  0.00    +0.000 C 
ATOM      8  O   UNL     1       2.418   7.917  18.460  0.00  0.00    +0.000 OA
BRANCH   7   9
ATOM      9  C   UNL     1       1.540   7.786  20.660  0.00  0.00    +0.000 C 
ATOM     10  C   UNL     1       1.024   9.023  20.625  0.00  0.00    +0.000 C 
ENDBRANCH   7   9
ENDBRANCH   3   7
BRANCH   5  11
ATOM     11  O   UNL     1       1.966   2.540  20.395  0.00  0.00    +0.000 OA
ATOM     12  C   UNL     1       0.986   2.092  19.470  0.00  0.00    +0.000 C 
ENDBRANCH   5  11
BRANCH   6  13
ATOM     13  O   UNL     1       4.793   2.204  19.608  0.00  0.00    +0.000 OA
ATOM     14  H   UNL     1       5.193   2.100  18.726  0.00  0.00    +0.000 HD
ENDBRANCH   6  13
BRANCH   1  15
ATOM     15  O   UNL     1       6.172   4.409  18.705  0.00  0.00    +0.000 OA
BRANCH  15  19
ATOM     16  C   UNL     1       6.470   4.356  14.511  0.00  0.00    +0.000 A 
ATOM     17  C   UNL     1       5.660   3.428  15.171  0.00  0.00    +0.000 A 
ATOM     18  C   UNL     1       5.615   3.398  16.563  0.00  0.00    +0.000 A 
ATOM     19  C   UNL     1       6.316   4.349  17.322  0.00  0.00    +0.000 A 
ATOM     20  C   UNL     1       7.169   5.262  16.675  0.00  0.00    +0.000 A 
ATOM     21  C   UNL     1       7.252   5.241  15.272  0.00  0.00    +0.000 A 
BRANCH  20  22
ATOM     22  O   UNL     1       7.882   6.124  17.473  0.00  0.00    +0.000 OA
ATOM     23  C   UNL     1       7.464   7.487  17.464  0.00  0.00    +0.000 C 
ENDBRANCH  20  22
BRANCH  16  24
ATOM     24  C   UNL     1       6.520   4.373  13.001  0.00  0.00    +0.000 C 
BRANCH  24  26
ATOM     25  C   UNL     1       5.851   2.385  11.617  0.00  0.00    +0.000 C 
ATOM     26  C   UNL     1       5.529   3.428  12.391  0.00  0.00    +0.000 C 
ENDBRANCH  24  26
ENDBRANCH  16  24
ENDBRANCH  15  19
ENDBRANCH   1  15
TORSDOF 9
ENDMDL
MODEL 4
REMARK VINA RESULT:      -7.1      1.085      1.203
REMARK  Name = 
REMARK  11 active torsions:
REMARK  status: ('A' for Active; 'I' for Inactive)
REMARK    1  A    between atoms: C_2  and  C_3
REMARK    2  A    between atoms: C_3  and  C_4
REMARK    3  A    between atoms: C_7  and  O_8
REMARK    4  A    between atoms: O_8  and  C_9
REMARK    5  A    between atoms: C_11  and  C_12
REMARK    6  A    between atoms: C_12  and  C_14
REMARK    7  A    between atoms: C_17  and  O_18
REMARK    8  A    between atoms: O_18  and  C_19
REMARK    9  A    between atoms: C_20  and  O_21
REMARK   10  A    between atoms: C_22  and  O_23
REMARK   11  A    between atoms: O_23  and  C_24
REMARK                            x       y       z     vdW  Elec       q    Type
REMARK                         _______ _______ _______ _____ _____    ______ ____
ROOT
ATOM      1  C   UNL     1       4.429   5.280  18.933  0.00  0.00    +0.000 A 
ATOM      2  C   UNL     1       4.019   6.559  18.539  0.00  0.00    +0.000 A 
ATOM      3  C   UNL     1       2.702   6.966  18.746  0.00  0.00    +0.000 A 
ATOM      4  C   UNL     1       1.813   6.122  19.415  0.00  0.00    +0.000 A 
ATOM      5  C   UNL     1       2.238   4.885  19.919  0.00  0.00    +0.000 A 
ATOM      6  C   UNL     1       3.553   4.463  19.670  0.00  0.00    +0.000 A 
ENDROOT
BRANCH   3   7
ATOM      7  C   UNL     1       2.285   8.268  18.166  0.00  0.00    +0.000 C 
ATOM      8  O   UNL     1       2.710   8.607  17.071  0.00  0.00    +0.000 OA
BRANCH   7   9
ATOM      9  C   UNL     1       1.378   9.130  18.964  0.00  0.00    +0.000 C 
ATOM     10  C   UNL     1       0.467   9.891  18.341  0.00  0.00    +0.000 C 
ENDBRANCH   7   9
ENDBRANCH   3   7
BRANCH   5  11
ATOM     11  O   UNL     1       1.230   4.213  20.561  0.00  0.00    +0.000 OA
ATOM     12  C   UNL     1       0.651   3.083  19.925  0.00  0.00    +0.000 C 
ENDBRANCH   5  11
BRANCH   6  13
ATOM     13  O   UNL     1       3.974   3.230  20.088  0.00  0.00    +0.000 OA
ATOM     14  H   UNL     1       3.478   3.016  20.898  0.00  0.00    +0.000 HD
ENDBRANCH   6  13
BRANCH   1  15
ATOM     15  O   UNL     1       5.682   4.783  18.588  0.00  0.00    +0.000 OA
BRANCH  15  19
ATOM     16  C   UNL     1       6.333   4.315  14.460  0.00  0.00    +0.000 A 
ATOM     17  C   UNL     1       5.292   3.630  15.091  0.00  0.00    +0.000 A 
ATOM     18  C   UNL     1       5.118   3.728  16.469  0.00  0.00    +0.000 A 
ATOM     19  C   UNL     1       5.932   4.578  17.234  0.00  0.00    +0.000 A 
ATOM     20  C   UNL     1       7.011   5.242  16.622  0.00  0.00    +0.000 A 
ATOM     21  C   UNL     1       7.213   5.086  15.240  0.00  0.00    +0.000 A 
BRANCH  20  22
ATOM     22  O   UNL     1       7.815   6.006  17.432  0.00  0.00    +0.000 OA
ATOM     23  C   UNL     1       7.539   7.405  17.462  0.00  0.00    +0.000 C 
ENDBRANCH  20  22
BRANCH  16  24
ATOM     24  C   UNL     1       6.519   4.194  12.966  0.00  0.00    +0.000 C 
BRANCH  24  26
ATOM     25  C   UNL     1       4.617   3.355  11.552  0.00  0.00    +0.000 C 
ATOM     26  C   UNL     1       5.650   3.126  12.372  0.00  0.00    +0.000 C 
ENDBRANCH  24  26
ENDBRANCH  16  24
ENDBRANCH  15  19
ENDBRANCH   1  15
TORSDOF 9
ENDMDL
MODEL 5
REMARK VINA RESULT:      -7.1      1.719      6.859
REMARK  Name = 
REMARK  11 active torsions:
REMARK  status: ('A' for Active; 'I' for Inactive)
REMARK    1  A    between atoms: C_2  and  C_3
REMARK    2  A    between atoms: C_3  and  C_4
REMARK    3  A    between atoms: C_7  and  O_8
REMARK    4  A    between atoms: O_8  and  C_9
REMARK    5  A    between atoms: C_11  and  C_12
REMARK    6  A    between atoms: C_12  and  C_14
REMARK    7  A    between atoms: C_17  and  O_18
REMARK    8  A    between atoms: O_18  and  C_19
REMARK    9  A    between atoms: C_20  and  O_21
REMARK   10  A    between atoms: C_22  and  O_23
REMARK   11  A    between atoms: O_23  and  C_24
REMARK                            x       y       z     vdW  Elec       q    Type
REMARK                         _______ _______ _______ _____ _____    ______ ____
ROOT
ATOM      1  C   UNL     1       4.585   4.596  17.455  0.00  0.00    +0.000 A 
ATOM      2  C   UNL     1       4.942   4.500  16.105  0.00  0.00    +0.000 A 
ATOM      3  C   UNL     1       6.283   4.572  15.728  0.00  0.00    +0.000 A 
ATOM      4  C   UNL     1       7.273   4.664  16.708  0.00  0.00    +0.000 A 
ATOM      5  C   UNL     1       6.941   4.646  18.070  0.00  0.00    +0.000 A 
ATOM      6  C   UNL     1       5.588   4.616  18.441  0.00  0.00    +0.000 A 
ENDROOT
BRANCH   3   7
ATOM      7  C   UNL     1       6.587   4.624  14.277  0.00  0.00    +0.000 C 
ATOM      8  O   UNL     1       7.444   5.393  13.864  0.00  0.00    +0.000 OA
BRANCH   7   9
ATOM      9  C   UNL     1       5.808   3.748  13.367  0.00  0.00    +0.000 C 
ATOM     10  C   UNL     1       6.325   3.396  12.180  0.00  0.00    +0.000 C 
ENDBRANCH   7   9
ENDBRANCH   3   7
BRANCH   5  11
ATOM     11  O   UNL     1       8.048   4.724  18.875  0.00  0.00    +0.000 OA
ATOM     12  C   UNL     1       8.272   5.917  19.612  0.00  0.00    +0.000 C 
ENDBRANCH   5  11
BRANCH   6  13
ATOM     13  O   UNL     1       5.232   4.668  19.761  0.00  0.00    +0.000 OA
ATOM     14  H   UNL     1       5.638   5.469  20.137  0.00  0.00    +0.000 HD
ENDBRANCH   6  13
BRANCH   1  15
ATOM     15  O   UNL     1       3.255   4.700  17.847  0.00  0.00    +0.000 OA
BRANCH  15  19
ATOM     16  C   UNL     1       1.792   8.392  19.230  0.00  0.00    +0.000 A 
ATOM     17  C   UNL     1       2.353   8.290  17.954  0.00  0.00    +0.000 A 
ATOM     18  C   UNL     1       2.902   7.085  17.521  0.00  0.00    +0.000 A 
ATOM     19  C   UNL     1       2.828   5.936  18.324  0.00  0.00    +0.000 A 
ATOM     20  C   UNL     1       2.305   6.032  19.627  0.00  0.00    +0.000 A 
ATOM     21  C   UNL     1       1.811   7.268  20.075  0.00  0.00    +0.000 A 
BRANCH  20  22
ATOM     22  O   UNL     1       2.321   4.891  20.392  0.00  0.00    +0.000 OA
ATOM     23  C   UNL     1       1.086   4.186  20.505  0.00  0.00    +0.000 C 
ENDBRANCH  20  22
BRANCH  16  24
ATOM     24  C   UNL     1       1.209   9.706  19.694  0.00  0.00    +0.000 C 
BRANCH  24  26
ATOM     25  C   UNL     1       1.733  11.965  18.723  0.00  0.00    +0.000 C 
ATOM     26  C   UNL     1       1.206  10.740  18.608  0.00  0.00    +0.000 C 
ENDBRANCH  24  26
ENDBRANCH  16  24
ENDBRANCH  15  19
ENDBRANCH   1  15
TORSDOF 9
ENDMDL
MODEL 6
REMARK VINA RESULT:      -6.9      2.383      6.882
REMARK  Name = 
REMARK  11 active torsions:
REMARK  status: ('A' for Active; 'I' for Inactive)
REMARK    1  A    between atoms: C_2  and  C_3
REMARK    2  A    between atoms: C_3  and  C_4
REMARK    3  A    between atoms: C_7  and  O_8
REMARK    4  A    between atoms: O_8  and  C_9
REMARK    5  A    between atoms: C_11  and  C_12
REMARK    6  A    between atoms: C_12  and  C_14
REMARK    7  A    between atoms: C_17  and  O_18
REMARK    8  A    between atoms: O_18  and  C_19
REMARK    9  A    between atoms: C_20  and  O_21
REMARK   10  A    between atoms: C_22  and  O_23
REMARK   11  A    between atoms: O_23  and  C_24
REMARK                            x       y       z     vdW  Elec       q    Type
REMARK                         _______ _______ _______ _____ _____    ______ ____
ROOT
ATOM      1  C   UNL     1       3.019   6.302  18.914  0.00  0.00    +0.000 A 
ATOM      2  C   UNL     1       3.880   6.504  17.829  0.00  0.00    +0.000 A 
ATOM      3  C   UNL     1       4.271   5.427  17.036  0.00  0.00    +0.000 A 
ATOM      4  C   UNL     1       3.743   4.158  17.282  0.00  0.00    +0.000 A 
ATOM      5  C   UNL     1       2.791   3.959  18.293  0.00  0.00    +0.000 A 
ATOM      6  C   UNL     1       2.434   5.039  19.114  0.00  0.00    +0.000 A 
ENDROOT
BRANCH   3   7
ATOM      7  C   UNL     1       5.306   5.674  16.001  0.00  0.00    +0.000 C 
ATOM      8  O   UNL     1       5.407   6.784  15.497  0.00  0.00    +0.000 OA
BRANCH   7   9
ATOM      9  C   UNL     1       6.172   4.540  15.593  0.00  0.00    +0.000 C 
ATOM     10  C   UNL     1       6.125   4.089  14.331  0.00  0.00    +0.000 C 
ENDBRANCH   7   9
ENDBRANCH   3   7
BRANCH   5  11
ATOM     11  O   UNL     1       2.377   2.654  18.365  0.00  0.00    +0.000 OA
ATOM     12  C   UNL     1       3.348   1.624  18.244  0.00  0.00    +0.000 C 
ENDBRANCH   5  11
BRANCH   6  13
ATOM     13  O   UNL     1       1.561   4.859  20.152  0.00  0.00    +0.000 OA
ATOM     14  H   UNL     1       0.779   5.409  19.969  0.00  0.00    +0.000 HD
ENDBRANCH   6  13
BRANCH   1  15
ATOM     15  O   UNL     1       2.747   7.320  19.823  0.00  0.00    +0.000 OA
BRANCH  15  19
ATOM     16  C   UNL     1      -0.176  10.103  18.643  0.00  0.00    +0.000 A 
ATOM     17  C   UNL     1       0.656   9.509  17.691  0.00  0.00    +0.000 A 
ATOM     18  C   UNL     1       1.671   8.641  18.086  0.00  0.00    +0.000 A 
ATOM     19  C   UNL     1       1.823   8.286  19.436  0.00  0.00    +0.000 A 
ATOM     20  C   UNL     1       1.022   8.907  20.412  0.00  0.00    +0.000 A 
ATOM     21  C   UNL     1       0.042   9.828  20.005  0.00  0.00    +0.000 A 
BRANCH  20  22
ATOM     22  O   UNL     1       1.261   8.572  21.722  0.00  0.00    +0.000 OA
ATOM     23  C   UNL     1       0.530   9.300  22.706  0.00  0.00    +0.000 C 
ENDBRANCH  20  22
BRANCH  16  24
ATOM     24  C   UNL     1      -1.267  11.051  18.205  0.00  0.00    +0.000 C 
BRANCH  24  26
ATOM     25  C   UNL     1      -2.738   9.939  16.496  0.00  0.00    +0.000 C 
ATOM     26  C   UNL     1      -2.501  10.326  17.756  0.00  0.00    +0.000 C 
ENDBRANCH  24  26
ENDBRANCH  16  24
ENDBRANCH  15  19
ENDBRANCH   1  15
TORSDOF 9
ENDMDL
MODEL 7
REMARK VINA RESULT:      -6.8      2.050      7.089
REMARK  Name = 
REMARK  11 active torsions:
REMARK  status: ('A' for Active; 'I' for Inactive)
REMARK    1  A    between atoms: C_2  and  C_3
REMARK    2  A    between atoms: C_3  and  C_4
REMARK    3  A    between atoms: C_7  and  O_8
REMARK    4  A    between atoms: O_8  and  C_9
REMARK    5  A    between atoms: C_11  and  C_12
REMARK    6  A    between atoms: C_12  and  C_14
REMARK    7  A    between atoms: C_17  and  O_18
REMARK    8  A    between atoms: O_18  and  C_19
REMARK    9  A    between atoms: C_20  and  O_21
REMARK   10  A    between atoms: C_22  and  O_23
REMARK   11  A    between atoms: O_23  and  C_24
REMARK                            x       y       z     vdW  Elec       q    Type
REMARK                         _______ _______ _______ _____ _____    ______ ____
ROOT
ATOM      1  C   UNL     1       4.439   4.330  17.384  0.00  0.00    +0.000 A 
ATOM      2  C   UNL     1       4.718   4.217  16.017  0.00  0.00    +0.000 A 
ATOM      3  C   UNL     1       6.029   4.338  15.557  0.00  0.00    +0.000 A 
ATOM      4  C   UNL     1       7.071   4.498  16.472  0.00  0.00    +0.000 A 
ATOM      5  C   UNL     1       6.823   4.499  17.852  0.00  0.00    +0.000 A 
ATOM      6  C   UNL     1       5.498   4.418  18.306  0.00  0.00    +0.000 A 
ENDROOT
BRANCH   3   7
ATOM      7  C   UNL     1       6.243   4.368  14.089  0.00  0.00    +0.000 C 
ATOM      8  O   UNL     1       5.404   3.882  13.343  0.00  0.00    +0.000 OA
BRANCH   7   9
ATOM      9  C   UNL     1       7.499   4.971  13.578  0.00  0.00    +0.000 C 
ATOM     10  C   UNL     1       7.646   5.186  12.262  0.00  0.00    +0.000 C 
ENDBRANCH   7   9
ENDBRANCH   3   7
BRANCH   5  11
ATOM     11  O   UNL     1       7.971   4.645  18.586  0.00  0.00    +0.000 OA
ATOM     12  C   UNL     1       8.168   5.851  19.309  0.00  0.00    +0.000 C 
ENDBRANCH   5  11
BRANCH   6  13
ATOM     13  O   UNL     1       5.219   4.487  19.644  0.00  0.00    +0.000 OA
ATOM     14  H   UNL     1       4.295   4.204  19.760  0.00  0.00    +0.000 HD
ENDBRANCH   6  13
BRANCH   1  15
ATOM     15  O   UNL     1       3.131   4.385  17.853  0.00  0.00    +0.000 OA
BRANCH  15  19
ATOM     16  C   UNL     1       1.760   7.881  19.746  0.00  0.00    +0.000 A 
ATOM     17  C   UNL     1       2.231   7.930  18.431  0.00  0.00    +0.000 A 
ATOM     18  C   UNL     1       2.751   6.788  17.827  0.00  0.00    +0.000 A 
ATOM     19  C   UNL     1       2.736   5.555  18.497  0.00  0.00    +0.000 A 
ATOM     20  C   UNL     1       2.305   5.496  19.835  0.00  0.00    +0.000 A 
ATOM     21  C   UNL     1       1.840   6.669  20.454  0.00  0.00    +0.000 A 
BRANCH  20  22
ATOM     22  O   UNL     1       2.377   4.276  20.462  0.00  0.00    +0.000 OA
ATOM     23  C   UNL     1       1.141   3.596  20.668  0.00  0.00    +0.000 C 
ENDBRANCH  20  22
BRANCH  16  24
ATOM     24  C   UNL     1       1.208   9.128  20.396  0.00  0.00    +0.000 C 
BRANCH  24  26
ATOM     25  C   UNL     1      -0.321   9.059  22.390  0.00  0.00    +0.000 C 
ATOM     26  C   UNL     1       0.894   8.918  21.847  0.00  0.00    +0.000 C 
ENDBRANCH  24  26
ENDBRANCH  16  24
ENDBRANCH  15  19
ENDBRANCH   1  15
TORSDOF 9
ENDMDL
MODEL 8
REMARK VINA RESULT:      -6.8      1.040      1.344
REMARK  Name = 
REMARK  11 active torsions:
REMARK  status: ('A' for Active; 'I' for Inactive)
REMARK    1  A    between atoms: C_2  and  C_3
REMARK    2  A    between atoms: C_3  and  C_4
REMARK    3  A    between atoms: C_7  and  O_8
REMARK    4  A    between atoms: O_8  and  C_9
REMARK    5  A    between atoms: C_11  and  C_12
REMARK    6  A    between atoms: C_12  and  C_14
REMARK    7  A    between atoms: C_17  and  O_18
REMARK    8  A    between atoms: O_18  and  C_19
REMARK    9  A    between atoms: C_20  and  O_21
REMARK   10  A    between atoms: C_22  and  O_23
REMARK   11  A    between atoms: O_23  and  C_24
REMARK                            x       y       z     vdW  Elec       q    Type
REMARK                         _______ _______ _______ _____ _____    ______ ____
ROOT
ATOM      1  C   UNL     1       4.258   4.501  19.491  0.00  0.00    +0.000 A 
ATOM      2  C   UNL     1       3.838   5.836  19.525  0.00  0.00    +0.000 A 
ATOM      3  C   UNL     1       2.492   6.141  19.727  0.00  0.00    +0.000 A 
ATOM      4  C   UNL     1       1.578   5.113  19.969  0.00  0.00    +0.000 A 
ATOM      5  C   UNL     1       2.002   3.779  20.053  0.00  0.00    +0.000 A 
ATOM      6  C   UNL     1       3.349   3.476  19.808  0.00  0.00    +0.000 A 
ENDROOT
BRANCH   3   7
ATOM      7  C   UNL     1       2.082   7.561  19.594  0.00  0.00    +0.000 C 
ATOM      8  O   UNL     1       1.600   8.145  20.554  0.00  0.00    +0.000 OA
BRANCH   7   9
ATOM      9  C   UNL     1       2.249   8.217  18.273  0.00  0.00    +0.000 C 
ATOM     10  C   UNL     1       1.465   9.254  17.943  0.00  0.00    +0.000 C 
ENDBRANCH   7   9
ENDBRANCH   3   7
BRANCH   5  11
ATOM     11  O   UNL     1       0.965   2.923  20.319  0.00  0.00    +0.000 OA
ATOM     12  C   UNL     1       0.415   2.167  19.250  0.00  0.00    +0.000 C 
ENDBRANCH   5  11
BRANCH   6  13
ATOM     13  O   UNL     1       3.777   2.176  19.814  0.00  0.00    +0.000 OA
ATOM     14  H   UNL     1       4.750   2.194  19.823  0.00  0.00    +0.000 HD
ENDBRANCH   6  13
BRANCH   1  15
ATOM     15  O   UNL     1       5.556   4.160  19.124  0.00  0.00    +0.000 OA
BRANCH  15  19
ATOM     16  C   UNL     1       6.403   4.350  15.009  0.00  0.00    +0.000 A 
ATOM     17  C   UNL     1       5.139   3.951  15.450  0.00  0.00    +0.000 A 
ATOM     18  C   UNL     1       4.878   3.819  16.812  0.00  0.00    +0.000 A 
ATOM     19  C   UNL     1       5.852   4.162  17.763  0.00  0.00    +0.000 A 
ATOM     20  C   UNL     1       7.142   4.525  17.337  0.00  0.00    +0.000 A 
ATOM     21  C   UNL     1       7.411   4.595  15.959  0.00  0.00    +0.000 A 
BRANCH  20  22
ATOM     22  O   UNL     1       8.073   4.784  18.313  0.00  0.00    +0.000 OA
ATOM     23  C   UNL     1       7.984   6.055  18.953  0.00  0.00    +0.000 C 
ENDBRANCH  20  22
BRANCH  16  24
ATOM     24  C   UNL     1       6.680   4.480  13.530  0.00  0.00    +0.000 C 
BRANCH  24  26
ATOM     25  C   UNL     1       8.152   6.015  12.189  0.00  0.00    +0.000 C 
ATOM     26  C   UNL     1       7.949   5.231  13.255  0.00  0.00    +0.000 C 
ENDBRANCH  24  26
ENDBRANCH  16  24
ENDBRANCH  15  19
ENDBRANCH   1  15
TORSDOF 9
ENDMDL
MODEL 9
REMARK VINA RESULT:      -6.7      2.153      7.097
REMARK  Name = 
REMARK  11 active torsions:
REMARK  status: ('A' for Active; 'I' for Inactive)
REMARK    1  A    between atoms: C_2  and  C_3
REMARK    2  A    between atoms: C_3  and  C_4
REMARK    3  A    between atoms: C_7  and  O_8
REMARK    4  A    between atoms: O_8  and  C_9
REMARK    5  A    between atoms: C_11  and  C_12
REMARK    6  A    between atoms: C_12  and  C_14
REMARK    7  A    between atoms: C_17  and  O_18
REMARK    8  A    between atoms: O_18  and  C_19
REMARK    9  A    between atoms: C_20  and  O_21
REMARK   10  A    between atoms: C_22  and  O_23
REMARK   11  A    between atoms: O_23  and  C_24
REMARK                            x       y       z     vdW  Elec       q    Type
REMARK                         _______ _______ _______ _____ _____    ______ ____
ROOT
ATOM      1  C   UNL     1       4.478   5.055  17.787  0.00  0.00    +0.000 A 
ATOM      2  C   UNL     1       5.431   5.999  18.187  0.00  0.00    +0.000 A 
ATOM      3  C   UNL     1       6.683   6.032  17.575  0.00  0.00    +0.000 A 
ATOM      4  C   UNL     1       6.957   5.169  16.511  0.00  0.00    +0.000 A 
ATOM      5  C   UNL     1       5.975   4.297  16.022  0.00  0.00    +0.000 A 
ATOM      6  C   UNL     1       4.731   4.239  16.669  0.00  0.00    +0.000 A 
ENDROOT
BRANCH   3   7
ATOM      7  C   UNL     1       7.704   6.945  18.147  0.00  0.00    +0.000 C 
ATOM      8  O   UNL     1       8.378   6.581  19.100  0.00  0.00    +0.000 OA
BRANCH   7   9
ATOM      9  C   UNL     1       7.849   8.295  17.546  0.00  0.00    +0.000 C 
ATOM     10  C   UNL     1       8.446   9.272  18.245  0.00  0.00    +0.000 C 
ENDBRANCH   7   9
ENDBRANCH   3   7
BRANCH   5  11
ATOM     11  O   UNL     1       6.425   3.550  14.965  0.00  0.00    +0.000 OA
ATOM     12  C   UNL     1       6.228   4.044  13.649  0.00  0.00    +0.000 C 
ENDBRANCH   5  11
BRANCH   6  13
ATOM     13  O   UNL     1       3.778   3.347  16.258  0.00  0.00    +0.000 OA
ATOM     14  H   UNL     1       2.911   3.765  16.407  0.00  0.00    +0.000 HD
ENDBRANCH   6  13
BRANCH   1  15
ATOM     15  O   UNL     1       3.289   4.884  18.489  0.00  0.00    +0.000 OA
BRANCH  15  19
ATOM     16  C   UNL     1       1.397   8.255  20.143  0.00  0.00    +0.000 A 
ATOM     17  C   UNL     1       1.956   8.318  18.864  0.00  0.00    +0.000 A 
ATOM     18  C   UNL     1       2.644   7.225  18.343  0.00  0.00    +0.000 A 
ATOM     19  C   UNL     1       2.718   6.020  19.057  0.00  0.00    +0.000 A 
ATOM     20  C   UNL     1       2.199   5.952  20.363  0.00  0.00    +0.000 A 
ATOM     21  C   UNL     1       1.560   7.083  20.902  0.00  0.00    +0.000 A 
BRANCH  20  22
ATOM     22  O   UNL     1       2.361   4.768  21.040  0.00  0.00    +0.000 OA
ATOM     23  C   UNL     1       1.331   3.796  20.872  0.00  0.00    +0.000 C 
ENDBRANCH  20  22
BRANCH  16  24
ATOM     24  C   UNL     1       0.662   9.450  20.705  0.00  0.00    +0.000 C 
BRANCH  24  26
ATOM     25  C   UNL     1      -0.309   9.698  23.010  0.00  0.00    +0.000 C 
ATOM     26  C   UNL     1       0.741   9.511  22.201  0.00  0.00    +0.000 C 
ENDBRANCH  24  26
ENDBRANCH  16  24
ENDBRANCH  15  19
ENDBRANCH   1  15
TORSDOF 9
ENDMDL
