MODEL 1
REMARK VINA RESULT:      -7.1      0.000      0.000
REMARK  Name = 
REMARK  3 active torsions:
REMARK  status: ('A' for Active; 'I' for Inactive)
REMARK    1  A    between atoms: N_1  and  C_2
REMARK    2  A    between atoms: N_10  and  C_11
REMARK    3  A    between atoms: C_14  and  N_15
REMARK                            x       y       z     vdW  Elec       q    Type
REMARK                         _______ _______ _______ _____ _____    ______ ____
ROOT
ATOM      1  C   UNL     1       2.318   2.896  21.163  0.00  0.00    +0.000 A 
ATOM      2  N   UNL     1       3.360   2.154  21.583  0.00  0.00    +0.000 NA
ATOM      3  C   UNL     1       4.475   2.130  20.830  0.00  0.00    +0.000 A 
ATOM      4  N   UNL     1       4.702   2.767  19.672  0.00  0.00    +0.000 NA
ATOM      5  C   UNL     1       3.643   3.510  19.282  0.00  0.00    +0.000 A 
ATOM      6  C   UNL     1       2.452   3.626  19.980  0.00  0.00    +0.000 A 
ATOM      7  C   UNL     1       1.681   4.517  19.220  0.00  0.00    +0.000 A 
ATOM      8  N   UNL     1       2.309   4.954  18.129  0.00  0.00    +0.000 NA
ATOM      9  N   UNL     1       3.512   4.300  18.141  0.00  0.00    +0.000 N 
ENDROOT
BRANCH   9  10
ATOM     10  C   UNL     1       4.428   4.486  17.057  0.00  0.00    +0.000 A 
ATOM     11  C   UNL     1       4.960   3.359  16.404  0.00  0.00    +0.000 A 
ATOM     12  C   UNL     1       5.853   3.506  15.336  0.00  0.00    +0.000 A 
ATOM     13  C   UNL     1       6.227   4.790  14.923  0.00  0.00    +0.000 A 
ATOM     14  C   UNL     1       5.715   5.919  15.571  0.00  0.00    +0.000 A 
ATOM     15  C   UNL     1       4.817   5.766  16.633  0.00  0.00    +0.000 A 
BRANCH  13  16
ATOM     16  N   UNL     1       7.164   4.955  13.804  0.00  0.00    +0.000 N 
ATOM     17  O   UNL     1       6.908   4.364  12.747  0.00  0.00    +0.000 OA
ATOM     18  O   UNL     1       8.155   5.678  13.984  0.00  0.00    +0.000 OA
ENDBRANCH  13  16
ENDBRANCH   9  10
BRANCH   1  19
ATOM     19  N   UNL     1       1.176   2.880  21.942  0.00  0.00    +0.000 N 
ATOM     20  H   UNL     1       1.066   3.737  22.472  0.00  0.00    +0.000 HD
ATOM     21  H   UNL     1       0.343   2.469  21.551  0.00  0.00    +0.000 HD
ENDBRANCH   1  19
TORSDOF 3
ENDMDL
MODEL 2
REMARK VINA RESULT:      -7.0      4.760      6.110
REMARK  Name = 
REMARK  3 active torsions:
REMARK  status: ('A' for Active; 'I' for Inactive)
REMARK    1  A    between atoms: N_1  and  C_2
REMARK    2  A    between atoms: N_10  and  C_11
REMARK    3  A    between atoms: C_14  and  N_15
REMARK                            x       y       z     vdW  Elec       q    Type
REMARK                         _______ _______ _______ _____ _____    ______ ____
ROOT
ATOM      1  C   UNL     1       3.957   2.832  20.154  0.00  0.00    +0.000 A 
ATOM      2  N   UNL     1       3.019   2.548  21.078  0.00  0.00    +0.000 NA
ATOM      3  C   UNL     1       2.085   3.478  21.350  0.00  0.00    +0.000 A 
ATOM      4  N   UNL     1       1.953   4.697  20.809  0.00  0.00    +0.000 NA
ATOM      5  C   UNL     1       2.902   4.949  19.880  0.00  0.00    +0.000 A 
ATOM      6  C   UNL     1       3.901   4.067  19.503  0.00  0.00    +0.000 A 
ATOM      7  C   UNL     1       4.611   4.740  18.499  0.00  0.00    +0.000 A 
ATOM      8  N   UNL     1       4.119   5.950  18.233  0.00  0.00    +0.000 NA
ATOM      9  N   UNL     1       3.083   6.101  19.116  0.00  0.00    +0.000 N 
ENDROOT
BRANCH   9  10
ATOM     10  C   UNL     1       2.361   7.336  19.152  0.00  0.00    +0.000 A 
ATOM     11  C   UNL     1       2.257   8.107  17.979  0.00  0.00    +0.000 A 
ATOM     12  C   UNL     1       1.554   9.317  17.978  0.00  0.00    +0.000 A 
ATOM     13  C   UNL     1       0.956   9.767  19.161  0.00  0.00    +0.000 A 
ATOM     14  C   UNL     1       1.061   9.017  20.337  0.00  0.00    +0.000 A 
ATOM     15  C   UNL     1       1.760   7.804  20.330  0.00  0.00    +0.000 A 
BRANCH  13  16
ATOM     16  N   UNL     1       0.216  11.035  19.170  0.00  0.00    +0.000 N 
ATOM     17  O   UNL     1      -0.864  11.077  18.565  0.00  0.00    +0.000 OA
ATOM     18  O   UNL     1       0.715  11.990  19.785  0.00  0.00    +0.000 OA
ENDBRANCH  13  16
ENDBRANCH   9  10
BRANCH   1  19
ATOM     19  N   UNL     1       4.919   1.869  19.915  0.00  0.00    +0.000 N 
ATOM     20  H   UNL     1       5.858   2.229  20.041  0.00  0.00    +0.000 HD
ATOM     21  H   UNL     1       4.738   0.930  20.237  0.00  0.00    +0.000 HD
ENDBRANCH   1  19
TORSDOF 3
ENDMDL
MODEL 3
REMARK VINA RESULT:      -7.0      0.087      1.114
REMARK  Name = 
REMARK  3 active torsions:
REMARK  status: ('A' for Active; 'I' for Inactive)
REMARK    1  A    between atoms: N_1  and  C_2
REMARK    2  A    between atoms: N_10  and  C_11
REMARK    3  A    between atoms: C_14  and  N_15
REMARK                            x       y       z     vdW  Elec       q    Type
REMARK                         _______ _______ _______ _____ _____    ______ ____
ROOT
ATOM      1  C   UNL     1       2.309   2.885  21.135  0.00  0.00    +0.000 A 
ATOM      2  N   UNL     1       3.340   2.134  21.568  0.00  0.00    +0.000 NA
ATOM      3  C   UNL     1       4.461   2.095  20.825  0.00  0.00    +0.000 A 
ATOM      4  N   UNL     1       4.704   2.722  19.666  0.00  0.00    +0.000 NA
ATOM      5  C   UNL     1       3.657   3.475  19.262  0.00  0.00    +0.000 A 
ATOM      6  C   UNL     1       2.461   3.607  19.950  0.00  0.00    +0.000 A 
ATOM      7  C   UNL     1       1.706   4.502  19.179  0.00  0.00    +0.000 A 
ATOM      8  N   UNL     1       2.348   4.926  18.090  0.00  0.00    +0.000 NA
ATOM      9  N   UNL     1       3.544   4.260  18.117  0.00  0.00    +0.000 N 
ENDROOT
BRANCH   9  10
ATOM     10  C   UNL     1       4.470   4.431  17.039  0.00  0.00    +0.000 A 
ATOM     11  C   UNL     1       4.908   5.727  16.708  0.00  0.00    +0.000 A 
ATOM     12  C   UNL     1       5.818   5.929  15.663  0.00  0.00    +0.000 A 
ATOM     13  C   UNL     1       6.288   4.829  14.937  0.00  0.00    +0.000 A 
ATOM     14  C   UNL     1       5.852   3.537  15.247  0.00  0.00    +0.000 A 
ATOM     15  C   UNL     1       4.948   3.340  16.297  0.00  0.00    +0.000 A 
BRANCH  13  16
ATOM     16  N   UNL     1       7.243   5.031  13.840  0.00  0.00    +0.000 N 
ATOM     17  O   UNL     1       6.983   4.511  12.746  0.00  0.00    +0.000 OA
ATOM     18  O   UNL     1       8.253   5.712  14.072  0.00  0.00    +0.000 OA
ENDBRANCH  13  16
ENDBRANCH   9  10
BRANCH   1  19
ATOM     19  N   UNL     1       1.162   2.885  21.905  0.00  0.00    +0.000 N 
ATOM     20  H   UNL     1       1.364   3.016  22.890  0.00  0.00    +0.000 HD
ATOM     21  H   UNL     1       0.345   3.349  21.536  0.00  0.00    +0.000 HD
ENDBRANCH   1  19
TORSDOF 3
ENDMDL
MODEL 4
REMARK VINA RESULT:      -7.0      4.602      6.011
REMARK  Name = 
REMARK  3 active torsions:
REMARK  status: ('A' for Active; 'I' for Inactive)
REMARK    1  A    between atoms: N_1  and  C_2
REMARK    2  A    between atoms: N_10  and  C_11
REMARK    3  A    between atoms: C_14  and  N_15
REMARK                            x       y       z     vdW  Elec       q    Type
REMARK                         _______ _______ _______ _____ _____    ______ ____
ROOT
ATOM      1  C   UNL     1       3.461   2.154  18.869  0.00  0.00    +0.000 A 
ATOM      2  N   UNL     1       2.186   1.775  18.657  0.00  0.00    +0.000 NA
ATOM      3  C   UNL     1       1.240   2.728  18.570  0.00  0.00    +0.000 A 
ATOM      4  N   UNL     1       1.396   4.055  18.670  0.00  0.00    +0.000 NA
ATOM      5  C   UNL     1       2.685   4.405  18.872  0.00  0.00    +0.000 A 
ATOM      6  C   UNL     1       3.746   3.518  18.962  0.00  0.00    +0.000 A 
ATOM      7  C   UNL     1       4.875   4.331  19.133  0.00  0.00    +0.000 A 
ATOM      8  N   UNL     1       4.586   5.632  19.146  0.00  0.00    +0.000 NA
ATOM      9  N   UNL     1       3.223   5.682  19.025  0.00  0.00    +0.000 N 
ENDROOT
BRANCH   9  10
ATOM     10  C   UNL     1       2.557   6.947  19.070  0.00  0.00    +0.000 A 
ATOM     11  C   UNL     1       1.936   7.355  20.266  0.00  0.00    +0.000 A 
ATOM     12  C   UNL     1       1.281   8.590  20.346  0.00  0.00    +0.000 A 
ATOM     13  C   UNL     1       1.236   9.420  19.221  0.00  0.00    +0.000 A 
ATOM     14  C   UNL     1       1.838   9.022  18.023  0.00  0.00    +0.000 A 
ATOM     15  C   UNL     1       2.498   7.790  17.950  0.00  0.00    +0.000 A 
BRANCH  13  16
ATOM     16  N   UNL     1       0.551  10.717  19.295  0.00  0.00    +0.000 N 
ATOM     17  O   UNL     1      -0.687  10.718  19.259  0.00  0.00    +0.000 OA
ATOM     18  O   UNL     1       1.253  11.735  19.391  0.00  0.00    +0.000 OA
ENDBRANCH  13  16
ENDBRANCH   9  10
BRANCH   1  19
ATOM     19  N   UNL     1       4.407   1.152  18.981  0.00  0.00    +0.000 N 
ATOM     20  H   UNL     1       4.474   0.596  18.136  0.00  0.00    +0.000 HD
ATOM     21  H   UNL     1       5.268   1.367  19.461  0.00  0.00    +0.000 HD
ENDBRANCH   1  19
TORSDOF 3
ENDMDL
MODEL 5
REMARK VINA RESULT:      -7.0      4.592      5.991
REMARK  Name = 
REMARK  3 active torsions:
REMARK  status: ('A' for Active; 'I' for Inactive)
REMARK    1  A    between atoms: N_1  and  C_2
REMARK    2  A    between atoms: N_10  and  C_11
REMARK    3  A    between atoms: C_14  and  N_15
REMARK                            x       y       z     vdW  Elec       q    Type
REMARK                         _______ _______ _______ _____ _____    ______ ____
ROOT
ATOM      1  C   UNL     1       3.446   2.141  18.896  0.00  0.00    +0.000 A 
ATOM      2  N   UNL     1       2.163   1.761  18.743  0.00  0.00    +0.000 NA
ATOM      3  C   UNL     1       1.214   2.714  18.693  0.00  0.00    +0.000 A 
ATOM      4  N   UNL     1       1.373   4.042  18.779  0.00  0.00    +0.000 NA
ATOM      5  C   UNL     1       2.670   4.393  18.922  0.00  0.00    +0.000 A 
ATOM      6  C   UNL     1       3.734   3.506  18.969  0.00  0.00    +0.000 A 
ATOM      7  C   UNL     1       4.869   4.320  19.086  0.00  0.00    +0.000 A 
ATOM      8  N   UNL     1       4.581   5.621  19.105  0.00  0.00    +0.000 NA
ATOM      9  N   UNL     1       3.214   5.670  19.044  0.00  0.00    +0.000 N 
ENDROOT
BRANCH   9  10
ATOM     10  C   UNL     1       2.550   6.936  19.113  0.00  0.00    +0.000 A 
ATOM     11  C   UNL     1       2.554   7.777  17.984  0.00  0.00    +0.000 A 
ATOM     12  C   UNL     1       1.909   9.019  18.016  0.00  0.00    +0.000 A 
ATOM     13  C   UNL     1       1.264   9.430  19.187  0.00  0.00    +0.000 A 
ATOM     14  C   UNL     1       1.263   8.610  20.320  0.00  0.00    +0.000 A 
ATOM     15  C   UNL     1       1.902   7.366  20.280  0.00  0.00    +0.000 A 
BRANCH  13  16
ATOM     16  N   UNL     1       0.585  10.732  19.230  0.00  0.00    +0.000 N 
ATOM     17  O   UNL     1      -0.569  10.795  18.786  0.00  0.00    +0.000 OA
ATOM     18  O   UNL     1       1.208  11.691  19.709  0.00  0.00    +0.000 OA
ENDBRANCH  13  16
ENDBRANCH   9  10
BRANCH   1  19
ATOM     19  N   UNL     1       4.396   1.140  18.971  0.00  0.00    +0.000 N 
ATOM     20  H   UNL     1       4.667   0.944  19.928  0.00  0.00    +0.000 HD
ATOM     21  H   UNL     1       4.302   0.353  18.348  0.00  0.00    +0.000 HD
ENDBRANCH   1  19
TORSDOF 3
ENDMDL
MODEL 6
REMARK VINA RESULT:      -7.0      4.763      6.153
REMARK  Name = 
REMARK  3 active torsions:
REMARK  status: ('A' for Active; 'I' for Inactive)
REMARK    1  A    between atoms: N_1  and  C_2
REMARK    2  A    between atoms: N_10  and  C_11
REMARK    3  A    between atoms: C_14  and  N_15
REMARK                            x       y       z     vdW  Elec       q    Type
REMARK                         _______ _______ _______ _____ _____    ______ ____
ROOT
ATOM      1  C   UNL     1       3.985   2.834  20.145  0.00  0.00    +0.000 A 
ATOM      2  N   UNL     1       3.086   2.577  21.114  0.00  0.00    +0.000 NA
ATOM      3  C   UNL     1       2.166   3.517  21.400  0.00  0.00    +0.000 A 
ATOM      4  N   UNL     1       2.016   4.723  20.834  0.00  0.00    +0.000 NA
ATOM      5  C   UNL     1       2.926   4.947  19.860  0.00  0.00    +0.000 A 
ATOM      6  C   UNL     1       3.906   4.051  19.466  0.00  0.00    +0.000 A 
ATOM      7  C   UNL     1       4.575   4.696  18.416  0.00  0.00    +0.000 A 
ATOM      8  N   UNL     1       4.076   5.901  18.139  0.00  0.00    +0.000 NA
ATOM      9  N   UNL     1       3.078   6.078  19.060  0.00  0.00    +0.000 N 
ENDROOT
BRANCH   9  10
ATOM     10  C   UNL     1       2.362   7.316  19.094  0.00  0.00    +0.000 A 
ATOM     11  C   UNL     1       1.808   7.758  20.310  0.00  0.00    +0.000 A 
ATOM     12  C   UNL     1       1.106   8.967  20.379  0.00  0.00    +0.000 A 
ATOM     13  C   UNL     1       0.947   9.738  19.221  0.00  0.00    +0.000 A 
ATOM     14  C   UNL     1       1.482   9.306  18.004  0.00  0.00    +0.000 A 
ATOM     15  C   UNL     1       2.189   8.099  17.942  0.00  0.00    +0.000 A 
BRANCH  13  16
ATOM     16  N   UNL     1       0.212  11.008  19.284  0.00  0.00    +0.000 N 
ATOM     17  O   UNL     1       0.867  12.057  19.209  0.00  0.00    +0.000 OA
ATOM     18  O   UNL     1      -1.020  10.956  19.407  0.00  0.00    +0.000 OA
ENDBRANCH  13  16
ENDBRANCH   9  10
BRANCH   1  19
ATOM     19  N   UNL     1       4.934   1.861  19.892  0.00  0.00    +0.000 N 
ATOM     20  H   UNL     1       5.059   1.701  18.898  0.00  0.00    +0.000 HD
ATOM     21  H   UNL     1       5.761   1.846  20.469  0.00  0.00    +0.000 HD
ENDBRANCH   1  19
TORSDOF 3
ENDMDL
MODEL 7
REMARK VINA RESULT:      -7.0      1.470      1.824
REMARK  Name = 
REMARK  3 active torsions:
REMARK  status: ('A' for Active; 'I' for Inactive)
REMARK    1  A    between atoms: N_1  and  C_2
REMARK    2  A    between atoms: N_10  and  C_11
REMARK    3  A    between atoms: C_14  and  N_15
REMARK                            x       y       z     vdW  Elec       q    Type
REMARK                         _______ _______ _______ _____ _____    ______ ____
ROOT
ATOM      1  C   UNL     1       2.170   3.117  20.171  0.00  0.00    +0.000 A 
ATOM      2  N   UNL     1       1.876   1.955  19.555  0.00  0.00    +0.000 NA
ATOM      3  C   UNL     1       2.498   1.669  18.397  0.00  0.00    +0.000 A 
ATOM      4  N   UNL     1       3.406   2.409  17.743  0.00  0.00    +0.000 NA
ATOM      5  C   UNL     1       3.687   3.561  18.390  0.00  0.00    +0.000 A 
ATOM      6  C   UNL     1       3.125   3.956  19.593  0.00  0.00    +0.000 A 
ATOM      7  C   UNL     1       3.740   5.181  19.887  0.00  0.00    +0.000 A 
ATOM      8  N   UNL     1       4.630   5.554  18.968  0.00  0.00    +0.000 NA
ATOM      9  N   UNL     1       4.571   4.571  18.016  0.00  0.00    +0.000 N 
ENDROOT
BRANCH   9  10
ATOM     10  C   UNL     1       5.364   4.690  16.830  0.00  0.00    +0.000 A 
ATOM     11  C   UNL     1       4.761   4.481  15.575  0.00  0.00    +0.000 A 
ATOM     12  C   UNL     1       5.507   4.594  14.396  0.00  0.00    +0.000 A 
ATOM     13  C   UNL     1       6.869   4.909  14.470  0.00  0.00    +0.000 A 
ATOM     14  C   UNL     1       7.483   5.108  15.710  0.00  0.00    +0.000 A 
ATOM     15  C   UNL     1       6.731   5.000  16.886  0.00  0.00    +0.000 A 
BRANCH  13  16
ATOM     16  N   UNL     1       7.659   5.031  13.238  0.00  0.00    +0.000 N 
ATOM     17  O   UNL     1       8.623   5.808  13.246  0.00  0.00    +0.000 OA
ATOM     18  O   UNL     1       7.314   4.347  12.262  0.00  0.00    +0.000 OA
ENDBRANCH  13  16
ENDBRANCH   9  10
BRANCH   1  19
ATOM     19  N   UNL     1       1.496   3.396  21.345  0.00  0.00    +0.000 N 
ATOM     20  H   UNL     1       1.911   4.173  21.846  0.00  0.00    +0.000 HD
ATOM     21  H   UNL     1       0.489   3.338  21.336  0.00  0.00    +0.000 HD
ENDBRANCH   1  19
TORSDOF 3
ENDMDL
MODEL 8
REMARK VINA RESULT:      -7.0      4.729      6.857
REMARK  Name = 
REMARK  3 active torsions:
REMARK  status: ('A' for Active; 'I' for Inactive)
REMARK    1  A    between atoms: N_1  and  C_2
REMARK    2  A    between atoms: N_10  and  C_11
REMARK    3  A    between atoms: C_14  and  N_15
REMARK                            x       y       z     vdW  Elec       q    Type
REMARK                         _______ _______ _______ _____ _____    ______ ____
ROOT
ATOM      1  C   UNL     1       6.016   4.429  16.217  0.00  0.00    +0.000 A 
ATOM      2  N   UNL     1       6.985   5.363  16.285  0.00  0.00    +0.000 NA
ATOM      3  C   UNL     1       6.716   6.521  16.914  0.00  0.00    +0.000 A 
ATOM      4  N   UNL     1       5.570   6.892  17.505  0.00  0.00    +0.000 NA
ATOM      5  C   UNL     1       4.622   5.932  17.428  0.00  0.00    +0.000 A 
ATOM      6  C   UNL     1       4.787   4.697  16.824  0.00  0.00    +0.000 A 
ATOM      7  C   UNL     1       3.566   4.038  17.023  0.00  0.00    +0.000 A 
ATOM      8  N   UNL     1       2.683   4.768  17.704  0.00  0.00    +0.000 NA
ATOM      9  N   UNL     1       3.319   5.960  17.922  0.00  0.00    +0.000 N 
ENDROOT
BRANCH   9  10
ATOM     10  C   UNL     1       2.621   7.022  18.581  0.00  0.00    +0.000 A 
ATOM     11  C   UNL     1       2.291   8.182  17.855  0.00  0.00    +0.000 A 
ATOM     12  C   UNL     1       1.603   9.237  18.468  0.00  0.00    +0.000 A 
ATOM     13  C   UNL     1       1.251   9.137  19.819  0.00  0.00    +0.000 A 
ATOM     14  C   UNL     1       1.584   7.995  20.554  0.00  0.00    +0.000 A 
ATOM     15  C   UNL     1       2.265   6.940  19.935  0.00  0.00    +0.000 A 
BRANCH  13  16
ATOM     16  N   UNL     1       0.530  10.238  20.470  0.00  0.00    +0.000 N 
ATOM     17  O   UNL     1      -0.574  10.557  20.009  0.00  0.00    +0.000 OA
ATOM     18  O   UNL     1       1.069  10.783  21.445  0.00  0.00    +0.000 OA
ENDBRANCH  13  16
ENDBRANCH   9  10
BRANCH   1  19
ATOM     19  N   UNL     1       6.313   3.260  15.542  0.00  0.00    +0.000 N 
ATOM     20  H   UNL     1       7.132   3.359  14.953  0.00  0.00    +0.000 HD
ATOM     21  H   UNL     1       6.203   2.388  16.036  0.00  0.00    +0.000 HD
ENDBRANCH   1  19
TORSDOF 3
ENDMDL
MODEL 9
REMARK VINA RESULT:      -6.9      4.748      6.839
REMARK  Name = 
REMARK  3 active torsions:
REMARK  status: ('A' for Active; 'I' for Inactive)
REMARK    1  A    between atoms: N_1  and  C_2
REMARK    2  A    between atoms: N_10  and  C_11
REMARK    3  A    between atoms: C_14  and  N_15
REMARK                            x       y       z     vdW  Elec       q    Type
REMARK                         _______ _______ _______ _____ _____    ______ ____
ROOT
ATOM      1  C   UNL     1       6.008   4.439  16.238  0.00  0.00    +0.000 A 
ATOM      2  N   UNL     1       6.975   5.374  16.291  0.00  0.00    +0.000 NA
ATOM      3  C   UNL     1       6.704   6.542  16.902  0.00  0.00    +0.000 A 
ATOM      4  N   UNL     1       5.558   6.921  17.486  0.00  0.00    +0.000 NA
ATOM      5  C   UNL     1       4.611   5.959  17.425  0.00  0.00    +0.000 A 
ATOM      6  C   UNL     1       4.778   4.714  16.840  0.00  0.00    +0.000 A 
ATOM      7  C   UNL     1       3.558   4.056  17.050  0.00  0.00    +0.000 A 
ATOM      8  N   UNL     1       2.673   4.796  17.718  0.00  0.00    +0.000 NA
ATOM      9  N   UNL     1       3.308   5.992  17.918  0.00  0.00    +0.000 N 
ENDROOT
BRANCH   9  10
ATOM     10  C   UNL     1       2.609   7.063  18.560  0.00  0.00    +0.000 A 
ATOM     11  C   UNL     1       2.253   6.938  19.916  0.00  0.00    +0.000 A 
ATOM     12  C   UNL     1       1.573   7.969  20.575  0.00  0.00    +0.000 A 
ATOM     13  C   UNL     1       1.237   9.132  19.872  0.00  0.00    +0.000 A 
ATOM     14  C   UNL     1       1.574   9.265  18.522  0.00  0.00    +0.000 A 
ATOM     15  C   UNL     1       2.260   8.234  17.869  0.00  0.00    +0.000 A 
BRANCH  13  16
ATOM     16  N   UNL     1       0.524  10.219  20.555  0.00  0.00    +0.000 N 
ATOM     17  O   UNL     1      -0.560  10.584  20.082  0.00  0.00    +0.000 OA
ATOM     18  O   UNL     1       1.049  10.706  21.568  0.00  0.00    +0.000 OA
ENDBRANCH  13  16
ENDBRANCH   9  10
BRANCH   1  19
ATOM     19  N   UNL     1       6.306   3.259  15.581  0.00  0.00    +0.000 N 
ATOM     20  H   UNL     1       7.104   3.359  14.964  0.00  0.00    +0.000 HD
ATOM     21  H   UNL     1       6.229   2.397  16.100  0.00  0.00    +0.000 HD
ENDBRANCH   1  19
TORSDOF 3
ENDMDL
