MODEL 1
REMARK VINA RESULT:      -8.4      0.000      0.000
REMARK  Name = 
REMARK  7 active torsions:
REMARK  status: ('A' for Active; 'I' for Inactive)
REMARK    1  A    between atoms: C_1  and  O_2
REMARK    2  A    between atoms: O_2  and  C_3
REMARK    3  A    between atoms: C_8  and  C_9
REMARK    4  A    between atoms: N_11  and  C_12
REMARK    5  A    between atoms: C_17  and  N_18
REMARK    6  A    between atoms: C_21  and  O_22
REMARK    7  A    between atoms: O_22  and  C_23
REMARK                            x       y       z     vdW  Elec       q    Type
REMARK                         _______ _______ _______ _____ _____    ______ ____
ROOT
ATOM      1  C   UNL     1       2.899   3.557  19.152  0.00  0.00    +0.000 A 
ATOM      2  C   UNL     1       2.642   2.232  19.523  0.00  0.00    +0.000 A 
ATOM      3  N   UNL     1       1.836   1.853  20.543  0.00  0.00    +0.000 NA
ATOM      4  C   UNL     1       1.252   2.847  21.230  0.00  0.00    +0.000 A 
ATOM      5  C   UNL     1       1.445   4.192  20.952  0.00  0.00    +0.000 A 
ATOM      6  C   UNL     1       2.265   4.589  19.881  0.00  0.00    +0.000 A 
ENDROOT
BRANCH   6   7
ATOM      7  N   UNL     1       2.270   5.919  19.432  0.00  0.00    +0.000 N 
ATOM      8  C   UNL     1       2.152   6.122  17.985  0.00  0.00    +0.000 C 
ATOM      9  C   UNL     1       2.945   7.366  17.624  0.00  0.00    +0.000 C 
ATOM     10  C   UNL     1       2.440   8.594  18.390  0.00  0.00    +0.000 C 
ATOM     11  C   UNL     1       2.379   8.292  19.903  0.00  0.00    +0.000 C 
ATOM     12  C   UNL     1       1.628   6.984  20.209  0.00  0.00    +0.000 C 
BRANCH  10  13
ATOM     13  O   UNL     1       1.119   8.970  17.967  0.00  0.00    +0.000 OA
BRANCH  13  14
ATOM     14  C   UNL     1       0.682  10.240  18.233  0.00  0.00    +0.000 A 
ATOM     15  C   UNL     1       1.493  11.316  18.606  0.00  0.00    +0.000 A 
ATOM     16  C   UNL     1       0.945  12.592  18.767  0.00  0.00    +0.000 A 
ATOM     17  C   UNL     1      -0.419  12.788  18.584  0.00  0.00    +0.000 A 
ATOM     18  F   UNL     1      -0.935  14.013  18.745  0.00  0.00    +0.000 F 
ATOM     19  C   UNL     1      -1.247  11.734  18.235  0.00  0.00    +0.000 A 
ATOM     20  C   UNL     1      -0.689  10.471  18.052  0.00  0.00    +0.000 A 
ATOM     21  F   UNL     1      -1.499   9.458  17.707  0.00  0.00    +0.000 F 
ENDBRANCH  13  14
ENDBRANCH  10  13
ENDBRANCH   6   7
BRANCH   1  24
ATOM     22  C   UNL     1       5.092   4.094  18.135  0.00  0.00    +0.000 C 
ATOM     23  O   UNL     1       5.762   3.917  19.150  0.00  0.00    +0.000 OA
ATOM     24  N   UNL     1       3.736   3.865  18.053  0.00  0.00    +0.000 N 
ATOM     25  H   UNL     1       3.331   3.761  17.135  0.00  0.00    +0.000 HD
BRANCH  22  31
ATOM     26  C   UNL     1       6.681   5.604  16.808  0.00  0.00    +0.000 A 
ATOM     27  N   UNL     1       7.353   5.924  15.673  0.00  0.00    +0.000 NA
ATOM     28  C   UNL     1       7.157   5.141  14.589  0.00  0.00    +0.000 A 
ATOM     29  C   UNL     1       6.305   4.053  14.578  0.00  0.00    +0.000 A 
ATOM     30  C   UNL     1       5.622   3.746  15.750  0.00  0.00    +0.000 A 
ATOM     31  C   UNL     1       5.797   4.529  16.897  0.00  0.00    +0.000 A 
BRANCH  26  33
ATOM     32  C   UNL     1       7.589   7.609  17.601  0.00  0.00    +0.000 C 
ATOM     33  O   UNL     1       6.862   6.420  17.907  0.00  0.00    +0.000 OA
ENDBRANCH  26  33
ENDBRANCH  22  31
ENDBRANCH   1  24
TORSDOF 6
ENDMDL
MODEL 2
REMARK VINA RESULT:      -8.2      0.901      1.199
REMARK  Name = 
REMARK  7 active torsions:
REMARK  status: ('A' for Active; 'I' for Inactive)
REMARK    1  A    between atoms: C_1  and  O_2
REMARK    2  A    between atoms: O_2  and  C_3
REMARK    3  A    between atoms: C_8  and  C_9
REMARK    4  A    between atoms: N_11  and  C_12
REMARK    5  A    between atoms: C_17  and  N_18
REMARK    6  A    between atoms: C_21  and  O_22
REMARK    7  A    between atoms: O_22  and  C_23
REMARK                            x       y       z     vdW  Elec       q    Type
REMARK                         _______ _______ _______ _____ _____    ______ ____
ROOT
ATOM      1  C   UNL     1       2.922   3.585  19.150  0.00  0.00    +0.000 A 
ATOM      2  C   UNL     1       2.662   2.263  19.527  0.00  0.00    +0.000 A 
ATOM      3  N   UNL     1       1.859   1.890  20.551  0.00  0.00    +0.000 NA
ATOM      4  C   UNL     1       1.280   2.888  21.236  0.00  0.00    +0.000 A 
ATOM      5  C   UNL     1       1.476   4.232  20.953  0.00  0.00    +0.000 A 
ATOM      6  C   UNL     1       2.294   4.622  19.878  0.00  0.00    +0.000 A 
ENDROOT
BRANCH   6   7
ATOM      7  N   UNL     1       2.302   5.950  19.424  0.00  0.00    +0.000 N 
ATOM      8  C   UNL     1       2.258   6.146  17.971  0.00  0.00    +0.000 C 
ATOM      9  C   UNL     1       3.050   7.401  17.648  0.00  0.00    +0.000 C 
ATOM     10  C   UNL     1       2.484   8.624  18.380  0.00  0.00    +0.000 C 
ATOM     11  C   UNL     1       2.347   8.326  19.889  0.00  0.00    +0.000 C 
ATOM     12  C   UNL     1       1.602   7.007  20.160  0.00  0.00    +0.000 C 
BRANCH  10  13
ATOM     13  O   UNL     1       1.183   8.977  17.886  0.00  0.00    +0.000 OA
BRANCH  13  14
ATOM     14  C   UNL     1       0.557  10.077  18.410  0.00  0.00    +0.000 A 
ATOM     15  C   UNL     1      -0.704  10.081  19.015  0.00  0.00    +0.000 A 
ATOM     16  C   UNL     1      -1.204  11.250  19.595  0.00  0.00    +0.000 A 
ATOM     17  C   UNL     1      -0.460  12.423  19.543  0.00  0.00    +0.000 A 
ATOM     18  F   UNL     1      -0.952  13.539  20.097  0.00  0.00    +0.000 F 
ATOM     19  C   UNL     1       0.781  12.449  18.930  0.00  0.00    +0.000 A 
ATOM     20  C   UNL     1       1.285  11.275  18.378  0.00  0.00    +0.000 A 
ATOM     21  F   UNL     1       2.492  11.309  17.793  0.00  0.00    +0.000 F 
ENDBRANCH  13  14
ENDBRANCH  10  13
ENDBRANCH   6   7
BRANCH   1  24
ATOM     22  C   UNL     1       5.116   4.092  18.120  0.00  0.00    +0.000 C 
ATOM     23  O   UNL     1       5.790   3.897  19.129  0.00  0.00    +0.000 OA
ATOM     24  N   UNL     1       3.756   3.886  18.046  0.00  0.00    +0.000 N 
ATOM     25  H   UNL     1       3.342   3.795  17.131  0.00  0.00    +0.000 HD
BRANCH  22  31
ATOM     26  C   UNL     1       6.746   5.561  16.798  0.00  0.00    +0.000 A 
ATOM     27  N   UNL     1       7.414   5.877  15.659  0.00  0.00    +0.000 NA
ATOM     28  C   UNL     1       7.167   5.126  14.562  0.00  0.00    +0.000 A 
ATOM     29  C   UNL     1       6.269   4.076  14.543  0.00  0.00    +0.000 A 
ATOM     30  C   UNL     1       5.592   3.773  15.719  0.00  0.00    +0.000 A 
ATOM     31  C   UNL     1       5.819   4.523  16.880  0.00  0.00    +0.000 A 
BRANCH  26  33
ATOM     32  C   UNL     1       7.605   7.588  17.592  0.00  0.00    +0.000 C 
ATOM     33  O   UNL     1       6.980   6.345  17.911  0.00  0.00    +0.000 OA
ENDBRANCH  26  33
ENDBRANCH  22  31
ENDBRANCH   1  24
TORSDOF 6
ENDMDL
MODEL 3
REMARK VINA RESULT:      -8.1      1.071      1.121
REMARK  Name = 
REMARK  7 active torsions:
REMARK  status: ('A' for Active; 'I' for Inactive)
REMARK    1  A    between atoms: C_1  and  O_2
REMARK    2  A    between atoms: O_2  and  C_3
REMARK    3  A    between atoms: C_8  and  C_9
REMARK    4  A    between atoms: N_11  and  C_12
REMARK    5  A    between atoms: C_17  and  N_18
REMARK    6  A    between atoms: C_21  and  O_22
REMARK    7  A    between atoms: O_22  and  C_23
REMARK                            x       y       z     vdW  Elec       q    Type
REMARK                         _______ _______ _______ _____ _____    ______ ____
ROOT
ATOM      1  C   UNL     1       3.299   3.941  19.631  0.00  0.00    +0.000 A 
ATOM      2  C   UNL     1       3.189   2.613  20.057  0.00  0.00    +0.000 A 
ATOM      3  N   UNL     1       2.300   2.161  20.973  0.00  0.00    +0.000 NA
ATOM      4  C   UNL     1       1.473   3.082  21.492  0.00  0.00    +0.000 A 
ATOM      5  C   UNL     1       1.503   4.426  21.146  0.00  0.00    +0.000 A 
ATOM      6  C   UNL     1       2.412   4.894  20.181  0.00  0.00    +0.000 A 
ENDROOT
BRANCH   6   7
ATOM      7  N   UNL     1       2.288   6.183  19.641  0.00  0.00    +0.000 N 
ATOM      8  C   UNL     1       2.160   6.273  18.184  0.00  0.00    +0.000 C 
ATOM      9  C   UNL     1       2.828   7.562  17.737  0.00  0.00    +0.000 C 
ATOM     10  C   UNL     1       2.197   8.784  18.416  0.00  0.00    +0.000 C 
ATOM     11  C   UNL     1       2.157   8.583  19.946  0.00  0.00    +0.000 C 
ATOM     12  C   UNL     1       1.538   7.230  20.343  0.00  0.00    +0.000 C 
BRANCH  10  13
ATOM     13  O   UNL     1       0.849   8.996  17.969  0.00  0.00    +0.000 OA
BRANCH  13  14
ATOM     14  C   UNL     1       0.163  10.082  18.444  0.00  0.00    +0.000 A 
ATOM     15  C   UNL     1       0.659  11.020  19.355  0.00  0.00    +0.000 A 
ATOM     16  C   UNL     1      -0.103  12.139  19.702  0.00  0.00    +0.000 A 
ATOM     17  C   UNL     1      -1.372  12.308  19.162  0.00  0.00    +0.000 A 
ATOM     18  F   UNL     1      -2.096  13.381  19.504  0.00  0.00    +0.000 F 
ATOM     19  C   UNL     1      -1.895  11.382  18.274  0.00  0.00    +0.000 A 
ATOM     20  C   UNL     1      -1.119  10.283  17.914  0.00  0.00    +0.000 A 
ATOM     21  F   UNL     1      -1.631   9.396  17.046  0.00  0.00    +0.000 F 
ENDBRANCH  13  14
ENDBRANCH  10  13
ENDBRANCH   6   7
BRANCH   1  24
ATOM     22  C   UNL     1       4.254   3.865  17.348  0.00  0.00    +0.000 C 
ATOM     23  O   UNL     1       3.364   3.182  16.848  0.00  0.00    +0.000 OA
ATOM     24  N   UNL     1       4.242   4.323  18.646  0.00  0.00    +0.000 N 
ATOM     25  H   UNL     1       4.850   5.094  18.880  0.00  0.00    +0.000 HD
BRANCH  22  31
ATOM     26  C   UNL     1       6.704   4.478  16.913  0.00  0.00    +0.000 A 
ATOM     27  N   UNL     1       7.727   4.787  16.074  0.00  0.00    +0.000 NA
ATOM     28  C   UNL     1       7.446   4.880  14.755  0.00  0.00    +0.000 A 
ATOM     29  C   UNL     1       6.182   4.693  14.229  0.00  0.00    +0.000 A 
ATOM     30  C   UNL     1       5.148   4.384  15.106  0.00  0.00    +0.000 A 
ATOM     31  C   UNL     1       5.394   4.275  16.480  0.00  0.00    +0.000 A 
BRANCH  26  33
ATOM     32  C   UNL     1       7.650   5.575  18.751  0.00  0.00    +0.000 C 
ATOM     33  O   UNL     1       6.987   4.409  18.263  0.00  0.00    +0.000 OA
ENDBRANCH  26  33
ENDBRANCH  22  31
ENDBRANCH   1  24
TORSDOF 6
ENDMDL
MODEL 4
REMARK VINA RESULT:      -8.1      4.299      9.772
REMARK  Name = 
REMARK  7 active torsions:
REMARK  status: ('A' for Active; 'I' for Inactive)
REMARK    1  A    between atoms: C_1  and  O_2
REMARK    2  A    between atoms: O_2  and  C_3
REMARK    3  A    between atoms: C_8  and  C_9
REMARK    4  A    between atoms: N_11  and  C_12
REMARK    5  A    between atoms: C_17  and  N_18
REMARK    6  A    between atoms: C_21  and  O_22
REMARK    7  A    between atoms: O_22  and  C_23
REMARK                            x       y       z     vdW  Elec       q    Type
REMARK                         _______ _______ _______ _____ _____    ______ ____
ROOT
ATOM      1  C   UNL     1       0.040  13.986  19.293  0.00  0.00    +0.000 A 
ATOM      2  C   UNL     1       0.260  15.367  19.230  0.00  0.00    +0.000 A 
ATOM      3  N   UNL     1       1.430  15.982  19.525  0.00  0.00    +0.000 NA
ATOM      4  C   UNL     1       2.437  15.179  19.900  0.00  0.00    +0.000 A 
ATOM      5  C   UNL     1       2.324  13.799  20.005  0.00  0.00    +0.000 A 
ATOM      6  C   UNL     1       1.117  13.157  19.680  0.00  0.00    +0.000 A 
ENDROOT
BRANCH   6   7
ATOM      7  N   UNL     1       1.060  11.762  19.537  0.00  0.00    +0.000 N 
ATOM      8  C   UNL     1       1.939  11.171  18.523  0.00  0.00    +0.000 C 
ATOM      9  C   UNL     1       1.235   9.954  17.948  0.00  0.00    +0.000 C 
ATOM     10  C   UNL     1       0.902   8.933  19.042  0.00  0.00    +0.000 C 
ATOM     11  C   UNL     1       0.148   9.619  20.202  0.00  0.00    +0.000 C 
ATOM     12  C   UNL     1       0.865  10.887  20.697  0.00  0.00    +0.000 C 
BRANCH  10  13
ATOM     13  O   UNL     1       2.091   8.339  19.586  0.00  0.00    +0.000 OA
BRANCH  13  14
ATOM     14  C   UNL     1       2.538   7.158  19.054  0.00  0.00    +0.000 A 
ATOM     15  C   UNL     1       3.347   7.035  17.920  0.00  0.00    +0.000 A 
ATOM     16  C   UNL     1       3.815   5.780  17.520  0.00  0.00    +0.000 A 
ATOM     17  C   UNL     1       3.452   4.645  18.234  0.00  0.00    +0.000 A 
ATOM     18  F   UNL     1       3.902   3.447  17.840  0.00  0.00    +0.000 F 
ATOM     19  C   UNL     1       2.635   4.739  19.348  0.00  0.00    +0.000 A 
ATOM     20  C   UNL     1       2.193   5.995  19.756  0.00  0.00    +0.000 A 
ATOM     21  F   UNL     1       1.408   6.076  20.841  0.00  0.00    +0.000 F 
ENDBRANCH  13  14
ENDBRANCH  10  13
ENDBRANCH   6   7
BRANCH   1  24
ATOM     22  C   UNL     1      -2.139  12.946  19.838  0.00  0.00    +0.000 C 
ATOM     23  O   UNL     1      -2.057  13.083  21.056  0.00  0.00    +0.000 OA
ATOM     24  N   UNL     1      -1.210  13.423  18.941  0.00  0.00    +0.000 N 
ATOM     25  H   UNL     1      -1.491  13.519  17.976  0.00  0.00    +0.000 HD
BRANCH  22  31
ATOM     26  C   UNL     1      -3.349  11.328  18.262  0.00  0.00    +0.000 A 
ATOM     27  N   UNL     1      -4.469  10.688  17.838  0.00  0.00    +0.000 NA
ATOM     28  C   UNL     1      -5.631  10.981  18.464  0.00  0.00    +0.000 A 
ATOM     29  C   UNL     1      -5.732  11.898  19.492  0.00  0.00    +0.000 A 
ATOM     30  C   UNL     1      -4.574  12.546  19.908  0.00  0.00    +0.000 A 
ATOM     31  C   UNL     1      -3.349  12.271  19.288  0.00  0.00    +0.000 A 
BRANCH  26  33
ATOM     32  C   UNL     1      -2.272   9.920  16.734  0.00  0.00    +0.000 C 
ATOM     33  O   UNL     1      -2.168  11.047  17.604  0.00  0.00    +0.000 OA
ENDBRANCH  26  33
ENDBRANCH  22  31
ENDBRANCH   1  24
TORSDOF 6
ENDMDL
MODEL 5
REMARK VINA RESULT:      -8.1      4.396      9.864
REMARK  Name = 
REMARK  7 active torsions:
REMARK  status: ('A' for Active; 'I' for Inactive)
REMARK    1  A    between atoms: C_1  and  O_2
REMARK    2  A    between atoms: O_2  and  C_3
REMARK    3  A    between atoms: C_8  and  C_9
REMARK    4  A    between atoms: N_11  and  C_12
REMARK    5  A    between atoms: C_17  and  N_18
REMARK    6  A    between atoms: C_21  and  O_22
REMARK    7  A    between atoms: O_22  and  C_23
REMARK                            x       y       z     vdW  Elec       q    Type
REMARK                         _______ _______ _______ _____ _____    ______ ____
ROOT
ATOM      1  C   UNL     1      -0.124  14.030  19.366  0.00  0.00    +0.000 A 
ATOM      2  C   UNL     1       0.099  15.407  19.248  0.00  0.00    +0.000 A 
ATOM      3  N   UNL     1       1.259  16.035  19.551  0.00  0.00    +0.000 NA
ATOM      4  C   UNL     1       2.254  15.251  19.993  0.00  0.00    +0.000 A 
ATOM      5  C   UNL     1       2.136  13.877  20.156  0.00  0.00    +0.000 A 
ATOM      6  C   UNL     1       0.939  13.220  19.824  0.00  0.00    +0.000 A 
ENDROOT
BRANCH   6   7
ATOM      7  N   UNL     1       0.886  11.819  19.741  0.00  0.00    +0.000 N 
ATOM      8  C   UNL     1       1.634  11.199  18.644  0.00  0.00    +0.000 C 
ATOM      9  C   UNL     1       0.880   9.953  18.213  0.00  0.00    +0.000 C 
ATOM     10  C   UNL     1       0.709   8.972  19.378  0.00  0.00    +0.000 C 
ATOM     11  C   UNL     1       0.103   9.695  20.600  0.00  0.00    +0.000 C 
ATOM     12  C   UNL     1       0.859  10.989  20.950  0.00  0.00    +0.000 C 
BRANCH  10  13
ATOM     13  O   UNL     1       1.968   8.412  19.784  0.00  0.00    +0.000 OA
BRANCH  13  14
ATOM     14  C   UNL     1       2.175   7.069  19.616  0.00  0.00    +0.000 A 
ATOM     15  C   UNL     1       1.809   6.072  20.526  0.00  0.00    +0.000 A 
ATOM     16  C   UNL     1       1.992   4.723  20.207  0.00  0.00    +0.000 A 
ATOM     17  C   UNL     1       2.567   4.370  18.992  0.00  0.00    +0.000 A 
ATOM     18  F   UNL     1       2.742   3.076  18.698  0.00  0.00    +0.000 F 
ATOM     19  C   UNL     1       2.958   5.340  18.083  0.00  0.00    +0.000 A 
ATOM     20  C   UNL     1       2.749   6.680  18.397  0.00  0.00    +0.000 A 
ATOM     21  F   UNL     1       3.123   7.611  17.506  0.00  0.00    +0.000 F 
ENDBRANCH  13  14
ENDBRANCH  10  13
ENDBRANCH   6   7
BRANCH   1  24
ATOM     22  C   UNL     1      -2.307  12.986  19.889  0.00  0.00    +0.000 C 
ATOM     23  O   UNL     1      -2.251  13.149  21.106  0.00  0.00    +0.000 OA
ATOM     24  N   UNL     1      -1.363  13.451  19.001  0.00  0.00    +0.000 N 
ATOM     25  H   UNL     1      -1.626  13.524  18.030  0.00  0.00    +0.000 HD
BRANCH  22  31
ATOM     26  C   UNL     1      -3.492  11.428  18.236  0.00  0.00    +0.000 A 
ATOM     27  N   UNL     1      -4.593  10.763  17.801  0.00  0.00    +0.000 NA
ATOM     28  C   UNL     1      -5.744  10.947  18.486  0.00  0.00    +0.000 A 
ATOM     29  C   UNL     1      -5.853  11.778  19.584  0.00  0.00    +0.000 A 
ATOM     30  C   UNL     1      -4.714  12.453  20.009  0.00  0.00    +0.000 A 
ATOM     31  C   UNL     1      -3.501  12.291  19.330  0.00  0.00    +0.000 A 
BRANCH  26  33
ATOM     32  C   UNL     1      -2.551  10.817  16.181  0.00  0.00    +0.000 C 
ATOM     33  O   UNL     1      -2.323  11.260  17.519  0.00  0.00    +0.000 OA
ENDBRANCH  26  33
ENDBRANCH  22  31
ENDBRANCH   1  24
TORSDOF 6
ENDMDL
MODEL 6
REMARK VINA RESULT:      -8.0      1.256      2.001
REMARK  Name = 
REMARK  7 active torsions:
REMARK  status: ('A' for Active; 'I' for Inactive)
REMARK    1  A    between atoms: C_1  and  O_2
REMARK    2  A    between atoms: O_2  and  C_3
REMARK    3  A    between atoms: C_8  and  C_9
REMARK    4  A    between atoms: N_11  and  C_12
REMARK    5  A    between atoms: C_17  and  N_18
REMARK    6  A    between atoms: C_21  and  O_22
REMARK    7  A    between atoms: O_22  and  C_23
REMARK                            x       y       z     vdW  Elec       q    Type
REMARK                         _______ _______ _______ _____ _____    ______ ____
ROOT
ATOM      1  C   UNL     1       2.976   3.911  18.519  0.00  0.00    +0.000 A 
ATOM      2  C   UNL     1       2.887   2.576  18.111  0.00  0.00    +0.000 A 
ATOM      3  N   UNL     1       1.869   1.736  18.416  0.00  0.00    +0.000 NA
ATOM      4  C   UNL     1       0.885   2.255  19.166  0.00  0.00    +0.000 A 
ATOM      5  C   UNL     1       0.879   3.562  19.632  0.00  0.00    +0.000 A 
ATOM      6  C   UNL     1       1.925   4.442  19.300  0.00  0.00    +0.000 A 
ENDROOT
BRANCH   6   7
ATOM      7  N   UNL     1       1.812   5.819  19.545  0.00  0.00    +0.000 N 
ATOM      8  C   UNL     1       1.715   6.688  18.369  0.00  0.00    +0.000 C 
ATOM      9  C   UNL     1       2.392   8.005  18.706  0.00  0.00    +0.000 C 
ATOM     10  C   UNL     1       1.747   8.669  19.928  0.00  0.00    +0.000 C 
ATOM     11  C   UNL     1       1.673   7.669  21.102  0.00  0.00    +0.000 C 
ATOM     12  C   UNL     1       1.047   6.325  20.689  0.00  0.00    +0.000 C 
BRANCH  10  13
ATOM     13  O   UNL     1       0.408   9.106  19.644  0.00  0.00    +0.000 OA
BRANCH  13  14
ATOM     14  C   UNL     1       0.197  10.427  19.349  0.00  0.00    +0.000 A 
ATOM     15  C   UNL     1       1.073  11.475  19.650  0.00  0.00    +0.000 A 
ATOM     16  C   UNL     1       0.791  12.775  19.221  0.00  0.00    +0.000 A 
ATOM     17  C   UNL     1      -0.380  13.035  18.519  0.00  0.00    +0.000 A 
ATOM     18  F   UNL     1      -0.643  14.285  18.117  0.00  0.00    +0.000 F 
ATOM     19  C   UNL     1      -1.274  12.018  18.228  0.00  0.00    +0.000 A 
ATOM     20  C   UNL     1      -0.974  10.720  18.636  0.00  0.00    +0.000 A 
ATOM     21  F   UNL     1      -1.842   9.741  18.342  0.00  0.00    +0.000 F 
ENDBRANCH  13  14
ENDBRANCH  10  13
ENDBRANCH   6   7
BRANCH   1  24
ATOM     22  C   UNL     1       5.328   4.669  18.680  0.00  0.00    +0.000 C 
ATOM     23  O   UNL     1       5.699   3.803  19.469  0.00  0.00    +0.000 OA
ATOM     24  N   UNL     1       4.066   4.728  18.132  0.00  0.00    +0.000 N 
ATOM     25  H   UNL     1       3.939   5.283  17.299  0.00  0.00    +0.000 HD
BRANCH  22  31
ATOM     26  C   UNL     1       6.241   6.440  17.069  0.00  0.00    +0.000 A 
ATOM     27  N   UNL     1       7.136   7.407  16.740  0.00  0.00    +0.000 NA
ATOM     28  C   UNL     1       8.139   7.652  17.613  0.00  0.00    +0.000 A 
ATOM     29  C   UNL     1       8.302   6.963  18.800  0.00  0.00    +0.000 A 
ATOM     30  C   UNL     1       7.378   5.974  19.114  0.00  0.00    +0.000 A 
ATOM     31  C   UNL     1       6.322   5.689  18.240  0.00  0.00    +0.000 A 
BRANCH  26  33
ATOM     32  C   UNL     1       5.696   5.489  15.001  0.00  0.00    +0.000 C 
ATOM     33  O   UNL     1       5.232   6.174  16.165  0.00  0.00    +0.000 OA
ENDBRANCH  26  33
ENDBRANCH  22  31
ENDBRANCH   1  24
TORSDOF 6
ENDMDL
MODEL 7
REMARK VINA RESULT:      -7.9      2.219      2.798
REMARK  Name = 
REMARK  7 active torsions:
REMARK  status: ('A' for Active; 'I' for Inactive)
REMARK    1  A    between atoms: C_1  and  O_2
REMARK    2  A    between atoms: O_2  and  C_3
REMARK    3  A    between atoms: C_8  and  C_9
REMARK    4  A    between atoms: N_11  and  C_12
REMARK    5  A    between atoms: C_17  and  N_18
REMARK    6  A    between atoms: C_21  and  O_22
REMARK    7  A    between atoms: O_22  and  C_23
REMARK                            x       y       z     vdW  Elec       q    Type
REMARK                         _______ _______ _______ _____ _____    ______ ____
ROOT
ATOM      1  C   UNL     1       2.971   3.907  18.537  0.00  0.00    +0.000 A 
ATOM      2  C   UNL     1       2.871   2.584  18.092  0.00  0.00    +0.000 A 
ATOM      3  N   UNL     1       1.855   1.739  18.387  0.00  0.00    +0.000 NA
ATOM      4  C   UNL     1       0.884   2.239  19.166  0.00  0.00    +0.000 A 
ATOM      5  C   UNL     1       0.889   3.533  19.669  0.00  0.00    +0.000 A 
ATOM      6  C   UNL     1       1.933   4.418  19.348  0.00  0.00    +0.000 A 
ENDROOT
BRANCH   6   7
ATOM      7  N   UNL     1       1.827   5.788  19.634  0.00  0.00    +0.000 N 
ATOM      8  C   UNL     1       1.592   6.680  18.494  0.00  0.00    +0.000 C 
ATOM      9  C   UNL     1       2.283   8.000  18.786  0.00  0.00    +0.000 C 
ATOM     10  C   UNL     1       1.765   8.628  20.085  0.00  0.00    +0.000 C 
ATOM     11  C   UNL     1       1.833   7.604  21.238  0.00  0.00    +0.000 C 
ATOM     12  C   UNL     1       1.184   6.259  20.865  0.00  0.00    +0.000 C 
BRANCH  10  13
ATOM     13  O   UNL     1       0.398   9.049  19.956  0.00  0.00    +0.000 OA
BRANCH  13  14
ATOM     14  C   UNL     1      -0.110   9.922  20.881  0.00  0.00    +0.000 A 
ATOM     15  C   UNL     1      -0.576   9.575  22.153  0.00  0.00    +0.000 A 
ATOM     16  C   UNL     1      -0.992  10.566  23.047  0.00  0.00    +0.000 A 
ATOM     17  C   UNL     1      -0.972  11.901  22.661  0.00  0.00    +0.000 A 
ATOM     18  F   UNL     1      -1.377  12.842  23.523  0.00  0.00    +0.000 F 
ATOM     19  C   UNL     1      -0.536  12.268  21.399  0.00  0.00    +0.000 A 
ATOM     20  C   UNL     1      -0.099  11.277  20.523  0.00  0.00    +0.000 A 
ATOM     21  F   UNL     1       0.330  11.644  19.305  0.00  0.00    +0.000 F 
ENDBRANCH  13  14
ENDBRANCH  10  13
ENDBRANCH   6   7
BRANCH   1  24
ATOM     22  C   UNL     1       5.341   4.615  18.642  0.00  0.00    +0.000 C 
ATOM     23  O   UNL     1       5.730   3.691  19.353  0.00  0.00    +0.000 OA
ATOM     24  N   UNL     1       4.058   4.732  18.158  0.00  0.00    +0.000 N 
ATOM     25  H   UNL     1       3.905   5.345  17.371  0.00  0.00    +0.000 HD
BRANCH  22  31
ATOM     26  C   UNL     1       6.276   6.396  17.055  0.00  0.00    +0.000 A 
ATOM     27  N   UNL     1       7.167   7.375  16.751  0.00  0.00    +0.000 NA
ATOM     28  C   UNL     1       8.143   7.632  17.650  0.00  0.00    +0.000 A 
ATOM     29  C   UNL     1       8.282   6.947  18.842  0.00  0.00    +0.000 A 
ATOM     30  C   UNL     1       7.362   5.946  19.131  0.00  0.00    +0.000 A 
ATOM     31  C   UNL     1       6.334   5.647  18.230  0.00  0.00    +0.000 A 
BRANCH  26  33
ATOM     32  C   UNL     1       5.771   5.319  15.040  0.00  0.00    +0.000 C 
ATOM     33  O   UNL     1       5.296   6.116  16.124  0.00  0.00    +0.000 OA
ENDBRANCH  26  33
ENDBRANCH  22  31
ENDBRANCH   1  24
TORSDOF 6
ENDMDL
MODEL 8
REMARK VINA RESULT:      -7.8      4.042      8.715
REMARK  Name = 
REMARK  7 active torsions:
REMARK  status: ('A' for Active; 'I' for Inactive)
REMARK    1  A    between atoms: C_1  and  O_2
REMARK    2  A    between atoms: O_2  and  C_3
REMARK    3  A    between atoms: C_8  and  C_9
REMARK    4  A    between atoms: N_11  and  C_12
REMARK    5  A    between atoms: C_17  and  N_18
REMARK    6  A    between atoms: C_21  and  O_22
REMARK    7  A    between atoms: O_22  and  C_23
REMARK                            x       y       z     vdW  Elec       q    Type
REMARK                         _______ _______ _______ _____ _____    ______ ____
ROOT
ATOM      1  C   UNL     1      -0.448   9.649  20.998  0.00  0.00    +0.000 A 
ATOM      2  C   UNL     1      -0.885  10.339  22.135  0.00  0.00    +0.000 A 
ATOM      3  N   UNL     1      -0.252  10.341  23.332  0.00  0.00    +0.000 NA
ATOM      4  C   UNL     1       0.877   9.619  23.401  0.00  0.00    +0.000 A 
ATOM      5  C   UNL     1       1.392   8.892  22.338  0.00  0.00    +0.000 A 
ATOM      6  C   UNL     1       0.749   8.904  21.088  0.00  0.00    +0.000 A 
ENDROOT
BRANCH   6   7
ATOM      7  N   UNL     1       1.383   8.388  19.947  0.00  0.00    +0.000 N 
ATOM      8  C   UNL     1       1.989   9.364  19.037  0.00  0.00    +0.000 C 
ATOM      9  C   UNL     1       1.874   8.817  17.624  0.00  0.00    +0.000 C 
ATOM     10  C   UNL     1       2.561   7.453  17.495  0.00  0.00    +0.000 C 
ATOM     11  C   UNL     1       2.054   6.494  18.595  0.00  0.00    +0.000 C 
ATOM     12  C   UNL     1       2.124   7.123  19.998  0.00  0.00    +0.000 C 
BRANCH  10  13
ATOM     13  O   UNL     1       3.985   7.565  17.638  0.00  0.00    +0.000 OA
BRANCH  13  14
ATOM     14  C   UNL     1       4.781   6.613  17.057  0.00  0.00    +0.000 A 
ATOM     15  C   UNL     1       5.031   6.492  15.687  0.00  0.00    +0.000 A 
ATOM     16  C   UNL     1       5.933   5.532  15.216  0.00  0.00    +0.000 A 
ATOM     17  C   UNL     1       6.561   4.674  16.111  0.00  0.00    +0.000 A 
ATOM     18  F   UNL     1       7.418   3.755  15.650  0.00  0.00    +0.000 F 
ATOM     19  C   UNL     1       6.312   4.760  17.471  0.00  0.00    +0.000 A 
ATOM     20  C   UNL     1       5.433   5.735  17.934  0.00  0.00    +0.000 A 
ATOM     21  F   UNL     1       5.205   5.816  19.254  0.00  0.00    +0.000 F 
ENDBRANCH  13  14
ENDBRANCH  10  13
ENDBRANCH   6   7
BRANCH   1  24
ATOM     22  C   UNL     1      -1.456  10.890  19.106  0.00  0.00    +0.000 C 
ATOM     23  O   UNL     1      -1.018  11.995  19.416  0.00  0.00    +0.000 OA
ATOM     24  N   UNL     1      -1.158   9.723  19.775  0.00  0.00    +0.000 N 
ATOM     25  H   UNL     1      -1.321   8.851  19.295  0.00  0.00    +0.000 HD
BRANCH  22  31
ATOM     26  C   UNL     1      -3.533  11.457  17.717  0.00  0.00    +0.000 A 
ATOM     27  N   UNL     1      -4.255  11.392  16.569  0.00  0.00    +0.000 NA
ATOM     28  C   UNL     1      -3.750  10.656  15.554  0.00  0.00    +0.000 A 
ATOM     29  C   UNL     1      -2.556   9.965  15.634  0.00  0.00    +0.000 A 
ATOM     30  C   UNL     1      -1.835  10.041  16.820  0.00  0.00    +0.000 A 
ATOM     31  C   UNL     1      -2.320  10.793  17.896  0.00  0.00    +0.000 A 
BRANCH  26  33
ATOM     32  C   UNL     1      -5.425  11.859  19.034  0.00  0.00    +0.000 C 
ATOM     33  O   UNL     1      -4.063  12.187  18.762  0.00  0.00    +0.000 OA
ENDBRANCH  26  33
ENDBRANCH  22  31
ENDBRANCH   1  24
TORSDOF 6
ENDMDL
MODEL 9
REMARK VINA RESULT:      -7.7      3.500      7.371
REMARK  Name = 
REMARK  7 active torsions:
REMARK  status: ('A' for Active; 'I' for Inactive)
REMARK    1  A    between atoms: C_1  and  O_2
REMARK    2  A    between atoms: O_2  and  C_3
REMARK    3  A    between atoms: C_8  and  C_9
REMARK    4  A    between atoms: N_11  and  C_12
REMARK    5  A    between atoms: C_17  and  N_18
REMARK    6  A    between atoms: C_21  and  O_22
REMARK    7  A    between atoms: O_22  and  C_23
REMARK                            x       y       z     vdW  Elec       q    Type
REMARK                         _______ _______ _______ _____ _____    ______ ____
ROOT
ATOM      1  C   UNL     1       2.897   4.675  20.497  0.00  0.00    +0.000 A 
ATOM      2  C   UNL     1       2.315   4.043  21.602  0.00  0.00    +0.000 A 
ATOM      3  N   UNL     1       2.537   2.758  21.968  0.00  0.00    +0.000 NA
ATOM      4  C   UNL     1       3.385   2.065  21.194  0.00  0.00    +0.000 A 
ATOM      5  C   UNL     1       4.009   2.592  20.071  0.00  0.00    +0.000 A 
ATOM      6  C   UNL     1       3.796   3.931  19.700  0.00  0.00    +0.000 A 
ENDROOT
BRANCH   6   7
ATOM      7  N   UNL     1       4.604   4.545  18.730  0.00  0.00    +0.000 N 
ATOM      8  C   UNL     1       6.027   4.681  19.053  0.00  0.00    +0.000 C 
ATOM      9  C   UNL     1       6.531   5.959  18.406  0.00  0.00    +0.000 C 
ATOM     10  C   UNL     1       6.317   5.940  16.889  0.00  0.00    +0.000 C 
ATOM     11  C   UNL     1       4.848   5.595  16.561  0.00  0.00    +0.000 C 
ATOM     12  C   UNL     1       4.364   4.334  17.299  0.00  0.00    +0.000 C 
BRANCH  10  13
ATOM     13  O   UNL     1       7.147   4.957  16.252  0.00  0.00    +0.000 OA
BRANCH  13  14
ATOM     14  C   UNL     1       7.164   4.897  14.884  0.00  0.00    +0.000 A 
ATOM     15  C   UNL     1       7.874   5.760  14.043  0.00  0.00    +0.000 A 
ATOM     16  C   UNL     1       7.886   5.548  12.661  0.00  0.00    +0.000 A 
ATOM     17  C   UNL     1       7.165   4.493  12.116  0.00  0.00    +0.000 A 
ATOM     18  F   UNL     1       7.179   4.301  10.791  0.00  0.00    +0.000 F 
ATOM     19  C   UNL     1       6.436   3.638  12.926  0.00  0.00    +0.000 A 
ATOM     20  C   UNL     1       6.450   3.840  14.303  0.00  0.00    +0.000 A 
ATOM     21  F   UNL     1       5.747   3.000  15.080  0.00  0.00    +0.000 F 
ENDBRANCH  13  14
ENDBRANCH  10  13
ENDBRANCH   6   7
BRANCH   1  24
ATOM     22  C   UNL     1       1.996   6.481  19.063  0.00  0.00    +0.000 C 
ATOM     23  O   UNL     1       1.458   5.748  18.238  0.00  0.00    +0.000 OA
ATOM     24  N   UNL     1       2.630   6.033  20.200  0.00  0.00    +0.000 N 
ATOM     25  H   UNL     1       2.786   6.696  20.946  0.00  0.00    +0.000 HD
BRANCH  22  31
ATOM     26  C   UNL     1       1.342   8.863  19.745  0.00  0.00    +0.000 A 
ATOM     27  N   UNL     1       1.345  10.206  19.544  0.00  0.00    +0.000 NA
ATOM     28  C   UNL     1       1.946  10.668  18.425  0.00  0.00    +0.000 A 
ATOM     29  C   UNL     1       2.538   9.848  17.483  0.00  0.00    +0.000 A 
ATOM     30  C   UNL     1       2.520   8.476  17.707  0.00  0.00    +0.000 A 
ATOM     31  C   UNL     1       1.910   7.954  18.853  0.00  0.00    +0.000 A 
BRANCH  26  33
ATOM     32  C   UNL     1       1.263   8.905  22.084  0.00  0.00    +0.000 C 
ATOM     33  O   UNL     1       0.704   8.391  20.875  0.00  0.00    +0.000 OA
ENDBRANCH  26  33
ENDBRANCH  22  31
ENDBRANCH   1  24
TORSDOF 6
ENDMDL
