MODEL 1
REMARK VINA RESULT:      -7.8      0.000      0.000
REMARK  Name = 
REMARK  7 active torsions:
REMARK  status: ('A' for Active; 'I' for Inactive)
REMARK    1  A    between atoms: O_1  and  C_2
REMARK    2  A    between atoms: C_5  and  C_6
REMARK    3  A    between atoms: C_6  and  N_7
REMARK    4  A    between atoms: N_7  and  C_8
REMARK    5  A    between atoms: C_8  and  C_9
REMARK    6  A    between atoms: N_12  and  C_13
REMARK    7  A    between atoms: C_13  and  C_14
REMARK                            x       y       z     vdW  Elec       q    Type
REMARK                         _______ _______ _______ _____ _____    ______ ____
ROOT
ATOM      1  C   UNL     1       7.091   7.266  17.866  0.00  0.00    +0.000 C 
ATOM      2  C   UNL     1       6.152   6.721  16.776  0.00  0.00    +0.000 C 
ATOM      3  C   UNL     1       5.004   5.937  17.406  0.00  0.00    +0.000 C 
ATOM      4  N   UNL     1       5.496   4.845  18.261  0.00  0.00    +0.000 NA
ATOM      5  C   UNL     1       6.388   5.369  19.310  0.00  0.00    +0.000 C 
ATOM      6  C   UNL     1       7.600   6.076  18.680  0.00  0.00    +0.000 C 
ENDROOT
BRANCH   1   7
ATOM      7  C   UNL     1       8.190   8.192  17.311  0.00  0.00    +0.000 C 
BRANCH   7   8
ATOM      8  N   UNL     1       8.096   9.378  18.138  0.00  0.00    +0.000 NA
ATOM      9  H   UNL     1       7.907  10.200  17.574  0.00  0.00    +0.000 HD
BRANCH   8  10
ATOM     10  C   UNL     1       9.170   9.701  19.053  0.00  0.00    +0.000 C 
BRANCH  10  14
ATOM     11  C   UNL     1      10.658  13.242  17.130  0.00  0.00    +0.000 A 
ATOM     12  C   UNL     1       9.296  13.126  17.390  0.00  0.00    +0.000 A 
ATOM     13  C   UNL     1       8.825  12.019  18.098  0.00  0.00    +0.000 A 
ATOM     14  C   UNL     1       9.712  11.030  18.552  0.00  0.00    +0.000 A 
ATOM     15  C   UNL     1      11.086  11.180  18.299  0.00  0.00    +0.000 A 
ATOM     16  C   UNL     1      11.557  12.286  17.589  0.00  0.00    +0.000 A 
BRANCH  11  17
ATOM     17  O   UNL     1      11.151  14.278  16.392  0.00  0.00    +0.000 OA
ATOM     18  H   UNL     1      10.562  15.041  16.514  0.00  0.00    +0.000 HD
ENDBRANCH  11  17
ENDBRANCH  10  14
ENDBRANCH   8  10
ENDBRANCH   7   8
ENDBRANCH   1   7
BRANCH   4  19
ATOM     19  C   UNL     1       4.387   4.055  18.837  0.00  0.00    +0.000 C 
BRANCH  19  20
ATOM     20  C   UNL     1       2.989   4.620  18.467  0.00  0.00    +0.000 C 
ATOM     21  C   UNL     1       2.086   3.578  17.789  0.00  0.00    +0.000 C 
ATOM     22  C   UNL     1       1.582   2.526  18.767  0.00  0.00    +0.000 C 
ATOM     23  C   UNL     1       0.796   3.165  19.905  0.00  0.00    +0.000 C 
ATOM     24  C   UNL     1       1.544   4.299  20.599  0.00  0.00    +0.000 C 
ATOM     25  C   UNL     1       2.266   5.264  19.660  0.00  0.00    +0.000 C 
ENDBRANCH  19  20
ENDBRANCH   4  19
TORSDOF 7
ENDMDL
MODEL 2
REMARK VINA RESULT:      -7.7      0.386      1.078
REMARK  Name = 
REMARK  7 active torsions:
REMARK  status: ('A' for Active; 'I' for Inactive)
REMARK    1  A    between atoms: O_1  and  C_2
REMARK    2  A    between atoms: C_5  and  C_6
REMARK    3  A    between atoms: C_6  and  N_7
REMARK    4  A    between atoms: N_7  and  C_8
REMARK    5  A    between atoms: C_8  and  C_9
REMARK    6  A    between atoms: N_12  and  C_13
REMARK    7  A    between atoms: C_13  and  C_14
REMARK                            x       y       z     vdW  Elec       q    Type
REMARK                         _______ _______ _______ _____ _____    ______ ____
ROOT
ATOM      1  C   UNL     1       7.051   7.162  17.879  0.00  0.00    +0.000 C 
ATOM      2  C   UNL     1       6.141   6.688  16.734  0.00  0.00    +0.000 C 
ATOM      3  C   UNL     1       4.944   5.919  17.290  0.00  0.00    +0.000 C 
ATOM      4  N   UNL     1       5.367   4.783  18.122  0.00  0.00    +0.000 NA
ATOM      5  C   UNL     1       6.232   5.239  19.224  0.00  0.00    +0.000 C 
ATOM      6  C   UNL     1       7.490   5.928  18.668  0.00  0.00    +0.000 C 
ENDROOT
BRANCH   1   7
ATOM      7  C   UNL     1       8.201   8.071  17.402  0.00  0.00    +0.000 C 
BRANCH   7   8
ATOM      8  N   UNL     1       7.985   9.311  18.118  0.00  0.00    +0.000 NA
ATOM      9  H   UNL     1       7.655  10.039  17.492  0.00  0.00    +0.000 HD
BRANCH   8  10
ATOM     10  C   UNL     1       9.047   9.866  18.929  0.00  0.00    +0.000 C 
BRANCH  10  14
ATOM     11  C   UNL     1      10.426  13.587  17.287  0.00  0.00    +0.000 A 
ATOM     12  C   UNL     1      11.328  12.543  17.468  0.00  0.00    +0.000 A 
ATOM     13  C   UNL     1      10.863  11.304  17.914  0.00  0.00    +0.000 A 
ATOM     14  C   UNL     1       9.498  11.104  18.173  0.00  0.00    +0.000 A 
ATOM     15  C   UNL     1       8.602  12.166  17.959  0.00  0.00    +0.000 A 
ATOM     16  C   UNL     1       9.068  13.405  17.516  0.00  0.00    +0.000 A 
BRANCH  11  17
ATOM     17  O   UNL     1      10.848  14.828  16.910  0.00  0.00    +0.000 OA
ATOM     18  H   UNL     1      10.069  15.407  16.859  0.00  0.00    +0.000 HD
ENDBRANCH  11  17
ENDBRANCH  10  14
ENDBRANCH   8  10
ENDBRANCH   7   8
ENDBRANCH   1   7
BRANCH   4  19
ATOM     19  C   UNL     1       4.212   4.009  18.625  0.00  0.00    +0.000 C 
BRANCH  19  20
ATOM     20  C   UNL     1       2.901   4.841  18.666  0.00  0.00    +0.000 C 
ATOM     21  C   UNL     1       1.725   4.133  17.977  0.00  0.00    +0.000 C 
ATOM     22  C   UNL     1       1.198   2.960  18.793  0.00  0.00    +0.000 C 
ATOM     23  C   UNL     1       0.736   3.414  20.172  0.00  0.00    +0.000 C 
ATOM     24  C   UNL     1       1.782   4.229  20.926  0.00  0.00    +0.000 C 
ATOM     25  C   UNL     1       2.510   5.277  20.086  0.00  0.00    +0.000 C 
ENDBRANCH  19  20
ENDBRANCH   4  19
TORSDOF 7
ENDMDL
MODEL 3
REMARK VINA RESULT:      -7.5      0.894      1.130
REMARK  Name = 
REMARK  7 active torsions:
REMARK  status: ('A' for Active; 'I' for Inactive)
REMARK    1  A    between atoms: O_1  and  C_2
REMARK    2  A    between atoms: C_5  and  C_6
REMARK    3  A    between atoms: C_6  and  N_7
REMARK    4  A    between atoms: N_7  and  C_8
REMARK    5  A    between atoms: C_8  and  C_9
REMARK    6  A    between atoms: N_12  and  C_13
REMARK    7  A    between atoms: C_13  and  C_14
REMARK                            x       y       z     vdW  Elec       q    Type
REMARK                         _______ _______ _______ _____ _____    ______ ____
ROOT
ATOM      1  C   UNL     1       7.203   7.352  18.029  0.00  0.00    +0.000 C 
ATOM      2  C   UNL     1       6.085   6.977  17.041  0.00  0.00    +0.000 C 
ATOM      3  C   UNL     1       4.992   6.182  17.750  0.00  0.00    +0.000 C 
ATOM      4  N   UNL     1       5.530   4.980  18.404  0.00  0.00    +0.000 NA
ATOM      5  C   UNL     1       6.595   5.340  19.357  0.00  0.00    +0.000 C 
ATOM      6  C   UNL     1       7.747   6.055  18.630  0.00  0.00    +0.000 C 
ENDROOT
BRANCH   1   7
ATOM      7  C   UNL     1       8.268   8.280  17.416  0.00  0.00    +0.000 C 
BRANCH   7   8
ATOM      8  N   UNL     1       8.114   9.519  18.151  0.00  0.00    +0.000 NA
ATOM      9  H   UNL     1       7.988  10.303  17.519  0.00  0.00    +0.000 HD
BRANCH   8  10
ATOM     10  C   UNL     1       9.104   9.895  19.137  0.00  0.00    +0.000 C 
BRANCH  10  14
ATOM     11  C   UNL     1      10.605  13.396  17.152  0.00  0.00    +0.000 A 
ATOM     12  C   UNL     1       9.314  13.404  17.669  0.00  0.00    +0.000 A 
ATOM     13  C   UNL     1       8.859  12.301  18.395  0.00  0.00    +0.000 A 
ATOM     14  C   UNL     1       9.693  11.194  18.611  0.00  0.00    +0.000 A 
ATOM     15  C   UNL     1      11.003  11.218  18.101  0.00  0.00    +0.000 A 
ATOM     16  C   UNL     1      11.456  12.319  17.373  0.00  0.00    +0.000 A 
BRANCH  11  17
ATOM     17  O   UNL     1      11.068  14.426  16.388  0.00  0.00    +0.000 OA
ATOM     18  H   UNL     1      11.812  14.839  16.858  0.00  0.00    +0.000 HD
ENDBRANCH  11  17
ENDBRANCH  10  14
ENDBRANCH   8  10
ENDBRANCH   7   8
ENDBRANCH   1   7
BRANCH   4  19
ATOM     19  C   UNL     1       4.468   4.183  19.053  0.00  0.00    +0.000 C 
BRANCH  19  20
ATOM     20  C   UNL     1       3.848   3.120  18.106  0.00  0.00    +0.000 C 
ATOM     21  C   UNL     1       3.341   1.878  18.856  0.00  0.00    +0.000 C 
ATOM     22  C   UNL     1       2.067   2.158  19.641  0.00  0.00    +0.000 C 
ATOM     23  C   UNL     1       0.952   2.646  18.723  0.00  0.00    +0.000 C 
ATOM     24  C   UNL     1       1.363   3.817  17.837  0.00  0.00    +0.000 C 
ATOM     25  C   UNL     1       2.746   3.690  17.200  0.00  0.00    +0.000 C 
ENDBRANCH  19  20
ENDBRANCH   4  19
TORSDOF 7
ENDMDL
MODEL 4
REMARK VINA RESULT:      -7.2      6.429      9.045
REMARK  Name = 
REMARK  7 active torsions:
REMARK  status: ('A' for Active; 'I' for Inactive)
REMARK    1  A    between atoms: O_1  and  C_2
REMARK    2  A    between atoms: C_5  and  C_6
REMARK    3  A    between atoms: C_6  and  N_7
REMARK    4  A    between atoms: N_7  and  C_8
REMARK    5  A    between atoms: C_8  and  C_9
REMARK    6  A    between atoms: N_12  and  C_13
REMARK    7  A    between atoms: C_13  and  C_14
REMARK                            x       y       z     vdW  Elec       q    Type
REMARK                         _______ _______ _______ _____ _____    ______ ____
ROOT
ATOM      1  C   UNL     1       1.310   9.777  19.540  0.00  0.00    +0.000 C 
ATOM      2  C   UNL     1       0.955   8.622  20.491  0.00  0.00    +0.000 C 
ATOM      3  C   UNL     1       2.015   7.525  20.414  0.00  0.00    +0.000 C 
ATOM      4  N   UNL     1       2.188   7.031  19.040  0.00  0.00    +0.000 NA
ATOM      5  C   UNL     1       2.537   8.137  18.130  0.00  0.00    +0.000 C 
ATOM      6  C   UNL     1       1.425   9.200  18.128  0.00  0.00    +0.000 C 
ENDROOT
BRANCH   1   7
ATOM      7  C   UNL     1       0.362  10.985  19.672  0.00  0.00    +0.000 C 
BRANCH   7   8
ATOM      8  N   UNL     1      -0.941  10.441  19.348  0.00  0.00    +0.000 NA
ATOM      9  H   UNL     1      -0.899   9.874  18.507  0.00  0.00    +0.000 HD
BRANCH   8  10
ATOM     10  C   UNL     1      -2.079  11.326  19.234  0.00  0.00    +0.000 C 
BRANCH  10  14
ATOM     11  C   UNL     1      -3.766  10.372  15.402  0.00  0.00    +0.000 A 
ATOM     12  C   UNL     1      -4.395  11.313  16.211  0.00  0.00    +0.000 A 
ATOM     13  C   UNL     1      -3.798  11.692  17.414  0.00  0.00    +0.000 A 
ATOM     14  C   UNL     1      -2.570  11.137  17.809  0.00  0.00    +0.000 A 
ATOM     15  C   UNL     1      -1.941  10.207  16.964  0.00  0.00    +0.000 A 
ATOM     16  C   UNL     1      -2.540   9.826  15.762  0.00  0.00    +0.000 A 
BRANCH  11  17
ATOM     17  O   UNL     1      -4.345   9.931  14.248  0.00  0.00    +0.000 OA
ATOM     18  H   UNL     1      -5.301  10.097  14.309  0.00  0.00    +0.000 HD
ENDBRANCH  11  17
ENDBRANCH  10  14
ENDBRANCH   8  10
ENDBRANCH   7   8
ENDBRANCH   1   7
BRANCH   4  19
ATOM     19  C   UNL     1       3.180   5.937  18.969  0.00  0.00    +0.000 C 
BRANCH  19  20
ATOM     20  C   UNL     1       2.972   5.015  17.737  0.00  0.00    +0.000 C 
ATOM     21  C   UNL     1       4.029   3.903  17.642  0.00  0.00    +0.000 C 
ATOM     22  C   UNL     1       3.824   2.820  18.692  0.00  0.00    +0.000 C 
ATOM     23  C   UNL     1       2.449   2.179  18.560  0.00  0.00    +0.000 C 
ATOM     24  C   UNL     1       1.307   3.190  18.532  0.00  0.00    +0.000 C 
ATOM     25  C   UNL     1       1.558   4.421  17.662  0.00  0.00    +0.000 C 
ENDBRANCH  19  20
ENDBRANCH   4  19
TORSDOF 7
ENDMDL
MODEL 5
REMARK VINA RESULT:      -7.1      0.975      1.109
REMARK  Name = 
REMARK  7 active torsions:
REMARK  status: ('A' for Active; 'I' for Inactive)
REMARK    1  A    between atoms: O_1  and  C_2
REMARK    2  A    between atoms: C_5  and  C_6
REMARK    3  A    between atoms: C_6  and  N_7
REMARK    4  A    between atoms: N_7  and  C_8
REMARK    5  A    between atoms: C_8  and  C_9
REMARK    6  A    between atoms: N_12  and  C_13
REMARK    7  A    between atoms: C_13  and  C_14
REMARK                            x       y       z     vdW  Elec       q    Type
REMARK                         _______ _______ _______ _____ _____    ______ ____
ROOT
ATOM      1  C   UNL     1       7.056   6.995  17.819  0.00  0.00    +0.000 C 
ATOM      2  C   UNL     1       6.275   6.349  16.662  0.00  0.00    +0.000 C 
ATOM      3  C   UNL     1       5.050   5.610  17.195  0.00  0.00    +0.000 C 
ATOM      4  N   UNL     1       5.418   4.601  18.200  0.00  0.00    +0.000 NA
ATOM      5  C   UNL     1       6.159   5.222  19.312  0.00  0.00    +0.000 C 
ATOM      6  C   UNL     1       7.448   5.884  18.795  0.00  0.00    +0.000 C 
ENDROOT
BRANCH   1   7
ATOM      7  C   UNL     1       8.224   7.880  17.342  0.00  0.00    +0.000 C 
BRANCH   7   8
ATOM      8  N   UNL     1       8.169   9.031  18.221  0.00  0.00    +0.000 NA
ATOM      9  H   UNL     1       7.532   8.868  18.994  0.00  0.00    +0.000 HD
BRANCH   8  10
ATOM     10  C   UNL     1       7.883  10.339  17.673  0.00  0.00    +0.000 C 
BRANCH  10  14
ATOM     11  C   UNL     1      11.195  12.767  18.930  0.00  0.00    +0.000 A 
ATOM     12  C   UNL     1      10.190  13.331  18.150  0.00  0.00    +0.000 A 
ATOM     13  C   UNL     1       9.068  12.569  17.820  0.00  0.00    +0.000 A 
ATOM     14  C   UNL     1       8.945  11.245  18.272  0.00  0.00    +0.000 A 
ATOM     15  C   UNL     1       9.961  10.705  19.079  0.00  0.00    +0.000 A 
ATOM     16  C   UNL     1      11.084  11.466  19.406  0.00  0.00    +0.000 A 
BRANCH  11  17
ATOM     17  O   UNL     1      12.333  13.458  19.225  0.00  0.00    +0.000 OA
ATOM     18  H   UNL     1      13.065  12.821  19.283  0.00  0.00    +0.000 HD
ENDBRANCH  11  17
ENDBRANCH  10  14
ENDBRANCH   8  10
ENDBRANCH   7   8
ENDBRANCH   1   7
BRANCH   4  19
ATOM     19  C   UNL     1       4.239   3.852  18.685  0.00  0.00    +0.000 C 
BRANCH  19  20
ATOM     20  C   UNL     1       2.925   4.674  18.598  0.00  0.00    +0.000 C 
ATOM     21  C   UNL     1       1.798   3.921  17.874  0.00  0.00    +0.000 C 
ATOM     22  C   UNL     1       1.226   2.789  18.715  0.00  0.00    +0.000 C 
ATOM     23  C   UNL     1       0.674   3.311  20.036  0.00  0.00    +0.000 C 
ATOM     24  C   UNL     1       1.665   4.173  20.811  0.00  0.00    +0.000 C 
ATOM     25  C   UNL     1       2.441   5.182  19.965  0.00  0.00    +0.000 C 
ENDBRANCH  19  20
ENDBRANCH   4  19
TORSDOF 7
ENDMDL
MODEL 6
REMARK VINA RESULT:      -7.1      0.493      1.093
REMARK  Name = 
REMARK  7 active torsions:
REMARK  status: ('A' for Active; 'I' for Inactive)
REMARK    1  A    between atoms: O_1  and  C_2
REMARK    2  A    between atoms: C_5  and  C_6
REMARK    3  A    between atoms: C_6  and  N_7
REMARK    4  A    between atoms: N_7  and  C_8
REMARK    5  A    between atoms: C_8  and  C_9
REMARK    6  A    between atoms: N_12  and  C_13
REMARK    7  A    between atoms: C_13  and  C_14
REMARK                            x       y       z     vdW  Elec       q    Type
REMARK                         _______ _______ _______ _____ _____    ______ ____
ROOT
ATOM      1  C   UNL     1       7.401   7.186  17.393  0.00  0.00    +0.000 C 
ATOM      2  C   UNL     1       7.557   6.276  18.623  0.00  0.00    +0.000 C 
ATOM      3  C   UNL     1       6.548   5.132  18.570  0.00  0.00    +0.000 C 
ATOM      4  N   UNL     1       5.167   5.628  18.464  0.00  0.00    +0.000 NA
ATOM      5  C   UNL     1       5.016   6.493  17.280  0.00  0.00    +0.000 C 
ATOM      6  C   UNL     1       5.961   7.703  17.375  0.00  0.00    +0.000 C 
ENDROOT
BRANCH   1   7
ATOM      7  C   UNL     1       8.484   8.279  17.305  0.00  0.00    +0.000 C 
BRANCH   7   8
ATOM      8  N   UNL     1       8.074   9.255  18.295  0.00  0.00    +0.000 NA
ATOM      9  H   UNL     1       7.662  10.070  17.853  0.00  0.00    +0.000 HD
BRANCH   8  10
ATOM     10  C   UNL     1       9.024   9.715  19.284  0.00  0.00    +0.000 C 
BRANCH  10  14
ATOM     11  C   UNL     1      10.629  13.074  17.143  0.00  0.00    +0.000 A 
ATOM     12  C   UNL     1       9.253  12.972  17.323  0.00  0.00    +0.000 A 
ATOM     13  C   UNL     1       8.738  11.931  18.098  0.00  0.00    +0.000 A 
ATOM     14  C   UNL     1       9.595  10.995  18.699  0.00  0.00    +0.000 A 
ATOM     15  C   UNL     1      10.983  11.133  18.523  0.00  0.00    +0.000 A 
ATOM     16  C   UNL     1      11.497  12.172  17.746  0.00  0.00    +0.000 A 
BRANCH  11  17
ATOM     17  O   UNL     1      11.168  14.040  16.345  0.00  0.00    +0.000 OA
ATOM     18  H   UNL     1      10.614  14.836  16.420  0.00  0.00    +0.000 HD
ENDBRANCH  11  17
ENDBRANCH  10  14
ENDBRANCH   8  10
ENDBRANCH   7   8
ENDBRANCH   1   7
BRANCH   4  19
ATOM     19  C   UNL     1       4.184   4.524  18.459  0.00  0.00    +0.000 C 
BRANCH  19  20
ATOM     20  C   UNL     1       2.716   5.025  18.385  0.00  0.00    +0.000 C 
ATOM     21  C   UNL     1       1.741   3.941  17.901  0.00  0.00    +0.000 C 
ATOM     22  C   UNL     1       1.495   2.873  18.958  0.00  0.00    +0.000 C 
ATOM     23  C   UNL     1       0.930   3.483  20.234  0.00  0.00    +0.000 C 
ATOM     24  C   UNL     1       1.753   4.652  20.765  0.00  0.00    +0.000 C 
ATOM     25  C   UNL     1       2.225   5.643  19.702  0.00  0.00    +0.000 C 
ENDBRANCH  19  20
ENDBRANCH   4  19
TORSDOF 7
ENDMDL
MODEL 7
REMARK VINA RESULT:      -7.0      0.908      1.748
REMARK  Name = 
REMARK  7 active torsions:
REMARK  status: ('A' for Active; 'I' for Inactive)
REMARK    1  A    between atoms: O_1  and  C_2
REMARK    2  A    between atoms: C_5  and  C_6
REMARK    3  A    between atoms: C_6  and  N_7
REMARK    4  A    between atoms: N_7  and  C_8
REMARK    5  A    between atoms: C_8  and  C_9
REMARK    6  A    between atoms: N_12  and  C_13
REMARK    7  A    between atoms: C_13  and  C_14
REMARK                            x       y       z     vdW  Elec       q    Type
REMARK                         _______ _______ _______ _____ _____    ______ ____
ROOT
ATOM      1  C   UNL     1       6.922   6.809  17.665  0.00  0.00    +0.000 C 
ATOM      2  C   UNL     1       5.629   7.330  17.016  0.00  0.00    +0.000 C 
ATOM      3  C   UNL     1       4.428   6.519  17.497  0.00  0.00    +0.000 C 
ATOM      4  N   UNL     1       4.599   5.083  17.231  0.00  0.00    +0.000 NA
ATOM      5  C   UNL     1       5.834   4.582  17.861  0.00  0.00    +0.000 C 
ATOM      6  C   UNL     1       7.060   5.328  17.306  0.00  0.00    +0.000 C 
ENDROOT
BRANCH   1   7
ATOM      7  C   UNL     1       8.155   7.673  17.338  0.00  0.00    +0.000 C 
BRANCH   7   8
ATOM      8  N   UNL     1       7.860   8.948  17.960  0.00  0.00    +0.000 NA
ATOM      9  H   UNL     1       7.607   9.642  17.264  0.00  0.00    +0.000 HD
BRANCH   8  10
ATOM     10  C   UNL     1       8.823   9.547  18.858  0.00  0.00    +0.000 C 
BRANCH  10  14
ATOM     11  C   UNL     1      10.174  13.333  17.346  0.00  0.00    +0.000 A 
ATOM     12  C   UNL     1      11.097  12.317  17.570  0.00  0.00    +0.000 A 
ATOM     13  C   UNL     1      10.648  11.058  17.972  0.00  0.00    +0.000 A 
ATOM     14  C   UNL     1       9.277  10.810  18.145  0.00  0.00    +0.000 A 
ATOM     15  C   UNL     1       8.361  11.844  17.890  0.00  0.00    +0.000 A 
ATOM     16  C   UNL     1       8.811  13.104  17.491  0.00  0.00    +0.000 A 
BRANCH  11  17
ATOM     17  O   UNL     1      10.576  14.592  17.009  0.00  0.00    +0.000 OA
ATOM     18  H   UNL     1       9.781  15.125  16.837  0.00  0.00    +0.000 HD
ENDBRANCH  11  17
ENDBRANCH  10  14
ENDBRANCH   8  10
ENDBRANCH   7   8
ENDBRANCH   1   7
BRANCH   4  19
ATOM     19  C   UNL     1       3.419   4.300  17.654  0.00  0.00    +0.000 C 
BRANCH  19  20
ATOM     20  C   UNL     1       3.592   3.660  19.059  0.00  0.00    +0.000 C 
ATOM     21  C   UNL     1       2.953   4.497  20.177  0.00  0.00    +0.000 C 
ATOM     22  C   UNL     1       1.432   4.427  20.154  0.00  0.00    +0.000 C 
ATOM     23  C   UNL     1       0.946   2.991  20.300  0.00  0.00    +0.000 C 
ATOM     24  C   UNL     1       1.591   2.026  19.310  0.00  0.00    +0.000 C 
ATOM     25  C   UNL     1       3.097   2.207  19.122  0.00  0.00    +0.000 C 
ENDBRANCH  19  20
ENDBRANCH   4  19
TORSDOF 7
ENDMDL
MODEL 8
REMARK VINA RESULT:      -7.0      5.694      8.791
REMARK  Name = 
REMARK  7 active torsions:
REMARK  status: ('A' for Active; 'I' for Inactive)
REMARK    1  A    between atoms: O_1  and  C_2
REMARK    2  A    between atoms: C_5  and  C_6
REMARK    3  A    between atoms: C_6  and  N_7
REMARK    4  A    between atoms: N_7  and  C_8
REMARK    5  A    between atoms: C_8  and  C_9
REMARK    6  A    between atoms: N_12  and  C_13
REMARK    7  A    between atoms: C_13  and  C_14
REMARK                            x       y       z     vdW  Elec       q    Type
REMARK                         _______ _______ _______ _____ _____    ______ ____
ROOT
ATOM      1  C   UNL     1       1.926   7.911  20.112  0.00  0.00    +0.000 C 
ATOM      2  C   UNL     1       1.789   6.397  20.347  0.00  0.00    +0.000 C 
ATOM      3  C   UNL     1       2.916   5.646  19.643  0.00  0.00    +0.000 C 
ATOM      4  N   UNL     1       2.955   5.947  18.204  0.00  0.00    +0.000 NA
ATOM      5  C   UNL     1       3.095   7.397  17.980  0.00  0.00    +0.000 C 
ATOM      6  C   UNL     1       1.909   8.153  18.602  0.00  0.00    +0.000 C 
ENDROOT
BRANCH   1   7
ATOM      7  C   UNL     1       0.907   8.743  20.914  0.00  0.00    +0.000 C 
BRANCH   7   8
ATOM      8  N   UNL     1       0.444   9.735  19.965  0.00  0.00    +0.000 NA
ATOM      9  H   UNL     1       1.215  10.303  19.628  0.00  0.00    +0.000 HD
BRANCH   8  10
ATOM     10  C   UNL     1      -0.640  10.622  20.326  0.00  0.00    +0.000 C 
BRANCH  10  14
ATOM     11  C   UNL     1      -3.135  10.796  16.834  0.00  0.00    +0.000 A 
ATOM     12  C   UNL     1      -3.450  11.580  17.939  0.00  0.00    +0.000 A 
ATOM     13  C   UNL     1      -2.588  11.595  19.038  0.00  0.00    +0.000 A 
ATOM     14  C   UNL     1      -1.410  10.832  19.033  0.00  0.00    +0.000 A 
ATOM     15  C   UNL     1      -1.100  10.066  17.895  0.00  0.00    +0.000 A 
ATOM     16  C   UNL     1      -1.963  10.050  16.798  0.00  0.00    +0.000 A 
BRANCH  11  17
ATOM     17  O   UNL     1      -3.978  10.708  15.766  0.00  0.00    +0.000 OA
ATOM     18  H   UNL     1      -3.710  11.379  15.115  0.00  0.00    +0.000 HD
ENDBRANCH  11  17
ENDBRANCH  10  14
ENDBRANCH   8  10
ENDBRANCH   7   8
ENDBRANCH   1   7
BRANCH   4  19
ATOM     19  C   UNL     1       4.016   5.186  17.511  0.00  0.00    +0.000 C 
BRANCH  19  20
ATOM     20  C   UNL     1       5.084   6.103  16.854  0.00  0.00    +0.000 C 
ATOM     21  C   UNL     1       6.464   5.979  17.518  0.00  0.00    +0.000 C 
ATOM     22  C   UNL     1       7.151   4.663  17.181  0.00  0.00    +0.000 C 
ATOM     23  C   UNL     1       7.334   4.507  15.676  0.00  0.00    +0.000 C 
ATOM     24  C   UNL     1       6.048   4.716  14.883  0.00  0.00    +0.000 C 
ATOM     25  C   UNL     1       5.197   5.902  15.335  0.00  0.00    +0.000 C 
ENDBRANCH  19  20
ENDBRANCH   4  19
TORSDOF 7
ENDMDL
MODEL 9
REMARK VINA RESULT:      -7.0      5.126      7.841
REMARK  Name = 
REMARK  7 active torsions:
REMARK  status: ('A' for Active; 'I' for Inactive)
REMARK    1  A    between atoms: O_1  and  C_2
REMARK    2  A    between atoms: C_5  and  C_6
REMARK    3  A    between atoms: C_6  and  N_7
REMARK    4  A    between atoms: N_7  and  C_8
REMARK    5  A    between atoms: C_8  and  C_9
REMARK    6  A    between atoms: N_12  and  C_13
REMARK    7  A    between atoms: C_13  and  C_14
REMARK                            x       y       z     vdW  Elec       q    Type
REMARK                         _______ _______ _______ _____ _____    ______ ____
ROOT
ATOM      1  C   UNL     1       2.725   6.353  19.803  0.00  0.00    +0.000 C 
ATOM      2  C   UNL     1       2.548   6.591  18.294  0.00  0.00    +0.000 C 
ATOM      3  C   UNL     1       2.513   8.088  17.993  0.00  0.00    +0.000 C 
ATOM      4  N   UNL     1       1.455   8.771  18.753  0.00  0.00    +0.000 NA
ATOM      5  C   UNL     1       1.630   8.549  20.200  0.00  0.00    +0.000 C 
ATOM      6  C   UNL     1       1.568   7.047  20.523  0.00  0.00    +0.000 C 
ENDROOT
BRANCH   1   7
ATOM      7  C   UNL     1       2.916   4.867  20.163  0.00  0.00    +0.000 C 
BRANCH   7   8
ATOM      8  N   UNL     1       3.106   4.220  18.881  0.00  0.00    +0.000 NA
ATOM      9  H   UNL     1       2.280   3.696  18.612  0.00  0.00    +0.000 HD
BRANCH   8  10
ATOM     10  C   UNL     1       4.260   3.374  18.669  0.00  0.00    +0.000 C 
BRANCH  10  14
ATOM     11  C   UNL     1       6.851   4.984  15.646  0.00  0.00    +0.000 A 
ATOM     12  C   UNL     1       5.576   4.553  15.295  0.00  0.00    +0.000 A 
ATOM     13  C   UNL     1       4.701   4.117  16.292  0.00  0.00    +0.000 A 
ATOM     14  C   UNL     1       5.095   4.116  17.639  0.00  0.00    +0.000 A 
ATOM     15  C   UNL     1       6.379   4.579  17.973  0.00  0.00    +0.000 A 
ATOM     16  C   UNL     1       7.255   5.012  16.976  0.00  0.00    +0.000 A 
BRANCH  11  17
ATOM     17  O   UNL     1       7.756   5.362  14.698  0.00  0.00    +0.000 OA
ATOM     18  H   UNL     1       7.979   4.580  14.166  0.00  0.00    +0.000 HD
ENDBRANCH  11  17
ENDBRANCH  10  14
ENDBRANCH   8  10
ENDBRANCH   7   8
ENDBRANCH   1   7
BRANCH   4  19
ATOM     19  C   UNL     1       1.388  10.212  18.430  0.00  0.00    +0.000 C 
BRANCH  19  20
ATOM     20  C   UNL     1       0.675  11.044  19.531  0.00  0.00    +0.000 C 
ATOM     21  C   UNL     1       1.389  12.372  19.828  0.00  0.00    +0.000 C 
ATOM     22  C   UNL     1       1.204  13.390  18.711  0.00  0.00    +0.000 C 
ATOM     23  C   UNL     1      -0.271  13.687  18.477  0.00  0.00    +0.000 C 
ATOM     24  C   UNL     1      -1.119  12.435  18.273  0.00  0.00    +0.000 C 
ATOM     25  C   UNL     1      -0.812  11.286  19.233  0.00  0.00    +0.000 C 
ENDBRANCH  19  20
ENDBRANCH   4  19
TORSDOF 7
ENDMDL
