MODEL 1
REMARK VINA RESULT:      -6.7      0.000      0.000
REMARK  Name = 
REMARK  3 active torsions:
REMARK  status: ('A' for Active; 'I' for Inactive)
REMARK    1  A    between atoms: C_1  and  N_2
REMARK    2  A    between atoms: N_2  and  C_3
REMARK    3  A    between atoms: C_6  and  C_7
REMARK                            x       y       z     vdW  Elec       q    Type
REMARK                         _______ _______ _______ _____ _____    ______ ____
ROOT
ATOM      1  C   UNL     1       7.797   5.006  13.118  0.00  0.00    +0.000 C 
ATOM      2  N   UNL     1       6.499   4.621  13.640  0.00  0.00    +0.000 N 
ATOM      3  C   UNL     1       5.735   3.597  12.956  0.00  0.00    +0.000 C 
ATOM      4  C   UNL     1       6.310   4.737  15.010  0.00  0.00    +0.000 A 
ATOM      5  N   UNL     1       5.205   4.193  15.547  0.00  0.00    +0.000 NA
ATOM      6  C   UNL     1       4.940   4.303  16.880  0.00  0.00    +0.000 A 
ATOM      7  C   UNL     1       5.878   4.960  17.679  0.00  0.00    +0.000 A 
ATOM      8  S   UNL     1       5.944   5.246  19.379  0.00  0.00    +0.000 S 
ATOM      9  C   UNL     1       7.449   6.036  19.277  0.00  0.00    +0.000 A 
ATOM     10  C   UNL     1       7.909   6.086  17.984  0.00  0.00    +0.000 A 
ATOM     11  C   UNL     1       7.011   5.474  17.057  0.00  0.00    +0.000 A 
ATOM     12  N   UNL     1       7.229   5.384  15.727  0.00  0.00    +0.000 NA
ENDROOT
BRANCH   6  13
ATOM     13  C   UNL     1       3.720   3.661  17.384  0.00  0.00    +0.000 A 
ATOM     14  C   UNL     1       3.707   2.328  17.792  0.00  0.00    +0.000 A 
ATOM     15  N   UNL     1       2.618   1.715  18.330  0.00  0.00    +0.000 NA
ATOM     16  C   UNL     1       1.518   2.489  18.434  0.00  0.00    +0.000 A 
ATOM     17  C   UNL     1       1.500   3.803  18.007  0.00  0.00    +0.000 A 
ATOM     18  N   UNL     1       2.587   4.409  17.477  0.00  0.00    +0.000 NA
ENDBRANCH   6  13
TORSDOF 1
ENDMDL
MODEL 2
REMARK VINA RESULT:      -6.7      0.653      1.127
REMARK  Name = 
REMARK  3 active torsions:
REMARK  status: ('A' for Active; 'I' for Inactive)
REMARK    1  A    between atoms: C_1  and  N_2
REMARK    2  A    between atoms: N_2  and  C_3
REMARK    3  A    between atoms: C_6  and  C_7
REMARK                            x       y       z     vdW  Elec       q    Type
REMARK                         _______ _______ _______ _____ _____    ______ ____
ROOT
ATOM      1  C   UNL     1       7.761   5.020  13.052  0.00  0.00    +0.000 C 
ATOM      2  N   UNL     1       6.483   4.601  13.600  0.00  0.00    +0.000 N 
ATOM      3  C   UNL     1       5.741   3.546  12.939  0.00  0.00    +0.000 C 
ATOM      4  C   UNL     1       6.313   4.727  14.971  0.00  0.00    +0.000 A 
ATOM      5  N   UNL     1       5.234   4.155  15.532  0.00  0.00    +0.000 NA
ATOM      6  C   UNL     1       4.987   4.273  16.868  0.00  0.00    +0.000 A 
ATOM      7  C   UNL     1       5.917   4.968  17.644  0.00  0.00    +0.000 A 
ATOM      8  S   UNL     1       6.002   5.275  19.339  0.00  0.00    +0.000 S 
ATOM      9  C   UNL     1       7.479   6.110  19.204  0.00  0.00    +0.000 A 
ATOM     10  C   UNL     1       7.917   6.159  17.904  0.00  0.00    +0.000 A 
ATOM     11  C   UNL     1       7.023   5.510  16.998  0.00  0.00    +0.000 A 
ATOM     12  N   UNL     1       7.223   5.410  15.665  0.00  0.00    +0.000 NA
ENDROOT
BRANCH   6  13
ATOM     13  C   UNL     1       3.797   3.599  17.398  0.00  0.00    +0.000 A 
ATOM     14  C   UNL     1       2.544   4.213  17.401  0.00  0.00    +0.000 A 
ATOM     15  N   UNL     1       1.405   3.599  17.817  0.00  0.00    +0.000 NA
ATOM     16  C   UNL     1       1.563   2.332  18.254  0.00  0.00    +0.000 A 
ATOM     17  C   UNL     1       2.799   1.716  18.290  0.00  0.00    +0.000 A 
ATOM     18  N   UNL     1       3.929   2.329  17.871  0.00  0.00    +0.000 NA
ENDBRANCH   6  13
TORSDOF 1
ENDMDL
MODEL 3
REMARK VINA RESULT:      -6.5      2.914      5.753
REMARK  Name = 
REMARK  3 active torsions:
REMARK  status: ('A' for Active; 'I' for Inactive)
REMARK    1  A    between atoms: C_1  and  N_2
REMARK    2  A    between atoms: N_2  and  C_3
REMARK    3  A    between atoms: C_6  and  C_7
REMARK                            x       y       z     vdW  Elec       q    Type
REMARK                         _______ _______ _______ _____ _____    ______ ____
ROOT
ATOM      1  C   UNL     1       1.079   8.929  19.800  0.00  0.00    +0.000 C 
ATOM      2  N   UNL     1       1.908   8.486  18.694  0.00  0.00    +0.000 N 
ATOM      3  C   UNL     1       2.616   9.471  17.901  0.00  0.00    +0.000 C 
ATOM      4  C   UNL     1       2.488   7.231  18.804  0.00  0.00    +0.000 A 
ATOM      5  N   UNL     1       3.424   6.883  17.904  0.00  0.00    +0.000 NA
ATOM      6  C   UNL     1       4.007   5.650  17.933  0.00  0.00    +0.000 A 
ATOM      7  C   UNL     1       3.635   4.777  18.957  0.00  0.00    +0.000 A 
ATOM      8  S   UNL     1       4.175   3.192  19.372  0.00  0.00    +0.000 S 
ATOM      9  C   UNL     1       3.155   3.103  20.732  0.00  0.00    +0.000 A 
ATOM     10  C   UNL     1       2.415   4.250  20.886  0.00  0.00    +0.000 A 
ATOM     11  C   UNL     1       2.680   5.217  19.867  0.00  0.00    +0.000 A 
ATOM     12  N   UNL     1       2.090   6.430  19.792  0.00  0.00    +0.000 NA
ENDROOT
BRANCH   6  13
ATOM     13  C   UNL     1       5.034   5.363  16.925  0.00  0.00    +0.000 A 
ATOM     14  C   UNL     1       6.214   6.102  16.846  0.00  0.00    +0.000 A 
ATOM     15  N   UNL     1       7.220   5.825  15.975  0.00  0.00    +0.000 NA
ATOM     16  C   UNL     1       6.998   4.775  15.158  0.00  0.00    +0.000 A 
ATOM     17  C   UNL     1       5.823   4.049  15.197  0.00  0.00    +0.000 A 
ATOM     18  N   UNL     1       4.827   4.325  16.069  0.00  0.00    +0.000 NA
ENDBRANCH   6  13
TORSDOF 1
ENDMDL
MODEL 4
REMARK VINA RESULT:      -6.4      2.564      5.713
REMARK  Name = 
REMARK  3 active torsions:
REMARK  status: ('A' for Active; 'I' for Inactive)
REMARK    1  A    between atoms: C_1  and  N_2
REMARK    2  A    between atoms: N_2  and  C_3
REMARK    3  A    between atoms: C_6  and  C_7
REMARK                            x       y       z     vdW  Elec       q    Type
REMARK                         _______ _______ _______ _____ _____    ______ ____
ROOT
ATOM      1  C   UNL     1       2.336   2.983  21.555  0.00  0.00    +0.000 C 
ATOM      2  N   UNL     1       3.391   3.040  20.561  0.00  0.00    +0.000 N 
ATOM      3  C   UNL     1       3.891   1.806  19.987  0.00  0.00    +0.000 C 
ATOM      4  C   UNL     1       3.444   4.173  19.762  0.00  0.00    +0.000 A 
ATOM      5  N   UNL     1       4.268   4.163  18.700  0.00  0.00    +0.000 NA
ATOM      6  C   UNL     1       4.396   5.257  17.896  0.00  0.00    +0.000 A 
ATOM      7  C   UNL     1       3.608   6.373  18.183  0.00  0.00    +0.000 A 
ATOM      8  S   UNL     1       3.431   7.893  17.387  0.00  0.00    +0.000 S 
ATOM      9  C   UNL     1       2.251   8.434  18.489  0.00  0.00    +0.000 A 
ATOM     10  C   UNL     1       1.981   7.487  19.447  0.00  0.00    +0.000 A 
ATOM     11  C   UNL     1       2.760   6.300  19.283  0.00  0.00    +0.000 A 
ATOM     12  N   UNL     1       2.682   5.217  20.086  0.00  0.00    +0.000 NA
ENDROOT
BRANCH   6  13
ATOM     13  C   UNL     1       5.302   5.150  16.747  0.00  0.00    +0.000 A 
ATOM     14  C   UNL     1       6.506   5.852  16.692  0.00  0.00    +0.000 A 
ATOM     15  N   UNL     1       7.407   5.727  15.681  0.00  0.00    +0.000 NA
ATOM     16  C   UNL     1       7.051   4.874  14.698  0.00  0.00    +0.000 A 
ATOM     17  C   UNL     1       5.849   4.192  14.717  0.00  0.00    +0.000 A 
ATOM     18  N   UNL     1       4.958   4.316  15.727  0.00  0.00    +0.000 NA
ENDBRANCH   6  13
TORSDOF 1
ENDMDL
MODEL 5
REMARK VINA RESULT:      -6.3      3.207      4.826
REMARK  Name = 
REMARK  3 active torsions:
REMARK  status: ('A' for Active; 'I' for Inactive)
REMARK    1  A    between atoms: C_1  and  N_2
REMARK    2  A    between atoms: N_2  and  C_3
REMARK    3  A    between atoms: C_6  and  C_7
REMARK                            x       y       z     vdW  Elec       q    Type
REMARK                         _______ _______ _______ _____ _____    ______ ____
ROOT
ATOM      1  C   UNL     1       7.469   4.526  16.771  0.00  0.00    +0.000 C 
ATOM      2  N   UNL     1       6.687   5.535  17.462  0.00  0.00    +0.000 N 
ATOM      3  C   UNL     1       6.959   6.936  17.212  0.00  0.00    +0.000 C 
ATOM      4  C   UNL     1       5.386   5.197  17.806  0.00  0.00    +0.000 A 
ATOM      5  N   UNL     1       4.574   6.171  18.250  0.00  0.00    +0.000 NA
ATOM      6  C   UNL     1       3.295   5.901  18.640  0.00  0.00    +0.000 A 
ATOM      7  C   UNL     1       2.841   4.587  18.519  0.00  0.00    +0.000 A 
ATOM      8  S   UNL     1       1.306   3.866  18.835  0.00  0.00    +0.000 S 
ATOM      9  C   UNL     1       1.824   2.326  18.324  0.00  0.00    +0.000 A 
ATOM     10  C   UNL     1       3.135   2.343  17.913  0.00  0.00    +0.000 A 
ATOM     11  C   UNL     1       3.730   3.638  18.026  0.00  0.00    +0.000 A 
ATOM     12  N   UNL     1       5.004   3.926  17.684  0.00  0.00    +0.000 NA
ENDROOT
BRANCH   6  13
ATOM     13  C   UNL     1       2.473   7.029  19.093  0.00  0.00    +0.000 A 
ATOM     14  C   UNL     1       1.974   7.100  20.393  0.00  0.00    +0.000 A 
ATOM     15  N   UNL     1       1.269   8.160  20.873  0.00  0.00    +0.000 NA
ATOM     16  C   UNL     1       1.060   9.157  19.990  0.00  0.00    +0.000 A 
ATOM     17  C   UNL     1       1.518   9.094  18.688  0.00  0.00    +0.000 A 
ATOM     18  N   UNL     1       2.224   8.040  18.216  0.00  0.00    +0.000 NA
ENDBRANCH   6  13
TORSDOF 1
ENDMDL
MODEL 6
REMARK VINA RESULT:      -6.3      3.232      4.933
REMARK  Name = 
REMARK  3 active torsions:
REMARK  status: ('A' for Active; 'I' for Inactive)
REMARK    1  A    between atoms: C_1  and  N_2
REMARK    2  A    between atoms: N_2  and  C_3
REMARK    3  A    between atoms: C_6  and  C_7
REMARK                            x       y       z     vdW  Elec       q    Type
REMARK                         _______ _______ _______ _____ _____    ______ ____
ROOT
ATOM      1  C   UNL     1       7.397   4.426  16.828  0.00  0.00    +0.000 C 
ATOM      2  N   UNL     1       6.653   5.440  17.554  0.00  0.00    +0.000 N 
ATOM      3  C   UNL     1       6.963   6.839  17.335  0.00  0.00    +0.000 C 
ATOM      4  C   UNL     1       5.347   5.131  17.907  0.00  0.00    +0.000 A 
ATOM      5  N   UNL     1       4.569   6.117  18.386  0.00  0.00    +0.000 NA
ATOM      6  C   UNL     1       3.289   5.875  18.786  0.00  0.00    +0.000 A 
ATOM      7  C   UNL     1       2.794   4.578  18.639  0.00  0.00    +0.000 A 
ATOM      8  S   UNL     1       1.243   3.893  18.956  0.00  0.00    +0.000 S 
ATOM      9  C   UNL     1       1.710   2.352  18.402  0.00  0.00    +0.000 A 
ATOM     10  C   UNL     1       3.015   2.342  17.974  0.00  0.00    +0.000 A 
ATOM     11  C   UNL     1       3.649   3.615  18.111  0.00  0.00    +0.000 A 
ATOM     12  N   UNL     1       4.927   3.876  17.759  0.00  0.00    +0.000 NA
ENDROOT
BRANCH   6  13
ATOM     13  C   UNL     1       2.505   7.014  19.276  0.00  0.00    +0.000 A 
ATOM     14  C   UNL     1       2.231   8.119  18.471  0.00  0.00    +0.000 A 
ATOM     15  N   UNL     1       1.451   9.162  18.862  0.00  0.00    +0.000 NA
ATOM     16  C   UNL     1       0.957   9.071  20.114  0.00  0.00    +0.000 A 
ATOM     17  C   UNL     1       1.241   8.001  20.940  0.00  0.00    +0.000 A 
ATOM     18  N   UNL     1       2.014   6.963  20.545  0.00  0.00    +0.000 NA
ENDBRANCH   6  13
TORSDOF 1
ENDMDL
MODEL 7
REMARK VINA RESULT:      -6.2      2.919      5.762
REMARK  Name = 
REMARK  3 active torsions:
REMARK  status: ('A' for Active; 'I' for Inactive)
REMARK    1  A    between atoms: C_1  and  N_2
REMARK    2  A    between atoms: N_2  and  C_3
REMARK    3  A    between atoms: C_6  and  C_7
REMARK                            x       y       z     vdW  Elec       q    Type
REMARK                         _______ _______ _______ _____ _____    ______ ____
ROOT
ATOM      1  C   UNL     1       1.044   8.549  20.025  0.00  0.00    +0.000 C 
ATOM      2  N   UNL     1       1.919   8.027  18.991  0.00  0.00    +0.000 N 
ATOM      3  C   UNL     1       2.707   8.948  18.197  0.00  0.00    +0.000 C 
ATOM      4  C   UNL     1       2.446   6.759  19.193  0.00  0.00    +0.000 A 
ATOM      5  N   UNL     1       3.419   6.337  18.366  0.00  0.00    +0.000 NA
ATOM      6  C   UNL     1       3.954   5.089  18.486  0.00  0.00    +0.000 A 
ATOM      7  C   UNL     1       3.493   4.278  19.524  0.00  0.00    +0.000 A 
ATOM      8  S   UNL     1       3.951   2.698  20.042  0.00  0.00    +0.000 S 
ATOM      9  C   UNL     1       2.851   2.708  21.343  0.00  0.00    +0.000 A 
ATOM     10  C   UNL     1       2.146   3.885  21.400  0.00  0.00    +0.000 A 
ATOM     11  C   UNL     1       2.503   4.793  20.356  0.00  0.00    +0.000 A 
ATOM     12  N   UNL     1       1.963   6.019  20.191  0.00  0.00    +0.000 NA
ENDROOT
BRANCH   6  13
ATOM     13  C   UNL     1       5.026   4.720  17.554  0.00  0.00    +0.000 A 
ATOM     14  C   UNL     1       4.753   4.250  16.269  0.00  0.00    +0.000 A 
ATOM     15  N   UNL     1       5.715   3.965  15.351  0.00  0.00    +0.000 NA
ATOM     16  C   UNL     1       6.983   4.152  15.772  0.00  0.00    +0.000 A 
ATOM     17  C   UNL     1       7.277   4.587  17.051  0.00  0.00    +0.000 A 
ATOM     18  N   UNL     1       6.316   4.874  17.959  0.00  0.00    +0.000 NA
ENDBRANCH   6  13
TORSDOF 1
ENDMDL
MODEL 8
REMARK VINA RESULT:      -6.2      3.367      4.993
REMARK  Name = 
REMARK  3 active torsions:
REMARK  status: ('A' for Active; 'I' for Inactive)
REMARK    1  A    between atoms: C_1  and  N_2
REMARK    2  A    between atoms: N_2  and  C_3
REMARK    3  A    between atoms: C_6  and  C_7
REMARK                            x       y       z     vdW  Elec       q    Type
REMARK                         _______ _______ _______ _____ _____    ______ ____
ROOT
ATOM      1  C   UNL     1       5.854   3.778  15.740  0.00  0.00    +0.000 C 
ATOM      2  N   UNL     1       5.391   5.014  16.344  0.00  0.00    +0.000 N 
ATOM      3  C   UNL     1       5.426   6.238  15.568  0.00  0.00    +0.000 C 
ATOM      4  C   UNL     1       4.405   4.910  17.314  0.00  0.00    +0.000 A 
ATOM      5  N   UNL     1       3.808   6.039  17.735  0.00  0.00    +0.000 NA
ATOM      6  C   UNL     1       2.858   6.012  18.712  0.00  0.00    +0.000 A 
ATOM      7  C   UNL     1       2.489   4.769  19.229  0.00  0.00    +0.000 A 
ATOM      8  S   UNL     1       1.308   4.313  20.401  0.00  0.00    +0.000 S 
ATOM      9  C   UNL     1       1.652   2.654  20.233  0.00  0.00    +0.000 A 
ATOM     10  C   UNL     1       2.640   2.432  19.305  0.00  0.00    +0.000 A 
ATOM     11  C   UNL     1       3.132   3.642  18.726  0.00  0.00    +0.000 A 
ATOM     12  N   UNL     1       4.098   3.702  17.784  0.00  0.00    +0.000 NA
ENDROOT
BRANCH   6  13
ATOM     13  C   UNL     1       2.245   7.289  19.096  0.00  0.00    +0.000 A 
ATOM     14  C   UNL     1       2.047   8.316  18.174  0.00  0.00    +0.000 A 
ATOM     15  N   UNL     1       1.420   9.485  18.470  0.00  0.00    +0.000 NA
ATOM     16  C   UNL     1       1.003   9.604  19.748  0.00  0.00    +0.000 A 
ATOM     17  C   UNL     1       1.216   8.612  20.686  0.00  0.00    +0.000 A 
ATOM     18  N   UNL     1       1.836   7.448  20.385  0.00  0.00    +0.000 NA
ENDBRANCH   6  13
TORSDOF 1
ENDMDL
MODEL 9
REMARK VINA RESULT:      -6.1      3.547      5.141
REMARK  Name = 
REMARK  3 active torsions:
REMARK  status: ('A' for Active; 'I' for Inactive)
REMARK    1  A    between atoms: C_1  and  N_2
REMARK    2  A    between atoms: N_2  and  C_3
REMARK    3  A    between atoms: C_6  and  C_7
REMARK                            x       y       z     vdW  Elec       q    Type
REMARK                         _______ _______ _______ _____ _____    ______ ____
ROOT
ATOM      1  C   UNL     1       2.046  10.368  17.929  0.00  0.00    +0.000 C 
ATOM      2  N   UNL     1       1.837   9.263  18.847  0.00  0.00    +0.000 N 
ATOM      3  C   UNL     1       0.600   9.192  19.599  0.00  0.00    +0.000 C 
ATOM      4  C   UNL     1       2.456   8.061  18.537  0.00  0.00    +0.000 A 
ATOM      5  N   UNL     1       2.113   6.970  19.244  0.00  0.00    +0.000 NA
ATOM      6  C   UNL     1       2.710   5.765  19.016  0.00  0.00    +0.000 A 
ATOM      7  C   UNL     1       3.657   5.690  17.993  0.00  0.00    +0.000 A 
ATOM      8  S   UNL     1       4.568   4.368  17.363  0.00  0.00    +0.000 S 
ATOM      9  C   UNL     1       5.320   5.334  16.179  0.00  0.00    +0.000 A 
ATOM     10  C   UNL     1       4.894   6.638  16.244  0.00  0.00    +0.000 A 
ATOM     11  C   UNL     1       3.941   6.854  17.288  0.00  0.00    +0.000 A 
ATOM     12  N   UNL     1       3.362   8.043  17.560  0.00  0.00    +0.000 NA
ENDROOT
BRANCH   6  13
ATOM     13  C   UNL     1       2.259   4.623  19.820  0.00  0.00    +0.000 A 
ATOM     14  C   UNL     1       2.626   4.475  21.157  0.00  0.00    +0.000 A 
ATOM     15  N   UNL     1       2.173   3.472  21.956  0.00  0.00    +0.000 NA
ATOM     16  C   UNL     1       1.339   2.596  21.360  0.00  0.00    +0.000 A 
ATOM     17  C   UNL     1       0.987   2.706  20.028  0.00  0.00    +0.000 A 
ATOM     18  N   UNL     1       1.436   3.708  19.238  0.00  0.00    +0.000 NA
ENDBRANCH   6  13
TORSDOF 1
ENDMDL
