MODEL 1
REMARK VINA RESULT:      -9.3      0.000      0.000
REMARK  Name = 
REMARK  4 active torsions:
REMARK  status: ('A' for Active; 'I' for Inactive)
REMARK    1  A    between atoms: C_2  and  C_3
REMARK    2  A    between atoms: C_2  and  C_13
REMARK    3  A    between atoms: N_17  and  C_18
REMARK    4  A    between atoms: C_18  and  C_19
REMARK                            x       y       z     vdW  Elec       q    Type
REMARK                         _______ _______ _______ _____ _____    ______ ____
ROOT
ATOM      1  C   UNL     1       3.408   4.005  19.254  0.00  0.00    +0.000 C 
ATOM      2  C   UNL     1       2.460   2.892  19.713  0.00  0.00    +0.000 C 
ATOM      3  C   UNL     1       1.021   3.422  19.705  0.00  0.00    +0.000 C 
ATOM      4  C   UNL     1       0.874   4.746  20.474  0.00  0.00    +0.000 C 
ATOM      5  N   UNL     1       1.842   5.742  19.995  0.00  0.00    +0.000 NA
ATOM      6  C   UNL     1       3.217   5.230  20.152  0.00  0.00    +0.000 C 
ENDROOT
BRANCH   1   8
ATOM      7  O   UNL     1       5.242   2.580  19.827  0.00  0.00    +0.000 OA
ATOM      8  C   UNL     1       4.888   3.603  19.246  0.00  0.00    +0.000 C 
BRANCH   8   9
ATOM      9  C   UNL     1       5.888   4.497  18.515  0.00  0.00    +0.000 A 
ATOM     10  C   UNL     1       6.655   5.393  19.286  0.00  0.00    +0.000 A 
ATOM     11  C   UNL     1       7.499   6.325  18.691  0.00  0.00    +0.000 A 
ATOM     12  C   UNL     1       7.593   6.382  17.311  0.00  0.00    +0.000 A 
ATOM     13  C   UNL     1       6.883   5.487  16.505  0.00  0.00    +0.000 A 
ATOM     14  C   UNL     1       7.022   5.594  15.110  0.00  0.00    +0.000 A 
ATOM     15  C   UNL     1       6.371   4.715  14.252  0.00  0.00    +0.000 A 
ATOM     16  C   UNL     1       5.594   3.699  14.783  0.00  0.00    +0.000 A 
ATOM     17  C   UNL     1       5.432   3.594  16.172  0.00  0.00    +0.000 A 
ATOM     18  C   UNL     1       6.039   4.492  17.087  0.00  0.00    +0.000 A 
ENDBRANCH   8   9
ENDBRANCH   1   8
BRANCH   5  19
ATOM     19  C   UNL     1       1.732   7.054  20.646  0.00  0.00    +0.000 C 
BRANCH  19  20
ATOM     20  C   UNL     1       1.650   8.214  19.698  0.00  0.00    +0.000 A 
ATOM     21  C   UNL     1       2.060   8.219  18.372  0.00  0.00    +0.000 A 
ATOM     22  C   UNL     1       1.800   9.489  17.837  0.00  0.00    +0.000 A 
ATOM     23  C   UNL     1       1.216  10.227  18.836  0.00  0.00    +0.000 A 
ATOM     24  N   UNL     1       1.052   9.449  19.982  0.00  0.00    +0.000 N 
ATOM     25  C   UNL     1       0.382   9.842  21.165  0.00  0.00    +0.000 A 
ATOM     26  N   UNL     1       0.272   9.104  22.251  0.00  0.00    +0.000 NA
ATOM     27  C   UNL     1      -0.464   9.790  23.198  0.00  0.00    +0.000 A 
ATOM     28  C   UNL     1      -0.959  11.013  22.801  0.00  0.00    +0.000 A 
ATOM     29  S   UNL     1      -0.421  11.356  21.214  0.00  0.00    +0.000 S 
ENDBRANCH  19  20
ENDBRANCH   5  19
TORSDOF 4
ENDMDL
MODEL 2
REMARK VINA RESULT:      -8.6      0.851      2.170
REMARK  Name = 
REMARK  4 active torsions:
REMARK  status: ('A' for Active; 'I' for Inactive)
REMARK    1  A    between atoms: C_2  and  C_3
REMARK    2  A    between atoms: C_2  and  C_13
REMARK    3  A    between atoms: N_17  and  C_18
REMARK    4  A    between atoms: C_18  and  C_19
REMARK                            x       y       z     vdW  Elec       q    Type
REMARK                         _______ _______ _______ _____ _____    ______ ____
ROOT
ATOM      1  C   UNL     1       2.623   3.540  18.464  0.00  0.00    +0.000 C 
ATOM      2  C   UNL     1       1.897   2.490  19.311  0.00  0.00    +0.000 C 
ATOM      3  C   UNL     1       0.652   3.125  19.942  0.00  0.00    +0.000 C 
ATOM      4  C   UNL     1       0.968   4.437  20.680  0.00  0.00    +0.000 C 
ATOM      5  N   UNL     1       1.694   5.370  19.808  0.00  0.00    +0.000 NA
ATOM      6  C   UNL     1       2.949   4.753  19.339  0.00  0.00    +0.000 C 
ENDROOT
BRANCH   1   8
ATOM      7  O   UNL     1       4.206   1.840  17.889  0.00  0.00    +0.000 OA
ATOM      8  C   UNL     1       3.907   3.029  17.799  0.00  0.00    +0.000 C 
BRANCH   8   9
ATOM      9  C   UNL     1       4.788   4.022  17.044  0.00  0.00    +0.000 A 
ATOM     10  C   UNL     1       4.621   4.123  15.648  0.00  0.00    +0.000 A 
ATOM     11  C   UNL     1       5.463   4.910  14.870  0.00  0.00    +0.000 A 
ATOM     12  C   UNL     1       6.492   5.614  15.470  0.00  0.00    +0.000 A 
ATOM     13  C   UNL     1       6.673   5.578  16.857  0.00  0.00    +0.000 A 
ATOM     14  C   UNL     1       7.736   6.316  17.407  0.00  0.00    +0.000 A 
ATOM     15  C   UNL     1       7.952   6.353  18.780  0.00  0.00    +0.000 A 
ATOM     16  C   UNL     1       7.088   5.671  19.621  0.00  0.00    +0.000 A 
ATOM     17  C   UNL     1       6.037   4.915  19.082  0.00  0.00    +0.000 A 
ATOM     18  C   UNL     1       5.801   4.811  17.687  0.00  0.00    +0.000 A 
ENDBRANCH   8   9
ENDBRANCH   1   8
BRANCH   5  19
ATOM     19  C   UNL     1       1.988   6.670  20.425  0.00  0.00    +0.000 C 
BRANCH  19  20
ATOM     20  C   UNL     1       1.890   7.838  19.489  0.00  0.00    +0.000 A 
ATOM     21  C   UNL     1       2.260   7.852  18.153  0.00  0.00    +0.000 A 
ATOM     22  C   UNL     1       1.997   9.128  17.635  0.00  0.00    +0.000 A 
ATOM     23  C   UNL     1       1.450   9.863  18.657  0.00  0.00    +0.000 A 
ATOM     24  N   UNL     1       1.311   9.077  19.801  0.00  0.00    +0.000 N 
ATOM     25  C   UNL     1       0.680   9.466  21.007  0.00  0.00    +0.000 A 
ATOM     26  N   UNL     1       0.595   8.719  22.089  0.00  0.00    +0.000 NA
ATOM     27  C   UNL     1      -0.107   9.403  23.063  0.00  0.00    +0.000 A 
ATOM     28  C   UNL     1      -0.603  10.634  22.691  0.00  0.00    +0.000 A 
ATOM     29  S   UNL     1      -0.107  10.986  21.091  0.00  0.00    +0.000 S 
ENDBRANCH  19  20
ENDBRANCH   5  19
TORSDOF 4
ENDMDL
MODEL 3
REMARK VINA RESULT:      -8.2      3.059      5.147
REMARK  Name = 
REMARK  4 active torsions:
REMARK  status: ('A' for Active; 'I' for Inactive)
REMARK    1  A    between atoms: C_2  and  C_3
REMARK    2  A    between atoms: C_2  and  C_13
REMARK    3  A    between atoms: N_17  and  C_18
REMARK    4  A    between atoms: C_18  and  C_19
REMARK                            x       y       z     vdW  Elec       q    Type
REMARK                         _______ _______ _______ _____ _____    ______ ____
ROOT
ATOM      1  C   UNL     1       1.746   7.979  18.856  0.00  0.00    +0.000 C 
ATOM      2  C   UNL     1       1.997   7.701  20.342  0.00  0.00    +0.000 C 
ATOM      3  C   UNL     1       0.842   8.284  21.165  0.00  0.00    +0.000 C 
ATOM      4  C   UNL     1       0.562   9.758  20.828  0.00  0.00    +0.000 C 
ATOM      5  N   UNL     1       0.370   9.940  19.383  0.00  0.00    +0.000 NA
ATOM      6  C   UNL     1       1.568   9.485  18.651  0.00  0.00    +0.000 C 
ENDROOT
BRANCH   1   8
ATOM      7  O   UNL     1       3.098   8.064  16.883  0.00  0.00    +0.000 OA
ATOM      8  C   UNL     1       2.853   7.464  17.928  0.00  0.00    +0.000 C 
BRANCH   8   9
ATOM      9  C   UNL     1       3.620   6.205  18.327  0.00  0.00    +0.000 A 
ATOM     10  C   UNL     1       4.987   6.340  18.643  0.00  0.00    +0.000 A 
ATOM     11  C   UNL     1       5.787   5.231  18.898  0.00  0.00    +0.000 A 
ATOM     12  C   UNL     1       5.237   3.961  18.842  0.00  0.00    +0.000 A 
ATOM     13  C   UNL     1       3.877   3.779  18.572  0.00  0.00    +0.000 A 
ATOM     14  C   UNL     1       3.378   2.466  18.531  0.00  0.00    +0.000 A 
ATOM     15  C   UNL     1       2.030   2.215  18.302  0.00  0.00    +0.000 A 
ATOM     16  C   UNL     1       1.159   3.280  18.141  0.00  0.00    +0.000 A 
ATOM     17  C   UNL     1       1.648   4.593  18.160  0.00  0.00    +0.000 A 
ATOM     18  C   UNL     1       3.021   4.900  18.346  0.00  0.00    +0.000 A 
ENDBRANCH   8   9
ENDBRANCH   1   8
BRANCH   5  19
ATOM     19  C   UNL     1       0.047  11.316  18.984  0.00  0.00    +0.000 C 
BRANCH  19  20
ATOM     20  C   UNL     1      -1.223  11.852  19.577  0.00  0.00    +0.000 A 
ATOM     21  C   UNL     1      -1.337  12.569  20.759  0.00  0.00    +0.000 A 
ATOM     22  C   UNL     1      -2.689  12.893  20.948  0.00  0.00    +0.000 A 
ATOM     23  C   UNL     1      -3.371  12.389  19.868  0.00  0.00    +0.000 A 
ATOM     24  N   UNL     1      -2.485  11.794  18.970  0.00  0.00    +0.000 N 
ATOM     25  C   UNL     1      -2.818  11.274  17.696  0.00  0.00    +0.000 A 
ATOM     26  N   UNL     1      -1.971  10.681  16.879  0.00  0.00    +0.000 NA
ATOM     27  C   UNL     1      -2.629  10.324  15.718  0.00  0.00    +0.000 A 
ATOM     28  C   UNL     1      -3.951  10.706  15.637  0.00  0.00    +0.000 A 
ATOM     29  S   UNL     1      -4.412  11.470  17.097  0.00  0.00    +0.000 S 
ENDBRANCH  19  20
ENDBRANCH   5  19
TORSDOF 4
ENDMDL
MODEL 4
REMARK VINA RESULT:      -8.1      3.009      4.560
REMARK  Name = 
REMARK  4 active torsions:
REMARK  status: ('A' for Active; 'I' for Inactive)
REMARK    1  A    between atoms: C_2  and  C_3
REMARK    2  A    between atoms: C_2  and  C_13
REMARK    3  A    between atoms: N_17  and  C_18
REMARK    4  A    between atoms: C_18  and  C_19
REMARK                            x       y       z     vdW  Elec       q    Type
REMARK                         _______ _______ _______ _____ _____    ______ ____
ROOT
ATOM      1  C   UNL     1       1.805   7.925  18.766  0.00  0.00    +0.000 C 
ATOM      2  C   UNL     1       2.169   7.703  20.238  0.00  0.00    +0.000 C 
ATOM      3  C   UNL     1       0.989   8.131  21.118  0.00  0.00    +0.000 C 
ATOM      4  C   UNL     1       0.490   9.548  20.788  0.00  0.00    +0.000 C 
ATOM      5  N   UNL     1       0.200   9.683  19.355  0.00  0.00    +0.000 NA
ATOM      6  C   UNL     1       1.409   9.390  18.563  0.00  0.00    +0.000 C 
ENDROOT
BRANCH   1   8
ATOM      7  O   UNL     1       3.135   8.273  16.807  0.00  0.00    +0.000 OA
ATOM      8  C   UNL     1       2.924   7.556  17.783  0.00  0.00    +0.000 C 
BRANCH   8   9
ATOM      9  C   UNL     1       3.744   6.295  18.043  0.00  0.00    +0.000 A 
ATOM     10  C   UNL     1       5.137   6.437  18.200  0.00  0.00    +0.000 A 
ATOM     11  C   UNL     1       5.972   5.330  18.318  0.00  0.00    +0.000 A 
ATOM     12  C   UNL     1       5.431   4.056  18.282  0.00  0.00    +0.000 A 
ATOM     13  C   UNL     1       4.050   3.866  18.169  0.00  0.00    +0.000 A 
ATOM     14  C   UNL     1       3.561   2.548  18.139  0.00  0.00    +0.000 A 
ATOM     15  C   UNL     1       2.198   2.287  18.063  0.00  0.00    +0.000 A 
ATOM     16  C   UNL     1       1.305   3.346  18.044  0.00  0.00    +0.000 A 
ATOM     17  C   UNL     1       1.781   4.664  18.052  0.00  0.00    +0.000 A 
ATOM     18  C   UNL     1       3.164   4.982  18.086  0.00  0.00    +0.000 A 
ENDBRANCH   8   9
ENDBRANCH   1   8
BRANCH   5  19
ATOM     19  C   UNL     1      -0.332  10.997  18.967  0.00  0.00    +0.000 C 
BRANCH  19  20
ATOM     20  C   UNL     1      -1.666  10.949  18.282  0.00  0.00    +0.000 A 
ATOM     21  C   UNL     1      -1.992  10.182  17.173  0.00  0.00    +0.000 A 
ATOM     22  C   UNL     1      -3.338  10.416  16.856  0.00  0.00    +0.000 A 
ATOM     23  C   UNL     1      -3.815  11.302  17.790  0.00  0.00    +0.000 A 
ATOM     24  N   UNL     1      -2.824  11.605  18.724  0.00  0.00    +0.000 N 
ATOM     25  C   UNL     1      -2.991  12.390  19.890  0.00  0.00    +0.000 A 
ATOM     26  N   UNL     1      -2.031  12.694  20.738  0.00  0.00    +0.000 NA
ATOM     27  C   UNL     1      -2.554  13.450  21.769  0.00  0.00    +0.000 A 
ATOM     28  C   UNL     1      -3.916  13.658  21.729  0.00  0.00    +0.000 A 
ATOM     29  S   UNL     1      -4.556  12.951  20.308  0.00  0.00    +0.000 S 
ENDBRANCH  19  20
ENDBRANCH   5  19
TORSDOF 4
ENDMDL
MODEL 5
REMARK VINA RESULT:      -8.1      3.243      4.779
REMARK  Name = 
REMARK  4 active torsions:
REMARK  status: ('A' for Active; 'I' for Inactive)
REMARK    1  A    between atoms: C_2  and  C_3
REMARK    2  A    between atoms: C_2  and  C_13
REMARK    3  A    between atoms: N_17  and  C_18
REMARK    4  A    between atoms: C_18  and  C_19
REMARK                            x       y       z     vdW  Elec       q    Type
REMARK                         _______ _______ _______ _____ _____    ______ ____
ROOT
ATOM      1  C   UNL     1       1.449   8.239  18.907  0.00  0.00    +0.000 C 
ATOM      2  C   UNL     1       1.848   8.069  20.376  0.00  0.00    +0.000 C 
ATOM      3  C   UNL     1       0.671   8.478  21.268  0.00  0.00    +0.000 C 
ATOM      4  C   UNL     1       0.115   9.868  20.912  0.00  0.00    +0.000 C 
ATOM      5  N   UNL     1      -0.208   9.954  19.481  0.00  0.00    +0.000 NA
ATOM      6  C   UNL     1       0.996   9.682  18.673  0.00  0.00    +0.000 C 
ENDROOT
BRANCH   1   8
ATOM      7  O   UNL     1       2.988   8.745  17.146  0.00  0.00    +0.000 OA
ATOM      8  C   UNL     1       2.560   7.884  17.911  0.00  0.00    +0.000 C 
BRANCH   8   9
ATOM      9  C   UNL     1       3.102   6.456  17.893  0.00  0.00    +0.000 A 
ATOM     10  C   UNL     1       2.188   5.402  18.093  0.00  0.00    +0.000 A 
ATOM     11  C   UNL     1       2.614   4.083  18.212  0.00  0.00    +0.000 A 
ATOM     12  C   UNL     1       3.964   3.789  18.136  0.00  0.00    +0.000 A 
ATOM     13  C   UNL     1       4.906   4.796  17.899  0.00  0.00    +0.000 A 
ATOM     14  C   UNL     1       6.262   4.434  17.830  0.00  0.00    +0.000 A 
ATOM     15  C   UNL     1       7.247   5.378  17.563  0.00  0.00    +0.000 A 
ATOM     16  C   UNL     1       6.881   6.693  17.333  0.00  0.00    +0.000 A 
ATOM     17  C   UNL     1       5.533   7.071  17.419  0.00  0.00    +0.000 A 
ATOM     18  C   UNL     1       4.496   6.153  17.731  0.00  0.00    +0.000 A 
ENDBRANCH   8   9
ENDBRANCH   1   8
BRANCH   5  19
ATOM     19  C   UNL     1      -0.794  11.237  19.070  0.00  0.00    +0.000 C 
BRANCH  19  20
ATOM     20  C   UNL     1      -2.027  11.113  18.224  0.00  0.00    +0.000 A 
ATOM     21  C   UNL     1      -2.142  10.396  17.042  0.00  0.00    +0.000 A 
ATOM     22  C   UNL     1      -3.458  10.527  16.575  0.00  0.00    +0.000 A 
ATOM     23  C   UNL     1      -4.127  11.301  17.490  0.00  0.00    +0.000 A 
ATOM     24  N   UNL     1      -3.288  11.629  18.555  0.00  0.00    +0.000 N 
ATOM     25  C   UNL     1      -3.668  12.315  19.733  0.00  0.00    +0.000 A 
ATOM     26  N   UNL     1      -2.849  12.649  20.709  0.00  0.00    +0.000 NA
ATOM     27  C   UNL     1      -3.562  13.282  21.709  0.00  0.00    +0.000 A 
ATOM     28  C   UNL     1      -4.923  13.368  21.511  0.00  0.00    +0.000 A 
ATOM     29  S   UNL     1      -5.319  12.702  19.985  0.00  0.00    +0.000 S 
ENDBRANCH  19  20
ENDBRANCH   5  19
TORSDOF 4
ENDMDL
MODEL 6
REMARK VINA RESULT:      -8.0      3.178      8.082
REMARK  Name = 
REMARK  4 active torsions:
REMARK  status: ('A' for Active; 'I' for Inactive)
REMARK    1  A    between atoms: C_2  and  C_3
REMARK    2  A    between atoms: C_2  and  C_13
REMARK    3  A    between atoms: N_17  and  C_18
REMARK    4  A    between atoms: C_18  and  C_19
REMARK                            x       y       z     vdW  Elec       q    Type
REMARK                         _______ _______ _______ _____ _____    ______ ____
ROOT
ATOM      1  C   UNL     1       2.371   6.443  20.075  0.00  0.00    +0.000 C 
ATOM      2  C   UNL     1       1.219   5.519  20.482  0.00  0.00    +0.000 C 
ATOM      3  C   UNL     1       1.794   4.192  20.992  0.00  0.00    +0.000 C 
ATOM      4  C   UNL     1       2.800   3.568  20.008  0.00  0.00    +0.000 C 
ATOM      5  N   UNL     1       3.847   4.532  19.645  0.00  0.00    +0.000 NA
ATOM      6  C   UNL     1       3.242   5.732  19.037  0.00  0.00    +0.000 C 
ENDROOT
BRANCH   1   8
ATOM      7  O   UNL     1       2.156   8.087  18.349  0.00  0.00    +0.000 OA
ATOM      8  C   UNL     1       1.919   7.800  19.521  0.00  0.00    +0.000 C 
BRANCH   8   9
ATOM      9  C   UNL     1       1.190   8.767  20.451  0.00  0.00    +0.000 A 
ATOM     10  C   UNL     1       1.383   8.618  21.839  0.00  0.00    +0.000 A 
ATOM     11  C   UNL     1       0.665   9.375  22.758  0.00  0.00    +0.000 A 
ATOM     12  C   UNL     1      -0.265  10.298  22.309  0.00  0.00    +0.000 A 
ATOM     13  C   UNL     1      -0.463  10.511  20.941  0.00  0.00    +0.000 A 
ATOM     14  C   UNL     1      -1.419  11.463  20.548  0.00  0.00    +0.000 A 
ATOM     15  C   UNL     1      -1.642  11.748  19.206  0.00  0.00    +0.000 A 
ATOM     16  C   UNL     1      -0.887  11.102  18.241  0.00  0.00    +0.000 A 
ATOM     17  C   UNL     1       0.055  10.135  18.619  0.00  0.00    +0.000 A 
ATOM     18  C   UNL     1       0.289   9.778  19.973  0.00  0.00    +0.000 A 
ENDBRANCH   8   9
ENDBRANCH   1   8
BRANCH   5  19
ATOM     19  C   UNL     1       4.877   3.994  18.746  0.00  0.00    +0.000 C 
BRANCH  19  20
ATOM     20  C   UNL     1       6.052   4.903  18.534  0.00  0.00    +0.000 A 
ATOM     21  C   UNL     1       6.812   5.506  19.526  0.00  0.00    +0.000 A 
ATOM     22  C   UNL     1       7.819   6.263  18.910  0.00  0.00    +0.000 A 
ATOM     23  C   UNL     1       7.671   6.090  17.556  0.00  0.00    +0.000 A 
ATOM     24  N   UNL     1       6.626   5.204  17.291  0.00  0.00    +0.000 N 
ATOM     25  C   UNL     1       6.263   4.703  16.018  0.00  0.00    +0.000 A 
ATOM     26  N   UNL     1       5.247   3.897  15.787  0.00  0.00    +0.000 NA
ATOM     27  C   UNL     1       5.204   3.591  14.440  0.00  0.00    +0.000 A 
ATOM     28  C   UNL     1       6.222   4.115  13.674  0.00  0.00    +0.000 A 
ATOM     29  S   UNL     1       7.228   5.090  14.656  0.00  0.00    +0.000 S 
ENDBRANCH  19  20
ENDBRANCH   5  19
TORSDOF 4
ENDMDL
MODEL 7
REMARK VINA RESULT:      -8.0      3.180      5.123
REMARK  Name = 
REMARK  4 active torsions:
REMARK  status: ('A' for Active; 'I' for Inactive)
REMARK    1  A    between atoms: C_2  and  C_3
REMARK    2  A    between atoms: C_2  and  C_13
REMARK    3  A    between atoms: N_17  and  C_18
REMARK    4  A    between atoms: C_18  and  C_19
REMARK                            x       y       z     vdW  Elec       q    Type
REMARK                         _______ _______ _______ _____ _____    ______ ____
ROOT
ATOM      1  C   UNL     1       1.620   8.109  18.985  0.00  0.00    +0.000 C 
ATOM      2  C   UNL     1       1.813   7.833  20.480  0.00  0.00    +0.000 C 
ATOM      3  C   UNL     1       0.603   8.374  21.251  0.00  0.00    +0.000 C 
ATOM      4  C   UNL     1       0.288   9.839  20.905  0.00  0.00    +0.000 C 
ATOM      5  N   UNL     1       0.156  10.020  19.453  0.00  0.00    +0.000 NA
ATOM      6  C   UNL     1       1.400   9.609  18.776  0.00  0.00    +0.000 C 
ENDROOT
BRANCH   1   8
ATOM      7  O   UNL     1       3.607   8.452  17.695  0.00  0.00    +0.000 OA
ATOM      8  C   UNL     1       2.785   7.635  18.107  0.00  0.00    +0.000 C 
BRANCH   8   9
ATOM      9  C   UNL     1       2.886   6.152  17.759  0.00  0.00    +0.000 A 
ATOM     10  C   UNL     1       1.817   5.313  18.131  0.00  0.00    +0.000 A 
ATOM     11  C   UNL     1       1.881   3.934  17.962  0.00  0.00    +0.000 A 
ATOM     12  C   UNL     1       3.018   3.362  17.418  0.00  0.00    +0.000 A 
ATOM     13  C   UNL     1       4.090   4.156  16.996  0.00  0.00    +0.000 A 
ATOM     14  C   UNL     1       5.216   3.517  16.450  0.00  0.00    +0.000 A 
ATOM     15  C   UNL     1       6.301   4.247  15.980  0.00  0.00    +0.000 A 
ATOM     16  C   UNL     1       6.259   5.630  16.026  0.00  0.00    +0.000 A 
ATOM     17  C   UNL     1       5.150   6.279  16.587  0.00  0.00    +0.000 A 
ATOM     18  C   UNL     1       4.037   5.578  17.119  0.00  0.00    +0.000 A 
ENDBRANCH   8   9
ENDBRANCH   1   8
BRANCH   5  19
ATOM     19  C   UNL     1      -0.196  11.386  19.044  0.00  0.00    +0.000 C 
BRANCH  19  20
ATOM     20  C   UNL     1      -1.523  11.865  19.555  0.00  0.00    +0.000 A 
ATOM     21  C   UNL     1      -1.744  12.569  20.730  0.00  0.00    +0.000 A 
ATOM     22  C   UNL     1      -3.117  12.835  20.832  0.00  0.00    +0.000 A 
ATOM     23  C   UNL     1      -3.706  12.311  19.708  0.00  0.00    +0.000 A 
ATOM     24  N   UNL     1      -2.740  11.758  18.866  0.00  0.00    +0.000 N 
ATOM     25  C   UNL     1      -2.967  11.234  17.571  0.00  0.00    +0.000 A 
ATOM     26  N   UNL     1      -2.045  10.681  16.810  0.00  0.00    +0.000 NA
ATOM     27  C   UNL     1      -2.611  10.305  15.607  0.00  0.00    +0.000 A 
ATOM     28  C   UNL     1      -3.939  10.632  15.441  0.00  0.00    +0.000 A 
ATOM     29  S   UNL     1      -4.526  11.367  16.871  0.00  0.00    +0.000 S 
ENDBRANCH  19  20
ENDBRANCH   5  19
TORSDOF 4
ENDMDL
MODEL 8
REMARK VINA RESULT:      -7.9      3.790      8.936
REMARK  Name = 
REMARK  4 active torsions:
REMARK  status: ('A' for Active; 'I' for Inactive)
REMARK    1  A    between atoms: C_2  and  C_3
REMARK    2  A    between atoms: C_2  and  C_13
REMARK    3  A    between atoms: N_17  and  C_18
REMARK    4  A    between atoms: C_18  and  C_19
REMARK                            x       y       z     vdW  Elec       q    Type
REMARK                         _______ _______ _______ _____ _____    ______ ____
ROOT
ATOM      1  C   UNL     1       1.280   9.926  19.323  0.00  0.00    +0.000 C 
ATOM      2  C   UNL     1       0.623   9.315  20.565  0.00  0.00    +0.000 C 
ATOM      3  C   UNL     1       1.486   8.154  21.071  0.00  0.00    +0.000 C 
ATOM      4  C   UNL     1       1.826   7.143  19.962  0.00  0.00    +0.000 C 
ATOM      5  N   UNL     1       2.417   7.817  18.798  0.00  0.00    +0.000 NA
ATOM      6  C   UNL     1       1.484   8.832  18.273  0.00  0.00    +0.000 C 
ENDROOT
BRANCH   1   8
ATOM      7  O   UNL     1       1.069  12.140  18.439  0.00  0.00    +0.000 OA
ATOM      8  C   UNL     1       0.492  11.088  18.705  0.00  0.00    +0.000 C 
BRANCH   8   9
ATOM      9  C   UNL     1      -1.001  10.905  18.443  0.00  0.00    +0.000 A 
ATOM     10  C   UNL     1      -1.386  10.024  17.411  0.00  0.00    +0.000 A 
ATOM     11  C   UNL     1      -2.716   9.892  17.026  0.00  0.00    +0.000 A 
ATOM     12  C   UNL     1      -3.692  10.639  17.664  0.00  0.00    +0.000 A 
ATOM     13  C   UNL     1      -3.365  11.495  18.720  0.00  0.00    +0.000 A 
ATOM     14  C   UNL     1      -4.401  12.225  19.329  0.00  0.00    +0.000 A 
ATOM     15  C   UNL     1      -4.151  13.069  20.405  0.00  0.00    +0.000 A 
ATOM     16  C   UNL     1      -2.863  13.169  20.904  0.00  0.00    +0.000 A 
ATOM     17  C   UNL     1      -1.818  12.462  20.293  0.00  0.00    +0.000 A 
ATOM     18  C   UNL     1      -2.014  11.622  19.165  0.00  0.00    +0.000 A 
ENDBRANCH   8   9
ENDBRANCH   1   8
BRANCH   5  19
ATOM     19  C   UNL     1       2.817   6.911  17.713  0.00  0.00    +0.000 C 
BRANCH  19  20
ATOM     20  C   UNL     1       4.094   6.165  17.967  0.00  0.00    +0.000 A 
ATOM     21  C   UNL     1       5.370   6.710  17.997  0.00  0.00    +0.000 A 
ATOM     22  C   UNL     1       6.281   5.681  18.277  0.00  0.00    +0.000 A 
ATOM     23  C   UNL     1       5.544   4.533  18.435  0.00  0.00    +0.000 A 
ATOM     24  N   UNL     1       4.182   4.809  18.311  0.00  0.00    +0.000 N 
ATOM     25  C   UNL     1       3.125   3.894  18.529  0.00  0.00    +0.000 A 
ATOM     26  N   UNL     1       1.846   4.167  18.369  0.00  0.00    +0.000 NA
ATOM     27  C   UNL     1       1.097   3.052  18.693  0.00  0.00    +0.000 A 
ATOM     28  C   UNL     1       1.807   1.966  19.156  0.00  0.00    +0.000 A 
ATOM     29  S   UNL     1       3.480   2.322  19.112  0.00  0.00    +0.000 S 
ENDBRANCH  19  20
ENDBRANCH   5  19
TORSDOF 4
ENDMDL
MODEL 9
REMARK VINA RESULT:      -7.8      3.322      5.213
REMARK  Name = 
REMARK  4 active torsions:
REMARK  status: ('A' for Active; 'I' for Inactive)
REMARK    1  A    between atoms: C_2  and  C_3
REMARK    2  A    between atoms: C_2  and  C_13
REMARK    3  A    between atoms: N_17  and  C_18
REMARK    4  A    between atoms: C_18  and  C_19
REMARK                            x       y       z     vdW  Elec       q    Type
REMARK                         _______ _______ _______ _____ _____    ______ ____
ROOT
ATOM      1  C   UNL     1       1.017   8.396  20.187  0.00  0.00    +0.000 C 
ATOM      2  C   UNL     1       1.393   8.680  21.645  0.00  0.00    +0.000 C 
ATOM      3  C   UNL     1       0.239   9.424  22.327  0.00  0.00    +0.000 C 
ATOM      4  C   UNL     1      -0.219  10.659  21.531  0.00  0.00    +0.000 C 
ATOM      5  N   UNL     1      -0.524  10.304  20.139  0.00  0.00    +0.000 NA
ATOM      6  C   UNL     1       0.665   9.715  19.494  0.00  0.00    +0.000 C 
ENDROOT
BRANCH   1   8
ATOM      7  O   UNL     1       2.817   8.314  18.612  0.00  0.00    +0.000 OA
ATOM      8  C   UNL     1       2.110   7.675  19.388  0.00  0.00    +0.000 C 
BRANCH   8   9
ATOM      9  C   UNL     1       2.283   6.169  19.575  0.00  0.00    +0.000 A 
ATOM     10  C   UNL     1       1.654   5.566  20.683  0.00  0.00    +0.000 A 
ATOM     11  C   UNL     1       1.859   4.227  20.995  0.00  0.00    +0.000 A 
ATOM     12  C   UNL     1       2.700   3.460  20.207  0.00  0.00    +0.000 A 
ATOM     13  C   UNL     1       3.315   4.002  19.074  0.00  0.00    +0.000 A 
ATOM     14  C   UNL     1       4.156   3.172  18.313  0.00  0.00    +0.000 A 
ATOM     15  C   UNL     1       4.772   3.638  17.157  0.00  0.00    +0.000 A 
ATOM     16  C   UNL     1       4.529   4.933  16.733  0.00  0.00    +0.000 A 
ATOM     17  C   UNL     1       3.708   5.777  17.494  0.00  0.00    +0.000 A 
ATOM     18  C   UNL     1       3.092   5.364  18.704  0.00  0.00    +0.000 A 
ENDBRANCH   8   9
ENDBRANCH   1   8
BRANCH   5  19
ATOM     19  C   UNL     1      -1.020  11.422  19.325  0.00  0.00    +0.000 C 
BRANCH  19  20
ATOM     20  C   UNL     1      -2.094  11.049  18.346  0.00  0.00    +0.000 A 
ATOM     21  C   UNL     1      -1.960  10.178  17.274  0.00  0.00    +0.000 A 
ATOM     22  C   UNL     1      -3.198  10.094  16.619  0.00  0.00    +0.000 A 
ATOM     23  C   UNL     1      -4.068  10.895  17.315  0.00  0.00    +0.000 A 
ATOM     24  N   UNL     1      -3.434  11.452  18.426  0.00  0.00    +0.000 N 
ATOM     25  C   UNL     1      -4.052  12.233  19.432  0.00  0.00    +0.000 A 
ATOM     26  N   UNL     1      -3.425  12.781  20.453  0.00  0.00    +0.000 NA
ATOM     27  C   UNL     1      -4.338  13.449  21.245  0.00  0.00    +0.000 A 
ATOM     28  C   UNL     1      -5.656  13.349  20.855  0.00  0.00    +0.000 A 
ATOM     29  S   UNL     1      -5.752  12.453  19.400  0.00  0.00    +0.000 S 
ENDBRANCH  19  20
ENDBRANCH   5  19
TORSDOF 4
ENDMDL
