MODEL 1
REMARK VINA RESULT:      -6.4      0.000      0.000
REMARK  Name = 
REMARK  6 active torsions:
REMARK  status: ('A' for Active; 'I' for Inactive)
REMARK    1  A    between atoms: C_1  and  C_2
REMARK    2  A    between atoms: C_2  and  N_3
REMARK    3  A    between atoms: N_3  and  S_4
REMARK    4  A    between atoms: S_4  and  C_7
REMARK    5  A    between atoms: N_10  and  C_11
REMARK    6  A    between atoms: C_11  and  C_12
REMARK                            x       y       z     vdW  Elec       q    Type
REMARK                         _______ _______ _______ _____ _____    ______ ____
ROOT
ATOM      1  C   UNL     1       5.854   6.130  18.056  0.00  0.00    +0.000 C 
ATOM      2  C   UNL     1       5.633   4.951  18.985  0.00  0.00    +0.000 C 
ATOM      3  C   UNL     1       4.461   4.228  18.347  0.00  0.00    +0.000 C 
ATOM      4  N   UNL     1       3.568   5.304  17.874  0.00  0.00    +0.000 NA
ATOM      5  C   UNL     1       4.491   6.368  17.401  0.00  0.00    +0.000 C 
ENDROOT
BRANCH   1   6
ATOM      6  S   UNL     1       7.113   5.834  16.813  0.00  0.00    +0.000 S 
ATOM      7  O   UNL     1       7.793   4.604  17.145  0.00  0.00    +0.000 OA
ATOM      8  O   UNL     1       7.837   7.049  16.517  0.00  0.00    +0.000 OA
BRANCH   6   9
ATOM      9  N   UNL     1       6.158   5.465  15.442  0.00  0.00    +0.000 NA
ATOM     10  H   UNL     1       5.200   5.792  15.588  0.00  0.00    +0.000 HD
BRANCH   9  12
ATOM     11  C   UNL     1       6.160   3.881  13.572  0.00  0.00    +0.000 C 
ATOM     12  C   UNL     1       6.154   4.022  15.085  0.00  0.00    +0.000 C 
ENDBRANCH   9  12
ENDBRANCH   6   9
ENDBRANCH   1   6
BRANCH   4  13
ATOM     13  C   UNL     1       2.655   5.750  18.946  0.00  0.00    +0.000 C 
BRANCH  13  14
ATOM     14  C   UNL     1       2.082   4.589  19.700  0.00  0.00    +0.000 A 
ATOM     15  C   UNL     1       2.272   4.262  21.034  0.00  0.00    +0.000 A 
ATOM     16  S   UNL     1       1.406   2.815  21.337  0.00  0.00    +0.000 S 
ATOM     17  N   UNL     1       0.827   2.720  19.772  0.00  0.00    +0.000 NA
ATOM     18  N   UNL     1       1.252   3.710  19.005  0.00  0.00    +0.000 NA
ENDBRANCH  13  14
ENDBRANCH   4  13
TORSDOF 5
ENDMDL
MODEL 2
REMARK VINA RESULT:      -6.4      1.628      2.693
REMARK  Name = 
REMARK  6 active torsions:
REMARK  status: ('A' for Active; 'I' for Inactive)
REMARK    1  A    between atoms: C_1  and  C_2
REMARK    2  A    between atoms: C_2  and  N_3
REMARK    3  A    between atoms: N_3  and  S_4
REMARK    4  A    between atoms: S_4  and  C_7
REMARK    5  A    between atoms: N_10  and  C_11
REMARK    6  A    between atoms: C_11  and  C_12
REMARK                            x       y       z     vdW  Elec       q    Type
REMARK                         _______ _______ _______ _____ _____    ______ ____
ROOT
ATOM      1  C   UNL     1       5.434   5.079  16.694  0.00  0.00    +0.000 C 
ATOM      2  C   UNL     1       4.889   6.407  16.205  0.00  0.00    +0.000 C 
ATOM      3  C   UNL     1       4.425   7.078  17.484  0.00  0.00    +0.000 C 
ATOM      4  N   UNL     1       3.827   5.991  18.283  0.00  0.00    +0.000 NA
ATOM      5  C   UNL     1       4.686   4.812  18.003  0.00  0.00    +0.000 C 
ENDROOT
BRANCH   1   6
ATOM      6  S   UNL     1       7.208   5.091  16.967  0.00  0.00    +0.000 S 
ATOM      7  O   UNL     1       7.843   4.483  15.821  0.00  0.00    +0.000 OA
ATOM      8  O   UNL     1       7.521   4.684  18.317  0.00  0.00    +0.000 OA
BRANCH   6   9
ATOM      9  N   UNL     1       7.559   6.761  16.844  0.00  0.00    +0.000 NA
ATOM     10  H   UNL     1       8.292   6.912  16.148  0.00  0.00    +0.000 HD
BRANCH   9  12
ATOM     11  C   UNL     1       8.148   8.879  17.927  0.00  0.00    +0.000 C 
ATOM     12  C   UNL     1       7.948   7.387  18.136  0.00  0.00    +0.000 C 
ENDBRANCH   9  12
ENDBRANCH   6   9
ENDBRANCH   1   6
BRANCH   4  13
ATOM     13  C   UNL     1       2.408   5.783  17.925  0.00  0.00    +0.000 C 
BRANCH  13  14
ATOM     14  C   UNL     1       1.847   4.562  18.588  0.00  0.00    +0.000 A 
ATOM     15  C   UNL     1       1.766   4.291  19.946  0.00  0.00    +0.000 A 
ATOM     16  S   UNL     1       1.069   2.735  20.118  0.00  0.00    +0.000 S 
ATOM     17  N   UNL     1       0.889   2.527  18.470  0.00  0.00    +0.000 NA
ATOM     18  N   UNL     1       1.335   3.556  17.769  0.00  0.00    +0.000 NA
ENDBRANCH  13  14
ENDBRANCH   4  13
TORSDOF 5
ENDMDL
MODEL 3
REMARK VINA RESULT:      -6.4      1.753      2.738
REMARK  Name = 
REMARK  6 active torsions:
REMARK  status: ('A' for Active; 'I' for Inactive)
REMARK    1  A    between atoms: C_1  and  C_2
REMARK    2  A    between atoms: C_2  and  N_3
REMARK    3  A    between atoms: N_3  and  S_4
REMARK    4  A    between atoms: S_4  and  C_7
REMARK    5  A    between atoms: N_10  and  C_11
REMARK    6  A    between atoms: C_11  and  C_12
REMARK                            x       y       z     vdW  Elec       q    Type
REMARK                         _______ _______ _______ _____ _____    ______ ____
ROOT
ATOM      1  C   UNL     1       5.339   5.036  16.276  0.00  0.00    +0.000 C 
ATOM      2  C   UNL     1       4.663   5.735  17.441  0.00  0.00    +0.000 C 
ATOM      3  C   UNL     1       4.713   4.691  18.541  0.00  0.00    +0.000 C 
ATOM      4  N   UNL     1       4.445   3.411  17.856  0.00  0.00    +0.000 NA
ATOM      5  C   UNL     1       5.129   3.544  16.544  0.00  0.00    +0.000 C 
ENDROOT
BRANCH   1   6
ATOM      6  S   UNL     1       7.087   5.416  16.131  0.00  0.00    +0.000 S 
ATOM      7  O   UNL     1       7.415   5.497  14.728  0.00  0.00    +0.000 OA
ATOM      8  O   UNL     1       7.862   4.616  17.051  0.00  0.00    +0.000 OA
BRANCH   6   9
ATOM      9  N   UNL     1       7.132   7.030  16.699  0.00  0.00    +0.000 NA
ATOM     10  H   UNL     1       7.560   7.634  15.995  0.00  0.00    +0.000 HD
BRANCH   9  12
ATOM     11  C   UNL     1       8.209   8.648  18.192  0.00  0.00    +0.000 C 
ATOM     12  C   UNL     1       7.834   7.188  18.000  0.00  0.00    +0.000 C 
ENDBRANCH   9  12
ENDBRANCH   6   9
ENDBRANCH   1   6
BRANCH   4  13
ATOM     13  C   UNL     1       2.994   3.160  17.741  0.00  0.00    +0.000 C 
BRANCH  13  14
ATOM     14  C   UNL     1       2.322   3.192  19.080  0.00  0.00    +0.000 A 
ATOM     15  C   UNL     1       2.658   2.475  20.219  0.00  0.00    +0.000 A 
ATOM     16  S   UNL     1       1.524   2.883  21.437  0.00  0.00    +0.000 S 
ATOM     17  N   UNL     1       0.709   3.959  20.452  0.00  0.00    +0.000 NA
ATOM     18  N   UNL     1       1.223   4.035  19.236  0.00  0.00    +0.000 NA
ENDBRANCH  13  14
ENDBRANCH   4  13
TORSDOF 5
ENDMDL
MODEL 4
REMARK VINA RESULT:      -6.3      1.120      1.598
REMARK  Name = 
REMARK  6 active torsions:
REMARK  status: ('A' for Active; 'I' for Inactive)
REMARK    1  A    between atoms: C_1  and  C_2
REMARK    2  A    between atoms: C_2  and  N_3
REMARK    3  A    between atoms: N_3  and  S_4
REMARK    4  A    between atoms: S_4  and  C_7
REMARK    5  A    between atoms: N_10  and  C_11
REMARK    6  A    between atoms: C_11  and  C_12
REMARK                            x       y       z     vdW  Elec       q    Type
REMARK                         _______ _______ _______ _____ _____    ______ ____
ROOT
ATOM      1  C   UNL     1       5.295   5.483  16.123  0.00  0.00    +0.000 C 
ATOM      2  C   UNL     1       4.727   6.889  16.178  0.00  0.00    +0.000 C 
ATOM      3  C   UNL     1       4.468   7.096  17.658  0.00  0.00    +0.000 C 
ATOM      4  N   UNL     1       3.956   5.796  18.136  0.00  0.00    +0.000 NA
ATOM      5  C   UNL     1       4.731   4.789  17.366  0.00  0.00    +0.000 C 
ENDROOT
BRANCH   1   6
ATOM      6  S   UNL     1       7.089   5.436  16.128  0.00  0.00    +0.000 S 
ATOM      7  O   UNL     1       7.507   4.290  16.901  0.00  0.00    +0.000 OA
ATOM      8  O   UNL     1       7.635   6.753  16.361  0.00  0.00    +0.000 OA
BRANCH   6   9
ATOM      9  N   UNL     1       7.422   5.029  14.500  0.00  0.00    +0.000 NA
ATOM     10  H   UNL     1       7.439   5.874  13.926  0.00  0.00    +0.000 HD
BRANCH   9  12
ATOM     11  C   UNL     1       6.742   3.898  12.434  0.00  0.00    +0.000 C 
ATOM     12  C   UNL     1       6.471   4.042  13.922  0.00  0.00    +0.000 C 
ENDBRANCH   9  12
ENDBRANCH   6   9
ENDBRANCH   1   6
BRANCH   4  13
ATOM     13  C   UNL     1       2.496   5.692  17.937  0.00  0.00    +0.000 C 
BRANCH  13  14
ATOM     14  C   UNL     1       1.933   4.480  18.614  0.00  0.00    +0.000 A 
ATOM     15  C   UNL     1       1.952   4.175  19.968  0.00  0.00    +0.000 A 
ATOM     16  S   UNL     1       1.198   2.649  20.161  0.00  0.00    +0.000 S 
ATOM     17  N   UNL     1       0.871   2.496  18.529  0.00  0.00    +0.000 NA
ATOM     18  N   UNL     1       1.307   3.522  17.819  0.00  0.00    +0.000 NA
ENDBRANCH  13  14
ENDBRANCH   4  13
TORSDOF 5
ENDMDL
MODEL 5
REMARK VINA RESULT:      -6.3      1.561      1.965
REMARK  Name = 
REMARK  6 active torsions:
REMARK  status: ('A' for Active; 'I' for Inactive)
REMARK    1  A    between atoms: C_1  and  C_2
REMARK    2  A    between atoms: C_2  and  N_3
REMARK    3  A    between atoms: N_3  and  S_4
REMARK    4  A    between atoms: S_4  and  C_7
REMARK    5  A    between atoms: N_10  and  C_11
REMARK    6  A    between atoms: C_11  and  C_12
REMARK                            x       y       z     vdW  Elec       q    Type
REMARK                         _______ _______ _______ _____ _____    ______ ____
ROOT
ATOM      1  C   UNL     1       5.205   5.200  15.613  0.00  0.00    +0.000 C 
ATOM      2  C   UNL     1       5.293   6.481  16.423  0.00  0.00    +0.000 C 
ATOM      3  C   UNL     1       5.471   5.976  17.843  0.00  0.00    +0.000 C 
ATOM      4  N   UNL     1       4.586   4.798  17.936  0.00  0.00    +0.000 NA
ATOM      5  C   UNL     1       4.690   4.151  16.602  0.00  0.00    +0.000 C 
ENDROOT
BRANCH   1   6
ATOM      6  S   UNL     1       6.774   4.692  14.907  0.00  0.00    +0.000 S 
ATOM      7  O   UNL     1       7.608   4.194  15.975  0.00  0.00    +0.000 OA
ATOM      8  O   UNL     1       7.252   5.673  13.960  0.00  0.00    +0.000 OA
BRANCH   6   9
ATOM      9  N   UNL     1       6.311   3.308  14.013  0.00  0.00    +0.000 NA
ATOM     10  H   UNL     1       6.875   2.505  14.298  0.00  0.00    +0.000 HD
BRANCH   9  12
ATOM     11  C   UNL     1       5.036   3.203  11.922  0.00  0.00    +0.000 C 
ATOM     12  C   UNL     1       6.394   3.490  12.540  0.00  0.00    +0.000 C 
ENDBRANCH   9  12
ENDBRANCH   6   9
ENDBRANCH   1   6
BRANCH   4  13
ATOM     13  C   UNL     1       3.208   5.193  18.293  0.00  0.00    +0.000 C 
BRANCH  13  14
ATOM     14  C   UNL     1       2.622   4.277  19.323  0.00  0.00    +0.000 A 
ATOM     15  C   UNL     1       2.361   4.552  20.658  0.00  0.00    +0.000 A 
ATOM     16  S   UNL     1       1.728   3.124  21.363  0.00  0.00    +0.000 S 
ATOM     17  N   UNL     1       1.798   2.270  19.928  0.00  0.00    +0.000 NA
ATOM     18  N   UNL     1       2.285   2.984  18.927  0.00  0.00    +0.000 NA
ENDBRANCH  13  14
ENDBRANCH   4  13
TORSDOF 5
ENDMDL
MODEL 6
REMARK VINA RESULT:      -6.3      1.571      1.850
REMARK  Name = 
REMARK  6 active torsions:
REMARK  status: ('A' for Active; 'I' for Inactive)
REMARK    1  A    between atoms: C_1  and  C_2
REMARK    2  A    between atoms: C_2  and  N_3
REMARK    3  A    between atoms: N_3  and  S_4
REMARK    4  A    between atoms: S_4  and  C_7
REMARK    5  A    between atoms: N_10  and  C_11
REMARK    6  A    between atoms: C_11  and  C_12
REMARK                            x       y       z     vdW  Elec       q    Type
REMARK                         _______ _______ _______ _____ _____    ______ ____
ROOT
ATOM      1  C   UNL     1       5.721   5.340  16.635  0.00  0.00    +0.000 C 
ATOM      2  C   UNL     1       6.045   6.467  17.598  0.00  0.00    +0.000 C 
ATOM      3  C   UNL     1       6.228   5.745  18.920  0.00  0.00    +0.000 C 
ATOM      4  N   UNL     1       5.185   4.700  18.926  0.00  0.00    +0.000 NA
ATOM      5  C   UNL     1       5.114   4.243  17.514  0.00  0.00    +0.000 C 
ENDROOT
BRANCH   1   6
ATOM      6  S   UNL     1       7.153   4.724  15.747  0.00  0.00    +0.000 S 
ATOM      7  O   UNL     1       8.027   4.076  16.697  0.00  0.00    +0.000 OA
ATOM      8  O   UNL     1       7.640   5.713  14.813  0.00  0.00    +0.000 OA
BRANCH   6   9
ATOM      9  N   UNL     1       6.463   3.455  14.830  0.00  0.00    +0.000 NA
ATOM     10  H   UNL     1       7.201   2.850  14.464  0.00  0.00    +0.000 HD
BRANCH   9  12
ATOM     11  C   UNL     1       6.161   3.432  12.397  0.00  0.00    +0.000 C 
ATOM     12  C   UNL     1       5.593   3.923  13.719  0.00  0.00    +0.000 C 
ENDBRANCH   9  12
ENDBRANCH   6   9
ENDBRANCH   1   6
BRANCH   4  13
ATOM     13  C   UNL     1       3.904   5.229  19.438  0.00  0.00    +0.000 C 
BRANCH  13  14
ATOM     14  C   UNL     1       2.755   4.340  19.068  0.00  0.00    +0.000 A 
ATOM     15  C   UNL     1       2.314   3.201  19.725  0.00  0.00    +0.000 A 
ATOM     16  S   UNL     1       0.991   2.574  18.834  0.00  0.00    +0.000 S 
ATOM     17  N   UNL     1       1.047   3.802  17.702  0.00  0.00    +0.000 NA
ATOM     18  N   UNL     1       2.018   4.670  17.932  0.00  0.00    +0.000 NA
ENDBRANCH  13  14
ENDBRANCH   4  13
TORSDOF 5
ENDMDL
MODEL 7
REMARK VINA RESULT:      -6.3      2.865      6.230
REMARK  Name = 
REMARK  6 active torsions:
REMARK  status: ('A' for Active; 'I' for Inactive)
REMARK    1  A    between atoms: C_1  and  C_2
REMARK    2  A    between atoms: C_2  and  N_3
REMARK    3  A    between atoms: N_3  and  S_4
REMARK    4  A    between atoms: S_4  and  C_7
REMARK    5  A    between atoms: N_10  and  C_11
REMARK    6  A    between atoms: C_11  and  C_12
REMARK                            x       y       z     vdW  Elec       q    Type
REMARK                         _______ _______ _______ _____ _____    ______ ____
ROOT
ATOM      1  C   UNL     1       3.792   4.217  17.751  0.00  0.00    +0.000 C 
ATOM      2  C   UNL     1       4.688   3.824  18.911  0.00  0.00    +0.000 C 
ATOM      3  C   UNL     1       5.594   5.031  19.068  0.00  0.00    +0.000 C 
ATOM      4  N   UNL     1       5.885   5.465  17.687  0.00  0.00    +0.000 NA
ATOM      5  C   UNL     1       4.616   5.229  16.951  0.00  0.00    +0.000 C 
ENDROOT
BRANCH   1   6
ATOM      6  S   UNL     1       2.230   4.933  18.266  0.00  0.00    +0.000 S 
ATOM      7  O   UNL     1       1.164   4.114  17.741  0.00  0.00    +0.000 OA
ATOM      8  O   UNL     1       2.244   6.368  18.095  0.00  0.00    +0.000 OA
BRANCH   6   9
ATOM      9  N   UNL     1       2.252   4.622  19.949  0.00  0.00    +0.000 NA
ATOM     10  H   UNL     1       3.062   4.046  20.185  0.00  0.00    +0.000 HD
BRANCH   9  12
ATOM     11  C   UNL     1       1.370   2.712  21.206  0.00  0.00    +0.000 C 
ATOM     12  C   UNL     1       1.008   3.984  20.456  0.00  0.00    +0.000 C 
ENDBRANCH   9  12
ENDBRANCH   6   9
ENDBRANCH   1   6
BRANCH   4  13
ATOM     13  C   UNL     1       7.036   4.726  17.127  0.00  0.00    +0.000 C 
BRANCH  13  14
ATOM     14  C   UNL     1       6.935   4.597  15.638  0.00  0.00    +0.000 A 
ATOM     15  C   UNL     1       6.186   3.682  14.911  0.00  0.00    +0.000 A 
ATOM     16  S   UNL     1       6.484   3.979  13.250  0.00  0.00    +0.000 S 
ATOM     17  N   UNL     1       7.511   5.260  13.564  0.00  0.00    +0.000 NA
ATOM     18  N   UNL     1       7.668   5.488  14.857  0.00  0.00    +0.000 NA
ENDBRANCH  13  14
ENDBRANCH   4  13
TORSDOF 5
ENDMDL
MODEL 8
REMARK VINA RESULT:      -6.2      1.741      2.169
REMARK  Name = 
REMARK  6 active torsions:
REMARK  status: ('A' for Active; 'I' for Inactive)
REMARK    1  A    between atoms: C_1  and  C_2
REMARK    2  A    between atoms: C_2  and  N_3
REMARK    3  A    between atoms: N_3  and  S_4
REMARK    4  A    between atoms: S_4  and  C_7
REMARK    5  A    between atoms: N_10  and  C_11
REMARK    6  A    between atoms: C_11  and  C_12
REMARK                            x       y       z     vdW  Elec       q    Type
REMARK                         _______ _______ _______ _____ _____    ______ ____
ROOT
ATOM      1  C   UNL     1       5.340   5.366  15.554  0.00  0.00    +0.000 C 
ATOM      2  C   UNL     1       5.476   6.675  16.309  0.00  0.00    +0.000 C 
ATOM      3  C   UNL     1       5.526   6.229  17.759  0.00  0.00    +0.000 C 
ATOM      4  N   UNL     1       4.549   5.126  17.846  0.00  0.00    +0.000 NA
ATOM      5  C   UNL     1       4.684   4.408  16.553  0.00  0.00    +0.000 C 
ENDROOT
BRANCH   1   6
ATOM      6  S   UNL     1       6.905   4.708  14.975  0.00  0.00    +0.000 S 
ATOM      7  O   UNL     1       7.590   4.118  16.102  0.00  0.00    +0.000 OA
ATOM      8  O   UNL     1       7.559   5.645  14.091  0.00  0.00    +0.000 OA
BRANCH   6   9
ATOM      9  N   UNL     1       6.386   3.386  14.020  0.00  0.00    +0.000 NA
ATOM     10  H   UNL     1       6.962   2.566  14.219  0.00  0.00    +0.000 HD
BRANCH   9  12
ATOM     11  C   UNL     1       5.430   2.708  11.867  0.00  0.00    +0.000 C 
ATOM     12  C   UNL     1       6.386   3.666  12.560  0.00  0.00    +0.000 C 
ENDBRANCH   9  12
ENDBRANCH   6   9
ENDBRANCH   1   6
BRANCH   4  13
ATOM     13  C   UNL     1       3.185   5.640  18.094  0.00  0.00    +0.000 C 
BRANCH  13  14
ATOM     14  C   UNL     1       2.440   4.776  19.064  0.00  0.00    +0.000 A 
ATOM     15  C   UNL     1       1.513   3.783  18.783  0.00  0.00    +0.000 A 
ATOM     16  S   UNL     1       0.960   3.156  20.279  0.00  0.00    +0.000 S 
ATOM     17  N   UNL     1       1.953   4.158  21.175  0.00  0.00    +0.000 NA
ATOM     18  N   UNL     1       2.684   4.965  20.424  0.00  0.00    +0.000 NA
ENDBRANCH  13  14
ENDBRANCH   4  13
TORSDOF 5
ENDMDL
MODEL 9
REMARK VINA RESULT:      -6.2      1.915      2.819
REMARK  Name = 
REMARK  6 active torsions:
REMARK  status: ('A' for Active; 'I' for Inactive)
REMARK    1  A    between atoms: C_1  and  C_2
REMARK    2  A    between atoms: C_2  and  N_3
REMARK    3  A    between atoms: N_3  and  S_4
REMARK    4  A    between atoms: S_4  and  C_7
REMARK    5  A    between atoms: N_10  and  C_11
REMARK    6  A    between atoms: C_11  and  C_12
REMARK                            x       y       z     vdW  Elec       q    Type
REMARK                         _______ _______ _______ _____ _____    ______ ____
ROOT
ATOM      1  C   UNL     1       5.093   5.257  16.444  0.00  0.00    +0.000 C 
ATOM      2  C   UNL     1       4.477   6.193  17.467  0.00  0.00    +0.000 C 
ATOM      3  C   UNL     1       4.606   5.416  18.763  0.00  0.00    +0.000 C 
ATOM      4  N   UNL     1       4.316   4.017  18.393  0.00  0.00    +0.000 NA
ATOM      5  C   UNL     1       4.919   3.859  17.044  0.00  0.00    +0.000 C 
ENDROOT
BRANCH   1   6
ATOM      6  S   UNL     1       6.824   5.596  16.115  0.00  0.00    +0.000 S 
ATOM      7  O   UNL     1       7.003   5.671  14.684  0.00  0.00    +0.000 OA
ATOM      8  O   UNL     1       7.674   4.777  16.948  0.00  0.00    +0.000 OA
BRANCH   6   9
ATOM      9  N   UNL     1       6.966   7.208  16.673  0.00  0.00    +0.000 NA
ATOM     10  H   UNL     1       7.301   7.809  15.918  0.00  0.00    +0.000 HD
BRANCH   9  12
ATOM     11  C   UNL     1       8.226   8.815  18.027  0.00  0.00    +0.000 C 
ATOM     12  C   UNL     1       7.842   7.354  17.865  0.00  0.00    +0.000 C 
ENDBRANCH   9  12
ENDBRANCH   6   9
ENDBRANCH   1   6
BRANCH   4  13
ATOM     13  C   UNL     1       2.863   3.747  18.423  0.00  0.00    +0.000 C 
BRANCH  13  14
ATOM     14  C   UNL     1       2.422   3.262  19.770  0.00  0.00    +0.000 A 
ATOM     15  C   UNL     1       1.134   3.234  20.285  0.00  0.00    +0.000 A 
ATOM     16  S   UNL     1       1.232   2.614  21.879  0.00  0.00    +0.000 S 
ATOM     17  N   UNL     1       2.886   2.392  21.795  0.00  0.00    +0.000 NA
ATOM     18  N   UNL     1       3.397   2.770  20.636  0.00  0.00    +0.000 NA
ENDBRANCH  13  14
ENDBRANCH   4  13
TORSDOF 5
ENDMDL
