MODEL 1
REMARK VINA RESULT:      -8.9      0.000      0.000
REMARK  Name = 
REMARK  5 active torsions:
REMARK  status: ('A' for Active; 'I' for Inactive)
REMARK    1  A    between atoms: C_1  and  C_2
REMARK    2  A    between atoms: C_5  and  N_6
REMARK    3  A    between atoms: C_8  and  C_9
REMARK    4  A    between atoms: C_9  and  O_10
REMARK    5  A    between atoms: O_10  and  C_11
REMARK                            x       y       z     vdW  Elec       q    Type
REMARK                         _______ _______ _______ _____ _____    ______ ____
ROOT
ATOM      1  O   UNL     1       5.853   5.161  17.595  0.00  0.00    +0.000 OA
ENDROOT
BRANCH   1   2
ATOM      2  C   UNL     1       4.722   5.141  18.347  0.00  0.00    +0.000 A 
ATOM      3  C   UNL     1       3.891   6.271  18.253  0.00  0.00    +0.000 A 
ATOM      4  O   UNL     1       4.101   7.331  17.415  0.00  0.00    +0.000 OA
ATOM      5  C   UNL     1       3.126   8.241  17.658  0.00  0.00    +0.000 A 
ATOM      6  C   UNL     1       2.297   7.803  18.662  0.00  0.00    +0.000 A 
ATOM      7  C   UNL     1       2.746   6.502  19.011  0.00  0.00    +0.000 A 
ATOM      8  C   UNL     1       2.303   5.510  19.896  0.00  0.00    +0.000 A 
ATOM      9  C   UNL     1       3.039   4.324  19.965  0.00  0.00    +0.000 A 
ATOM     10  C   UNL     1       2.573   3.223  20.823  0.00  0.00    +0.000 A 
ATOM     11  C   UNL     1       3.116   2.020  20.573  0.00  0.00    +0.000 A 
ATOM     12  C   UNL     1       4.602   2.165  20.541  0.00  0.00    +0.000 A 
ATOM     13  O   UNL     1       5.348   1.525  21.270  0.00  0.00    +0.000 OA
ATOM     14  O   UNL     1       5.046   3.035  19.548  0.00  0.00    +0.000 OA
ATOM     15  C   UNL     1       4.249   4.173  19.251  0.00  0.00    +0.000 A 
ENDBRANCH   1   2
BRANCH   1  16
ATOM     16  C   UNL     1       7.133   5.353  18.191  0.00  0.00    +0.000 C 
BRANCH  16  19
ATOM     17  N   UNL     1       8.416   8.784  18.289  0.00  0.00    +0.000 N 
ATOM     18  C   UNL     1       8.259   7.574  18.932  0.00  0.00    +0.000 A 
ATOM     19  C   UNL     1       7.569   6.777  18.044  0.00  0.00    +0.000 A 
ATOM     20  N   UNL     1       7.313   7.499  16.911  0.00  0.00    +0.000 NA
ATOM     21  N   UNL     1       7.819   8.719  17.073  0.00  0.00    +0.000 NA
BRANCH  17  26
ATOM     22  C   UNL     1      11.339  13.399  20.055  0.00  0.00    +0.000 C 
ATOM     23  C   UNL     1      10.550  12.206  19.602  0.00  0.00    +0.000 A 
ATOM     24  C   UNL     1       9.916  11.369  20.530  0.00  0.00    +0.000 A 
ATOM     25  C   UNL     1       9.196  10.250  20.098  0.00  0.00    +0.000 A 
ATOM     26  C   UNL     1       9.104   9.943  18.737  0.00  0.00    +0.000 A 
ATOM     27  C   UNL     1       9.725  10.790  17.804  0.00  0.00    +0.000 A 
ATOM     28  C   UNL     1      10.442  11.912  18.239  0.00  0.00    +0.000 A 
ENDBRANCH  17  26
ENDBRANCH  16  19
ENDBRANCH   1  16
TORSDOF 4
ENDMDL
MODEL 2
REMARK VINA RESULT:      -8.9      4.817      7.917
REMARK  Name = 
REMARK  5 active torsions:
REMARK  status: ('A' for Active; 'I' for Inactive)
REMARK    1  A    between atoms: C_1  and  C_2
REMARK    2  A    between atoms: C_5  and  N_6
REMARK    3  A    between atoms: C_8  and  C_9
REMARK    4  A    between atoms: C_9  and  O_10
REMARK    5  A    between atoms: O_10  and  C_11
REMARK                            x       y       z     vdW  Elec       q    Type
REMARK                         _______ _______ _______ _____ _____    ______ ____
ROOT
ATOM      1  O   UNL     1       3.062   6.785  19.242  0.00  0.00    +0.000 OA
ENDROOT
BRANCH   1   2
ATOM      2  C   UNL     1       3.291   5.659  18.519  0.00  0.00    +0.000 A 
ATOM      3  C   UNL     1       2.455   4.562  18.795  0.00  0.00    +0.000 A 
ATOM      4  O   UNL     1       1.401   4.578  19.666  0.00  0.00    +0.000 OA
ATOM      5  C   UNL     1       0.885   3.325  19.703  0.00  0.00    +0.000 A 
ATOM      6  C   UNL     1       1.603   2.483  18.888  0.00  0.00    +0.000 A 
ATOM      7  C   UNL     1       2.582   3.288  18.248  0.00  0.00    +0.000 A 
ATOM      8  C   UNL     1       3.564   3.059  17.274  0.00  0.00    +0.000 A 
ATOM      9  C   UNL     1       4.366   4.138  16.892  0.00  0.00    +0.000 A 
ATOM     10  C   UNL     1       5.359   3.967  15.820  0.00  0.00    +0.000 A 
ATOM     11  C   UNL     1       5.831   5.102  15.277  0.00  0.00    +0.000 A 
ATOM     12  C   UNL     1       6.285   6.004  16.377  0.00  0.00    +0.000 A 
ATOM     13  O   UNL     1       7.427   6.440  16.448  0.00  0.00    +0.000 OA
ATOM     14  O   UNL     1       5.263   6.357  17.254  0.00  0.00    +0.000 OA
ATOM     15  C   UNL     1       4.267   5.387  17.545  0.00  0.00    +0.000 A 
ENDBRANCH   1   2
BRANCH   1  16
ATOM     16  C   UNL     1       2.298   7.863  18.710  0.00  0.00    +0.000 C 
BRANCH  16  19
ATOM     17  N   UNL     1       0.215   9.821  21.003  0.00  0.00    +0.000 N 
ATOM     18  C   UNL     1       0.740   9.671  19.736  0.00  0.00    +0.000 A 
ATOM     19  C   UNL     1       1.506   8.527  19.792  0.00  0.00    +0.000 A 
ATOM     20  N   UNL     1       1.446   8.019  21.061  0.00  0.00    +0.000 NA
ATOM     21  N   UNL     1       0.672   8.817  21.791  0.00  0.00    +0.000 NA
BRANCH  17  26
ATOM     22  C   UNL     1      -3.545  13.702  22.943  0.00  0.00    +0.000 C 
ATOM     23  C   UNL     1      -2.542  12.708  22.432  0.00  0.00    +0.000 A 
ATOM     24  C   UNL     1      -2.166  12.698  21.082  0.00  0.00    +0.000 A 
ATOM     25  C   UNL     1      -1.242  11.758  20.612  0.00  0.00    +0.000 A 
ATOM     26  C   UNL     1      -0.688  10.809  21.476  0.00  0.00    +0.000 A 
ATOM     27  C   UNL     1      -1.051  10.829  22.833  0.00  0.00    +0.000 A 
ATOM     28  C   UNL     1      -1.973  11.774  23.302  0.00  0.00    +0.000 A 
ENDBRANCH  17  26
ENDBRANCH  16  19
ENDBRANCH   1  16
TORSDOF 4
ENDMDL
MODEL 3
REMARK VINA RESULT:      -8.8      4.776      8.289
REMARK  Name = 
REMARK  5 active torsions:
REMARK  status: ('A' for Active; 'I' for Inactive)
REMARK    1  A    between atoms: C_1  and  C_2
REMARK    2  A    between atoms: C_5  and  N_6
REMARK    3  A    between atoms: C_8  and  C_9
REMARK    4  A    between atoms: C_9  and  O_10
REMARK    5  A    between atoms: O_10  and  C_11
REMARK                            x       y       z     vdW  Elec       q    Type
REMARK                         _______ _______ _______ _____ _____    ______ ____
ROOT
ATOM      1  O   UNL     1       3.053   6.892  18.868  0.00  0.00    +0.000 OA
ENDROOT
BRANCH   1   2
ATOM      2  C   UNL     1       3.344   5.694  18.299  0.00  0.00    +0.000 A 
ATOM      3  C   UNL     1       2.531   4.611  18.676  0.00  0.00    +0.000 A 
ATOM      4  O   UNL     1       1.441   4.698  19.499  0.00  0.00    +0.000 OA
ATOM      5  C   UNL     1       0.961   3.442  19.671  0.00  0.00    +0.000 A 
ATOM      6  C   UNL     1       1.736   2.532  18.995  0.00  0.00    +0.000 A 
ATOM      7  C   UNL     1       2.717   3.285  18.297  0.00  0.00    +0.000 A 
ATOM      8  C   UNL     1       3.744   2.973  17.395  0.00  0.00    +0.000 A 
ATOM      9  C   UNL     1       4.529   4.023  16.913  0.00  0.00    +0.000 A 
ATOM     10  C   UNL     1       5.570   3.756  15.909  0.00  0.00    +0.000 A 
ATOM     11  C   UNL     1       6.030   4.832  15.247  0.00  0.00    +0.000 A 
ATOM     12  C   UNL     1       6.413   5.876  16.243  0.00  0.00    +0.000 A 
ATOM     13  O   UNL     1       7.537   6.356  16.303  0.00  0.00    +0.000 OA
ATOM     14  O   UNL     1       5.346   6.299  17.031  0.00  0.00    +0.000 OA
ATOM     15  C   UNL     1       4.367   5.339  17.402  0.00  0.00    +0.000 A 
ENDBRANCH   1   2
BRANCH   1  16
ATOM     16  C   UNL     1       2.955   8.078  18.085  0.00  0.00    +0.000 C 
BRANCH  16  19
ATOM     17  N   UNL     1      -0.235   9.853  18.412  0.00  0.00    +0.000 N 
ATOM     18  C   UNL     1       0.680   9.230  17.587  0.00  0.00    +0.000 A 
ATOM     19  C   UNL     1       1.701   8.823  18.419  0.00  0.00    +0.000 A 
ATOM     20  N   UNL     1       1.405   9.204  19.699  0.00  0.00    +0.000 NA
ATOM     21  N   UNL     1       0.236   9.840  19.683  0.00  0.00    +0.000 NA
BRANCH  17  26
ATOM     22  C   UNL     1      -5.404  12.017  17.166  0.00  0.00    +0.000 C 
ATOM     23  C   UNL     1      -4.042  11.467  17.470  0.00  0.00    +0.000 A 
ATOM     24  C   UNL     1      -3.416  10.573  16.591  0.00  0.00    +0.000 A 
ATOM     25  C   UNL     1      -2.152  10.053  16.890  0.00  0.00    +0.000 A 
ATOM     26  C   UNL     1      -1.497  10.409  18.073  0.00  0.00    +0.000 A 
ATOM     27  C   UNL     1      -2.115  11.318  18.948  0.00  0.00    +0.000 A 
ATOM     28  C   UNL     1      -3.380  11.840  18.643  0.00  0.00    +0.000 A 
ENDBRANCH  17  26
ENDBRANCH  16  19
ENDBRANCH   1  16
TORSDOF 4
ENDMDL
MODEL 4
REMARK VINA RESULT:      -8.7      4.726      7.550
REMARK  Name = 
REMARK  5 active torsions:
REMARK  status: ('A' for Active; 'I' for Inactive)
REMARK    1  A    between atoms: C_1  and  C_2
REMARK    2  A    between atoms: C_5  and  N_6
REMARK    3  A    between atoms: C_8  and  C_9
REMARK    4  A    between atoms: C_9  and  O_10
REMARK    5  A    between atoms: O_10  and  C_11
REMARK                            x       y       z     vdW  Elec       q    Type
REMARK                         _______ _______ _______ _____ _____    ______ ____
ROOT
ATOM      1  O   UNL     1       3.082   7.186  18.611  0.00  0.00    +0.000 OA
ENDROOT
BRANCH   1   2
ATOM      2  C   UNL     1       3.379   5.921  18.215  0.00  0.00    +0.000 A 
ATOM      3  C   UNL     1       2.593   4.895  18.768  0.00  0.00    +0.000 A 
ATOM      4  O   UNL     1       1.522   5.087  19.597  0.00  0.00    +0.000 OA
ATOM      5  C   UNL     1       1.066   3.864  19.963  0.00  0.00    +0.000 A 
ATOM      6  C   UNL     1       1.841   2.874  19.407  0.00  0.00    +0.000 A 
ATOM      7  C   UNL     1       2.792   3.530  18.582  0.00  0.00    +0.000 A 
ATOM      8  C   UNL     1       3.803   3.102  17.710  0.00  0.00    +0.000 A 
ATOM      9  C   UNL     1       4.559   4.080  17.059  0.00  0.00    +0.000 A 
ATOM     10  C   UNL     1       5.580   3.683  16.078  0.00  0.00    +0.000 A 
ATOM     11  C   UNL     1       6.007   4.656  15.255  0.00  0.00    +0.000 A 
ATOM     12  C   UNL     1       6.396   5.840  16.077  0.00  0.00    +0.000 A 
ATOM     13  O   UNL     1       7.513   6.338  16.037  0.00  0.00    +0.000 OA
ATOM     14  O   UNL     1       5.340   6.360  16.822  0.00  0.00    +0.000 OA
ATOM     15  C   UNL     1       4.387   5.452  17.355  0.00  0.00    +0.000 A 
ENDBRANCH   1   2
BRANCH   1  16
ATOM     16  C   UNL     1       2.670   8.176  17.673  0.00  0.00    +0.000 C 
BRANCH  16  19
ATOM     17  N   UNL     1       0.637  10.485  19.664  0.00  0.00    +0.000 N 
ATOM     18  C   UNL     1       1.017   9.184  19.405  0.00  0.00    +0.000 A 
ATOM     19  C   UNL     1       1.915   9.268  18.362  0.00  0.00    +0.000 A 
ATOM     20  N   UNL     1       2.053  10.582  18.005  0.00  0.00    +0.000 NA
ATOM     21  N   UNL     1       1.265  11.310  18.791  0.00  0.00    +0.000 NA
BRANCH  17  26
ATOM     22  C   UNL     1      -2.956  12.296  23.759  0.00  0.00    +0.000 C 
ATOM     23  C   UNL     1      -2.003  11.848  22.690  0.00  0.00    +0.000 A 
ATOM     24  C   UNL     1      -2.026  12.431  21.416  0.00  0.00    +0.000 A 
ATOM     25  C   UNL     1      -1.144  11.996  20.421  0.00  0.00    +0.000 A 
ATOM     26  C   UNL     1      -0.232  10.968  20.678  0.00  0.00    +0.000 A 
ATOM     27  C   UNL     1      -0.196  10.393  21.959  0.00  0.00    +0.000 A 
ATOM     28  C   UNL     1      -1.078  10.834  22.954  0.00  0.00    +0.000 A 
ENDBRANCH  17  26
ENDBRANCH  16  19
ENDBRANCH   1  16
TORSDOF 4
ENDMDL
MODEL 5
REMARK VINA RESULT:      -8.7      4.834      7.553
REMARK  Name = 
REMARK  5 active torsions:
REMARK  status: ('A' for Active; 'I' for Inactive)
REMARK    1  A    between atoms: C_1  and  C_2
REMARK    2  A    between atoms: C_5  and  N_6
REMARK    3  A    between atoms: C_8  and  C_9
REMARK    4  A    between atoms: C_9  and  O_10
REMARK    5  A    between atoms: O_10  and  C_11
REMARK                            x       y       z     vdW  Elec       q    Type
REMARK                         _______ _______ _______ _____ _____    ______ ____
ROOT
ATOM      1  O   UNL     1       3.035   6.802  18.745  0.00  0.00    +0.000 OA
ENDROOT
BRANCH   1   2
ATOM      2  C   UNL     1       3.346   5.586  18.225  0.00  0.00    +0.000 A 
ATOM      3  C   UNL     1       2.551   4.507  18.649  0.00  0.00    +0.000 A 
ATOM      4  O   UNL     1       1.461   4.609  19.470  0.00  0.00    +0.000 OA
ATOM      5  C   UNL     1       1.003   3.353  19.694  0.00  0.00    +0.000 A 
ATOM      6  C   UNL     1       1.793   2.429  19.054  0.00  0.00    +0.000 A 
ATOM      7  C   UNL     1       2.760   3.169  18.324  0.00  0.00    +0.000 A 
ATOM      8  C   UNL     1       3.791   2.837  17.435  0.00  0.00    +0.000 A 
ATOM      9  C   UNL     1       4.558   3.880  16.908  0.00  0.00    +0.000 A 
ATOM     10  C   UNL     1       5.603   3.590  15.914  0.00  0.00    +0.000 A 
ATOM     11  C   UNL     1       6.044   4.645  15.208  0.00  0.00    +0.000 A 
ATOM     12  C   UNL     1       6.409   5.736  16.159  0.00  0.00    +0.000 A 
ATOM     13  O   UNL     1       7.525   6.237  16.197  0.00  0.00    +0.000 OA
ATOM     14  O   UNL     1       5.335   6.173  16.931  0.00  0.00    +0.000 OA
ATOM     15  C   UNL     1       4.374   5.212  17.343  0.00  0.00    +0.000 A 
ENDBRANCH   1   2
BRANCH   1  16
ATOM     16  C   UNL     1       2.906   7.951  17.913  0.00  0.00    +0.000 C 
BRANCH  16  19
ATOM     17  N   UNL     1       0.344   9.960  19.594  0.00  0.00    +0.000 N 
ATOM     18  C   UNL     1       1.355   9.027  19.697  0.00  0.00    +0.000 A 
ATOM     19  C   UNL     1       1.807   8.836  18.409  0.00  0.00    +0.000 A 
ATOM     20  N   UNL     1       1.076   9.626  17.564  0.00  0.00    +0.000 NA
ATOM     21  N   UNL     1       0.183  10.293  18.290  0.00  0.00    +0.000 NA
BRANCH  17  26
ATOM     22  C   UNL     1      -2.675  12.489  23.771  0.00  0.00    +0.000 C 
ATOM     23  C   UNL     1      -1.902  11.804  22.682  0.00  0.00    +0.000 A 
ATOM     24  C   UNL     1      -1.040  10.738  22.975  0.00  0.00    +0.000 A 
ATOM     25  C   UNL     1      -0.313  10.116  21.955  0.00  0.00    +0.000 A 
ATOM     26  C   UNL     1      -0.424  10.552  20.631  0.00  0.00    +0.000 A 
ATOM     27  C   UNL     1      -1.301  11.609  20.334  0.00  0.00    +0.000 A 
ATOM     28  C   UNL     1      -2.032  12.228  21.356  0.00  0.00    +0.000 A 
ENDBRANCH  17  26
ENDBRANCH  16  19
ENDBRANCH   1  16
TORSDOF 4
ENDMDL
MODEL 6
REMARK VINA RESULT:      -8.5      4.659      7.819
REMARK  Name = 
REMARK  5 active torsions:
REMARK  status: ('A' for Active; 'I' for Inactive)
REMARK    1  A    between atoms: C_1  and  C_2
REMARK    2  A    between atoms: C_5  and  N_6
REMARK    3  A    between atoms: C_8  and  C_9
REMARK    4  A    between atoms: C_9  and  O_10
REMARK    5  A    between atoms: O_10  and  C_11
REMARK                            x       y       z     vdW  Elec       q    Type
REMARK                         _______ _______ _______ _____ _____    ______ ____
ROOT
ATOM      1  O   UNL     1       2.204   6.463  18.289  0.00  0.00    +0.000 OA
ENDROOT
BRANCH   1   2
ATOM      2  C   UNL     1       2.904   5.368  17.891  0.00  0.00    +0.000 A 
ATOM      3  C   UNL     1       2.331   4.120  18.192  0.00  0.00    +0.000 A 
ATOM      4  O   UNL     1       1.107   3.939  18.776  0.00  0.00    +0.000 OA
ATOM      5  C   UNL     1       0.936   2.606  18.956  0.00  0.00    +0.000 A 
ATOM      6  C   UNL     1       2.042   1.915  18.523  0.00  0.00    +0.000 A 
ATOM      7  C   UNL     1       2.924   2.880  17.970  0.00  0.00    +0.000 A 
ATOM      8  C   UNL     1       4.163   2.825  17.317  0.00  0.00    +0.000 A 
ATOM      9  C   UNL     1       4.740   4.032  16.911  0.00  0.00    +0.000 A 
ATOM     10  C   UNL     1       6.002   4.022  16.157  0.00  0.00    +0.000 A 
ATOM     11  C   UNL     1       6.303   5.161  15.509  0.00  0.00    +0.000 A 
ATOM     12  C   UNL     1       6.188   6.299  16.469  0.00  0.00    +0.000 A 
ATOM     13  O   UNL     1       7.115   7.062  16.707  0.00  0.00    +0.000 OA
ATOM     14  O   UNL     1       4.907   6.446  16.994  0.00  0.00    +0.000 OA
ATOM     15  C   UNL     1       4.149   5.271  17.246  0.00  0.00    +0.000 A 
ENDBRANCH   1   2
BRANCH   1  16
ATOM     16  C   UNL     1       2.561   7.180  19.468  0.00  0.00    +0.000 C 
BRANCH  16  19
ATOM     17  N   UNL     1       0.306   9.925  20.364  0.00  0.00    +0.000 N 
ATOM     18  C   UNL     1       0.900   8.732  20.723  0.00  0.00    +0.000 A 
ATOM     19  C   UNL     1       1.675   8.372  19.642  0.00  0.00    +0.000 A 
ATOM     20  N   UNL     1       1.534   9.319  18.664  0.00  0.00    +0.000 NA
ATOM     21  N   UNL     1       0.692  10.249  19.106  0.00  0.00    +0.000 NA
BRANCH  17  26
ATOM     22  C   UNL     1      -3.253  13.154  23.506  0.00  0.00    +0.000 C 
ATOM     23  C   UNL     1      -2.305  12.333  22.682  0.00  0.00    +0.000 A 
ATOM     24  C   UNL     1      -2.158  12.569  21.308  0.00  0.00    +0.000 A 
ATOM     25  C   UNL     1      -1.283  11.789  20.545  0.00  0.00    +0.000 A 
ATOM     26  C   UNL     1      -0.550  10.755  21.136  0.00  0.00    +0.000 A 
ATOM     27  C   UNL     1      -0.683  10.528  22.516  0.00  0.00    +0.000 A 
ATOM     28  C   UNL     1      -1.557  11.314  23.278  0.00  0.00    +0.000 A 
ENDBRANCH  17  26
ENDBRANCH  16  19
ENDBRANCH   1  16
TORSDOF 4
ENDMDL
MODEL 7
REMARK VINA RESULT:      -8.5      4.908      7.922
REMARK  Name = 
REMARK  5 active torsions:
REMARK  status: ('A' for Active; 'I' for Inactive)
REMARK    1  A    between atoms: C_1  and  C_2
REMARK    2  A    between atoms: C_5  and  N_6
REMARK    3  A    between atoms: C_8  and  C_9
REMARK    4  A    between atoms: C_9  and  O_10
REMARK    5  A    between atoms: O_10  and  C_11
REMARK                            x       y       z     vdW  Elec       q    Type
REMARK                         _______ _______ _______ _____ _____    ______ ____
ROOT
ATOM      1  O   UNL     1       3.336   7.059  18.635  0.00  0.00    +0.000 OA
ENDROOT
BRANCH   1   2
ATOM      2  C   UNL     1       3.515   5.813  18.125  0.00  0.00    +0.000 A 
ATOM      3  C   UNL     1       2.663   4.810  18.620  0.00  0.00    +0.000 A 
ATOM      4  O   UNL     1       1.637   5.017  19.501  0.00  0.00    +0.000 OA
ATOM      5  C   UNL     1       1.092   3.807  19.781  0.00  0.00    +0.000 A 
ATOM      6  C   UNL     1       1.764   2.810  19.117  0.00  0.00    +0.000 A 
ATOM      7  C   UNL     1       2.742   3.454  18.314  0.00  0.00    +0.000 A 
ATOM      8  C   UNL     1       3.686   3.023  17.373  0.00  0.00    +0.000 A 
ATOM      9  C   UNL     1       4.502   3.989  16.778  0.00  0.00    +0.000 A 
ATOM     10  C   UNL     1       5.457   3.596  15.730  0.00  0.00    +0.000 A 
ATOM     11  C   UNL     1       5.938   4.598  14.975  0.00  0.00    +0.000 A 
ATOM     12  C   UNL     1       6.449   5.672  15.878  0.00  0.00    +0.000 A 
ATOM     13  O   UNL     1       7.602   6.080  15.838  0.00  0.00    +0.000 OA
ATOM     14  O   UNL     1       5.463   6.210  16.702  0.00  0.00    +0.000 OA
ATOM     15  C   UNL     1       4.454   5.339  17.192  0.00  0.00    +0.000 A 
ENDBRANCH   1   2
BRANCH   1  16
ATOM     16  C   UNL     1       2.642   8.065  17.902  0.00  0.00    +0.000 C 
BRANCH  16  19
ATOM     17  N   UNL     1       0.101  10.048  19.647  0.00  0.00    +0.000 N 
ATOM     18  C   UNL     1       0.770   9.774  18.471  0.00  0.00    +0.000 A 
ATOM     19  C   UNL     1       1.664   8.773  18.786  0.00  0.00    +0.000 A 
ATOM     20  N   UNL     1       1.537   8.471  20.114  0.00  0.00    +0.000 NA
ATOM     21  N   UNL     1       0.597   9.258  20.631  0.00  0.00    +0.000 NA
BRANCH  17  26
ATOM     22  C   UNL     1      -4.266  13.637  20.647  0.00  0.00    +0.000 C 
ATOM     23  C   UNL     1      -3.113  12.718  20.367  0.00  0.00    +0.000 A 
ATOM     24  C   UNL     1      -2.987  12.083  19.124  0.00  0.00    +0.000 A 
ATOM     25  C   UNL     1      -1.917  11.217  18.877  0.00  0.00    +0.000 A 
ATOM     26  C   UNL     1      -0.963  10.961  19.868  0.00  0.00    +0.000 A 
ATOM     27  C   UNL     1      -1.079  11.610  21.109  0.00  0.00    +0.000 A 
ATOM     28  C   UNL     1      -2.150  12.480  21.351  0.00  0.00    +0.000 A 
ENDBRANCH  17  26
ENDBRANCH  16  19
ENDBRANCH   1  16
TORSDOF 4
ENDMDL
MODEL 8
REMARK VINA RESULT:      -8.5      4.335      7.703
REMARK  Name = 
REMARK  5 active torsions:
REMARK  status: ('A' for Active; 'I' for Inactive)
REMARK    1  A    between atoms: C_1  and  C_2
REMARK    2  A    between atoms: C_5  and  N_6
REMARK    3  A    between atoms: C_8  and  C_9
REMARK    4  A    between atoms: C_9  and  O_10
REMARK    5  A    between atoms: O_10  and  C_11
REMARK                            x       y       z     vdW  Elec       q    Type
REMARK                         _______ _______ _______ _____ _____    ______ ____
ROOT
ATOM      1  O   UNL     1       2.300   6.650  17.835  0.00  0.00    +0.000 OA
ENDROOT
BRANCH   1   2
ATOM      2  C   UNL     1       3.223   5.720  18.192  0.00  0.00    +0.000 A 
ATOM      3  C   UNL     1       2.766   4.670  19.007  0.00  0.00    +0.000 A 
ATOM      4  O   UNL     1       1.466   4.483  19.391  0.00  0.00    +0.000 OA
ATOM      5  C   UNL     1       1.436   3.407  20.215  0.00  0.00    +0.000 A 
ATOM      6  C   UNL     1       2.701   2.903  20.398  0.00  0.00    +0.000 A 
ATOM      7  C   UNL     1       3.560   3.675  19.571  0.00  0.00    +0.000 A 
ATOM      8  C   UNL     1       4.925   3.633  19.256  0.00  0.00    +0.000 A 
ATOM      9  C   UNL     1       5.420   4.599  18.376  0.00  0.00    +0.000 A 
ATOM     10  C   UNL     1       6.829   4.552  17.956  0.00  0.00    +0.000 A 
ATOM     11  C   UNL     1       7.136   5.275  16.865  0.00  0.00    +0.000 A 
ATOM     12  C   UNL     1       6.612   6.661  17.048  0.00  0.00    +0.000 A 
ATOM     13  O   UNL     1       7.326   7.653  16.996  0.00  0.00    +0.000 OA
ATOM     14  O   UNL     1       5.228   6.708  17.201  0.00  0.00    +0.000 OA
ATOM     15  C   UNL     1       4.598   5.649  17.907  0.00  0.00    +0.000 A 
ENDBRANCH   1   2
BRANCH   1  16
ATOM     16  C   UNL     1       2.537   8.041  18.031  0.00  0.00    +0.000 C 
BRANCH  16  19
ATOM     17  N   UNL     1       0.491   9.641  20.616  0.00  0.00    +0.000 N 
ATOM     18  C   UNL     1       0.984   9.670  19.327  0.00  0.00    +0.000 A 
ATOM     19  C   UNL     1       1.766   8.541  19.211  0.00  0.00    +0.000 A 
ATOM     20  N   UNL     1       1.747   7.868  20.402  0.00  0.00    +0.000 NA
ATOM     21  N   UNL     1       0.982   8.549  21.251  0.00  0.00    +0.000 NA
BRANCH  17  26
ATOM     22  C   UNL     1      -3.261  13.163  23.161  0.00  0.00    +0.000 C 
ATOM     23  C   UNL     1      -2.262  12.265  22.492  0.00  0.00    +0.000 A 
ATOM     24  C   UNL     1      -2.002  12.377  21.119  0.00  0.00    +0.000 A 
ATOM     25  C   UNL     1      -1.080  11.525  20.501  0.00  0.00    +0.000 A 
ATOM     26  C   UNL     1      -0.412  10.543  21.239  0.00  0.00    +0.000 A 
ATOM     27  C   UNL     1      -0.659  10.440  22.618  0.00  0.00    +0.000 A 
ATOM     28  C   UNL     1      -1.580  11.297  23.235  0.00  0.00    +0.000 A 
ENDBRANCH  17  26
ENDBRANCH  16  19
ENDBRANCH   1  16
TORSDOF 4
ENDMDL
MODEL 9
REMARK VINA RESULT:      -8.4      4.607      7.453
REMARK  Name = 
REMARK  5 active torsions:
REMARK  status: ('A' for Active; 'I' for Inactive)
REMARK    1  A    between atoms: C_1  and  C_2
REMARK    2  A    between atoms: C_5  and  N_6
REMARK    3  A    between atoms: C_8  and  C_9
REMARK    4  A    between atoms: C_9  and  O_10
REMARK    5  A    between atoms: O_10  and  C_11
REMARK                            x       y       z     vdW  Elec       q    Type
REMARK                         _______ _______ _______ _____ _____    ______ ____
ROOT
ATOM      1  O   UNL     1       2.327   6.643  18.377  0.00  0.00    +0.000 OA
ENDROOT
BRANCH   1   2
ATOM      2  C   UNL     1       2.983   5.529  17.958  0.00  0.00    +0.000 A 
ATOM      3  C   UNL     1       2.362   4.299  18.239  0.00  0.00    +0.000 A 
ATOM      4  O   UNL     1       1.133   4.156  18.822  0.00  0.00    +0.000 OA
ATOM      5  C   UNL     1       0.910   2.827  18.979  0.00  0.00    +0.000 A 
ATOM      6  C   UNL     1       1.988   2.101  18.533  0.00  0.00    +0.000 A 
ATOM      7  C   UNL     1       2.906   3.041  17.995  0.00  0.00    +0.000 A 
ATOM      8  C   UNL     1       4.141   2.949  17.338  0.00  0.00    +0.000 A 
ATOM      9  C   UNL     1       4.764   4.139  16.952  0.00  0.00    +0.000 A 
ATOM     10  C   UNL     1       6.024   4.092  16.195  0.00  0.00    +0.000 A 
ATOM     11  C   UNL     1       6.368   5.230  15.567  0.00  0.00    +0.000 A 
ATOM     12  C   UNL     1       6.299   6.355  16.546  0.00  0.00    +0.000 A 
ATOM     13  O   UNL     1       7.256   7.077  16.795  0.00  0.00    +0.000 OA
ATOM     14  O   UNL     1       5.025   6.543  17.076  0.00  0.00    +0.000 OA
ATOM     15  C   UNL     1       4.222   5.395  17.309  0.00  0.00    +0.000 A 
ENDBRANCH   1   2
BRANCH   1  16
ATOM     16  C   UNL     1       2.265   6.989  19.757  0.00  0.00    +0.000 C 
BRANCH  16  19
ATOM     17  N   UNL     1       0.618  10.135  20.664  0.00  0.00    +0.000 N 
ATOM     18  C   UNL     1       1.007   8.865  21.040  0.00  0.00    +0.000 A 
ATOM     19  C   UNL     1       1.627   8.331  19.931  0.00  0.00    +0.000 A 
ATOM     20  N   UNL     1       1.595   9.254  18.921  0.00  0.00    +0.000 NA
ATOM     21  N   UNL     1       0.970  10.339  19.371  0.00  0.00    +0.000 NA
BRANCH  17  26
ATOM     22  C   UNL     1      -1.803  14.211  23.902  0.00  0.00    +0.000 C 
ATOM     23  C   UNL     1      -1.196  13.141  23.043  0.00  0.00    +0.000 A 
ATOM     24  C   UNL     1      -1.517  11.791  23.243  0.00  0.00    +0.000 A 
ATOM     25  C   UNL     1      -0.934  10.799  22.447  0.00  0.00    +0.000 A 
ATOM     26  C   UNL     1      -0.016  11.135  21.448  0.00  0.00    +0.000 A 
ATOM     27  C   UNL     1       0.295  12.488  21.234  0.00  0.00    +0.000 A 
ATOM     28  C   UNL     1      -0.294  13.480  22.030  0.00  0.00    +0.000 A 
ENDBRANCH  17  26
ENDBRANCH  16  19
ENDBRANCH   1  16
TORSDOF 4
ENDMDL
