MODEL 1
REMARK VINA RESULT:      -6.8      0.000      0.000
REMARK  Name = 
REMARK  6 active torsions:
REMARK  status: ('A' for Active; 'I' for Inactive)
REMARK    1  A    between atoms: C_1  and  O_2
REMARK    2  A    between atoms: O_2  and  C_3
REMARK    3  A    between atoms: C_3  and  C_5
REMARK    4  A    between atoms: C_7  and  C_8
REMARK    5  A    between atoms: C_8  and  N_9
REMARK    6  A    between atoms: C_8  and  C_10
REMARK                            x       y       z     vdW  Elec       q    Type
REMARK                         _______ _______ _______ _____ _____    ______ ____
ROOT
ATOM      1  C   UNL     1       4.669   4.639  18.437  0.00  0.00    +0.000 C 
ENDROOT
BRANCH   1   2
ATOM      2  C   UNL     1       3.310   4.308  19.049  0.00  0.00    +0.000 A 
ATOM      3  C   UNL     1       2.446   3.435  18.360  0.00  0.00    +0.000 A 
ATOM      4  C   UNL     1       1.184   3.109  18.871  0.00  0.00    +0.000 A 
ATOM      5  C   UNL     1       0.755   3.658  20.075  0.00  0.00    +0.000 A 
ATOM      6  C   UNL     1       1.571   4.560  20.749  0.00  0.00    +0.000 A 
ATOM      7  C   UNL     1       2.829   4.893  20.233  0.00  0.00    +0.000 A 
ENDBRANCH   1   2
BRANCH   1  10
ATOM      8  C   UNL     1       5.834   5.208  16.055  0.00  0.00    +0.000 C 
ATOM      9  C   UNL     1       5.249   3.818  16.039  0.00  0.00    +0.000 C 
ATOM     10  C   UNL     1       4.644   4.874  16.941  0.00  0.00    +0.000 C 
BRANCH   8  11
ATOM     11  C   UNL     1       7.234   5.405  16.490  0.00  0.00    +0.000 C 
ATOM     12  O   UNL     1       7.958   4.488  16.842  0.00  0.00    +0.000 OA
BRANCH  11  14
ATOM     13  C   UNL     1       7.540   7.498  17.565  0.00  0.00    +0.000 C 
ATOM     14  O   UNL     1       7.589   6.711  16.371  0.00  0.00    +0.000 OA
ENDBRANCH  11  14
ENDBRANCH   8  11
ENDBRANCH   1  10
BRANCH   1  15
ATOM     15  N   UNL     1       5.599   3.526  18.646  0.00  0.00    +0.000 NA
ATOM     16  H   UNL     1       5.175   2.861  19.288  0.00  0.00    +0.000 HD
ATOM     17  H   UNL     1       6.428   3.882  19.116  0.00  0.00    +0.000 HD
ENDBRANCH   1  15
TORSDOF 5
ENDMDL
MODEL 2
REMARK VINA RESULT:      -6.7      0.079      1.242
REMARK  Name = 
REMARK  6 active torsions:
REMARK  status: ('A' for Active; 'I' for Inactive)
REMARK    1  A    between atoms: C_1  and  O_2
REMARK    2  A    between atoms: O_2  and  C_3
REMARK    3  A    between atoms: C_3  and  C_5
REMARK    4  A    between atoms: C_7  and  C_8
REMARK    5  A    between atoms: C_8  and  N_9
REMARK    6  A    between atoms: C_8  and  C_10
REMARK                            x       y       z     vdW  Elec       q    Type
REMARK                         _______ _______ _______ _____ _____    ______ ____
ROOT
ATOM      1  C   UNL     1       4.625   4.647  18.389  0.00  0.00    +0.000 C 
ENDROOT
BRANCH   1   2
ATOM      2  C   UNL     1       3.252   4.316  18.968  0.00  0.00    +0.000 A 
ATOM      3  C   UNL     1       2.903   4.829  20.233  0.00  0.00    +0.000 A 
ATOM      4  C   UNL     1       1.662   4.545  20.815  0.00  0.00    +0.000 A 
ATOM      5  C   UNL     1       0.749   3.732  20.151  0.00  0.00    +0.000 A 
ATOM      6  C   UNL     1       1.090   3.174  18.924  0.00  0.00    +0.000 A 
ATOM      7  C   UNL     1       2.335   3.451  18.346  0.00  0.00    +0.000 A 
ENDBRANCH   1   2
BRANCH   1  10
ATOM      8  C   UNL     1       5.855   5.170  16.030  0.00  0.00    +0.000 C 
ATOM      9  C   UNL     1       5.286   3.773  16.030  0.00  0.00    +0.000 C 
ATOM     10  C   UNL     1       4.642   4.844  16.888  0.00  0.00    +0.000 C 
BRANCH   8  11
ATOM     11  C   UNL     1       7.239   5.395  16.501  0.00  0.00    +0.000 C 
ATOM     12  O   UNL     1       7.969   4.493  16.879  0.00  0.00    +0.000 OA
BRANCH  11  14
ATOM     13  C   UNL     1       7.570   7.478  17.588  0.00  0.00    +0.000 C 
ATOM     14  O   UNL     1       7.574   6.706  16.383  0.00  0.00    +0.000 OA
ENDBRANCH  11  14
ENDBRANCH   8  11
ENDBRANCH   1  10
BRANCH   1  15
ATOM     15  N   UNL     1       5.559   3.548  18.653  0.00  0.00    +0.000 NA
ATOM     16  H   UNL     1       5.241   2.721  18.153  0.00  0.00    +0.000 HD
ATOM     17  H   UNL     1       5.511   3.315  19.642  0.00  0.00    +0.000 HD
ENDBRANCH   1  15
TORSDOF 5
ENDMDL
MODEL 3
REMARK VINA RESULT:      -6.5      0.981      1.827
REMARK  Name = 
REMARK  6 active torsions:
REMARK  status: ('A' for Active; 'I' for Inactive)
REMARK    1  A    between atoms: C_1  and  O_2
REMARK    2  A    between atoms: O_2  and  C_3
REMARK    3  A    between atoms: C_3  and  C_5
REMARK    4  A    between atoms: C_7  and  C_8
REMARK    5  A    between atoms: C_8  and  N_9
REMARK    6  A    between atoms: C_8  and  C_10
REMARK                            x       y       z     vdW  Elec       q    Type
REMARK                         _______ _______ _______ _____ _____    ______ ____
ROOT
ATOM      1  C   UNL     1       4.446   4.311  18.105  0.00  0.00    +0.000 C 
ENDROOT
BRANCH   1   2
ATOM      2  C   UNL     1       3.130   3.918  18.772  0.00  0.00    +0.000 A 
ATOM      3  C   UNL     1       2.851   4.399  20.066  0.00  0.00    +0.000 A 
ATOM      4  C   UNL     1       1.666   4.059  20.728  0.00  0.00    +0.000 A 
ATOM      5  C   UNL     1       0.740   3.220  20.115  0.00  0.00    +0.000 A 
ATOM      6  C   UNL     1       1.016   2.693  18.858  0.00  0.00    +0.000 A 
ATOM      7  C   UNL     1       2.206   3.027  18.201  0.00  0.00    +0.000 A 
ENDBRANCH   1   2
BRANCH   1  10
ATOM      8  C   UNL     1       5.152   4.718  15.519  0.00  0.00    +0.000 C 
ATOM      9  C   UNL     1       5.940   3.574  16.107  0.00  0.00    +0.000 C 
ATOM     10  C   UNL     1       4.563   3.895  16.654  0.00  0.00    +0.000 C 
BRANCH   8  11
ATOM     11  C   UNL     1       5.687   6.094  15.607  0.00  0.00    +0.000 C 
ATOM     12  O   UNL     1       5.035   7.082  15.311  0.00  0.00    +0.000 OA
BRANCH  11  14
ATOM     13  C   UNL     1       7.154   6.837  17.318  0.00  0.00    +0.000 C 
ATOM     14  O   UNL     1       6.945   6.083  16.119  0.00  0.00    +0.000 OA
ENDBRANCH  11  14
ENDBRANCH   8  11
ENDBRANCH   1  10
BRANCH   1  15
ATOM     15  N   UNL     1       5.569   3.665  18.792  0.00  0.00    +0.000 NA
ATOM     16  H   UNL     1       6.437   4.078  18.459  0.00  0.00    +0.000 HD
ATOM     17  H   UNL     1       5.597   2.687  18.514  0.00  0.00    +0.000 HD
ENDBRANCH   1  15
TORSDOF 5
ENDMDL
MODEL 4
REMARK VINA RESULT:      -6.5      1.981      2.816
REMARK  Name = 
REMARK  6 active torsions:
REMARK  status: ('A' for Active; 'I' for Inactive)
REMARK    1  A    between atoms: C_1  and  O_2
REMARK    2  A    between atoms: O_2  and  C_3
REMARK    3  A    between atoms: C_3  and  C_5
REMARK    4  A    between atoms: C_7  and  C_8
REMARK    5  A    between atoms: C_8  and  N_9
REMARK    6  A    between atoms: C_8  and  C_10
REMARK                            x       y       z     vdW  Elec       q    Type
REMARK                         _______ _______ _______ _____ _____    ______ ____
ROOT
ATOM      1  C   UNL     1       4.505   5.211  16.932  0.00  0.00    +0.000 C 
ENDROOT
BRANCH   1   2
ATOM      2  C   UNL     1       3.445   4.269  17.496  0.00  0.00    +0.000 A 
ATOM      3  C   UNL     1       3.755   2.904  17.647  0.00  0.00    +0.000 A 
ATOM      4  C   UNL     1       2.815   1.996  18.147  0.00  0.00    +0.000 A 
ATOM      5  C   UNL     1       1.539   2.431  18.494  0.00  0.00    +0.000 A 
ATOM      6  C   UNL     1       1.194   3.765  18.308  0.00  0.00    +0.000 A 
ATOM      7  C   UNL     1       2.132   4.671  17.799  0.00  0.00    +0.000 A 
ENDBRANCH   1   2
BRANCH   1  10
ATOM      8  C   UNL     1       7.090   4.642  16.341  0.00  0.00    +0.000 C 
ATOM      9  C   UNL     1       7.001   5.909  17.154  0.00  0.00    +0.000 C 
ATOM     10  C   UNL     1       5.928   4.848  17.301  0.00  0.00    +0.000 C 
BRANCH   8  11
ATOM     11  C   UNL     1       7.043   4.717  14.864  0.00  0.00    +0.000 C 
ATOM     12  O   UNL     1       7.654   5.555  14.220  0.00  0.00    +0.000 OA
BRANCH  11  14
ATOM     13  C   UNL     1       6.210   3.617  12.934  0.00  0.00    +0.000 C 
ATOM     14  O   UNL     1       6.297   3.700  14.360  0.00  0.00    +0.000 OA
ENDBRANCH  11  14
ENDBRANCH   8  11
ENDBRANCH   1  10
BRANCH   1  15
ATOM     15  N   UNL     1       4.298   6.567  17.448  0.00  0.00    +0.000 NA
ATOM     16  H   UNL     1       3.301   6.768  17.448  0.00  0.00    +0.000 HD
ATOM     17  H   UNL     1       4.718   7.227  16.798  0.00  0.00    +0.000 HD
ENDBRANCH   1  15
TORSDOF 5
ENDMDL
MODEL 5
REMARK VINA RESULT:      -6.4      0.877      1.207
REMARK  Name = 
REMARK  6 active torsions:
REMARK  status: ('A' for Active; 'I' for Inactive)
REMARK    1  A    between atoms: C_1  and  O_2
REMARK    2  A    between atoms: O_2  and  C_3
REMARK    3  A    between atoms: C_3  and  C_5
REMARK    4  A    between atoms: C_7  and  C_8
REMARK    5  A    between atoms: C_8  and  N_9
REMARK    6  A    between atoms: C_8  and  C_10
REMARK                            x       y       z     vdW  Elec       q    Type
REMARK                         _______ _______ _______ _____ _____    ______ ____
ROOT
ATOM      1  C   UNL     1       4.532   4.510  18.550  0.00  0.00    +0.000 C 
ENDROOT
BRANCH   1   2
ATOM      2  C   UNL     1       3.157   4.066  19.043  0.00  0.00    +0.000 A 
ATOM      3  C   UNL     1       2.466   3.066  18.330  0.00  0.00    +0.000 A 
ATOM      4  C   UNL     1       1.198   2.632  18.731  0.00  0.00    +0.000 A 
ATOM      5  C   UNL     1       0.586   3.198  19.846  0.00  0.00    +0.000 A 
ATOM      6  C   UNL     1       1.228   4.221  20.537  0.00  0.00    +0.000 A 
ATOM      7  C   UNL     1       2.493   4.660  20.129  0.00  0.00    +0.000 A 
ENDBRANCH   1   2
BRANCH   1  10
ATOM      8  C   UNL     1       5.642   5.622  16.341  0.00  0.00    +0.000 C 
ATOM      9  C   UNL     1       5.748   4.119  16.285  0.00  0.00    +0.000 C 
ATOM     10  C   UNL     1       4.615   4.761  17.060  0.00  0.00    +0.000 C 
BRANCH   8  11
ATOM     11  C   UNL     1       6.730   6.408  16.962  0.00  0.00    +0.000 C 
ATOM     12  O   UNL     1       6.804   7.624  16.882  0.00  0.00    +0.000 OA
BRANCH  11  14
ATOM     13  C   UNL     1       7.938   6.046  18.973  0.00  0.00    +0.000 C 
ATOM     14  O   UNL     1       7.560   5.596  17.668  0.00  0.00    +0.000 OA
ENDBRANCH  11  14
ENDBRANCH   8  11
ENDBRANCH   1  10
BRANCH   1  15
ATOM     15  N   UNL     1       5.525   3.468  18.830  0.00  0.00    +0.000 NA
ATOM     16  H   UNL     1       5.112   2.781  19.455  0.00  0.00    +0.000 HD
ATOM     17  H   UNL     1       6.296   3.888  19.344  0.00  0.00    +0.000 HD
ENDBRANCH   1  15
TORSDOF 5
ENDMDL
MODEL 6
REMARK VINA RESULT:      -6.4      1.342      2.403
REMARK  Name = 
REMARK  6 active torsions:
REMARK  status: ('A' for Active; 'I' for Inactive)
REMARK    1  A    between atoms: C_1  and  O_2
REMARK    2  A    between atoms: O_2  and  C_3
REMARK    3  A    between atoms: C_3  and  C_5
REMARK    4  A    between atoms: C_7  and  C_8
REMARK    5  A    between atoms: C_8  and  N_9
REMARK    6  A    between atoms: C_8  and  C_10
REMARK                            x       y       z     vdW  Elec       q    Type
REMARK                         _______ _______ _______ _____ _____    ______ ____
ROOT
ATOM      1  C   UNL     1       4.095   4.874  17.849  0.00  0.00    +0.000 C 
ENDROOT
BRANCH   1   2
ATOM      2  C   UNL     1       2.887   4.250  18.542  0.00  0.00    +0.000 A 
ATOM      3  C   UNL     1       2.538   4.689  19.834  0.00  0.00    +0.000 A 
ATOM      4  C   UNL     1       1.449   4.141  20.519  0.00  0.00    +0.000 A 
ATOM      5  C   UNL     1       0.691   3.131  19.933  0.00  0.00    +0.000 A 
ATOM      6  C   UNL     1       1.046   2.646  18.679  0.00  0.00    +0.000 A 
ATOM      7  C   UNL     1       2.142   3.189  17.998  0.00  0.00    +0.000 A 
ENDBRANCH   1   2
BRANCH   1  10
ATOM      8  C   UNL     1       6.802   4.725  17.788  0.00  0.00    +0.000 C 
ATOM      9  C   UNL     1       6.339   5.398  19.055  0.00  0.00    +0.000 C 
ATOM     10  C   UNL     1       5.435   4.396  18.367  0.00  0.00    +0.000 C 
BRANCH   8  11
ATOM     11  C   UNL     1       7.082   5.542  16.587  0.00  0.00    +0.000 C 
ATOM     12  O   UNL     1       6.983   6.758  16.571  0.00  0.00    +0.000 OA
BRANCH  11  14
ATOM     13  C   UNL     1       6.517   4.250  14.679  0.00  0.00    +0.000 C 
ATOM     14  O   UNL     1       7.518   4.756  15.568  0.00  0.00    +0.000 OA
ENDBRANCH  11  14
ENDBRANCH   8  11
ENDBRANCH   1  10
BRANCH   1  15
ATOM     15  N   UNL     1       4.092   6.327  18.047  0.00  0.00    +0.000 NA
ATOM     16  H   UNL     1       3.269   6.717  17.594  0.00  0.00    +0.000 HD
ATOM     17  H   UNL     1       4.894   6.720  17.560  0.00  0.00    +0.000 HD
ENDBRANCH   1  15
TORSDOF 5
ENDMDL
MODEL 7
REMARK VINA RESULT:      -6.4      1.585      1.835
REMARK  Name = 
REMARK  6 active torsions:
REMARK  status: ('A' for Active; 'I' for Inactive)
REMARK    1  A    between atoms: C_1  and  O_2
REMARK    2  A    between atoms: O_2  and  C_3
REMARK    3  A    between atoms: C_3  and  C_5
REMARK    4  A    between atoms: C_7  and  C_8
REMARK    5  A    between atoms: C_8  and  N_9
REMARK    6  A    between atoms: C_8  and  C_10
REMARK                            x       y       z     vdW  Elec       q    Type
REMARK                         _______ _______ _______ _____ _____    ______ ____
ROOT
ATOM      1  C   UNL     1       4.202   3.821  18.003  0.00  0.00    +0.000 C 
ENDROOT
BRANCH   1   2
ATOM      2  C   UNL     1       3.224   3.594  19.152  0.00  0.00    +0.000 A 
ATOM      3  C   UNL     1       1.976   4.247  19.126  0.00  0.00    +0.000 A 
ATOM      4  C   UNL     1       1.048   4.084  20.161  0.00  0.00    +0.000 A 
ATOM      5  C   UNL     1       1.353   3.275  21.251  0.00  0.00    +0.000 A 
ATOM      6  C   UNL     1       2.598   2.659  21.323  0.00  0.00    +0.000 A 
ATOM      7  C   UNL     1       3.529   2.830  20.292  0.00  0.00    +0.000 A 
ENDBRANCH   1   2
BRANCH   1  10
ATOM      8  C   UNL     1       6.099   5.705  17.553  0.00  0.00    +0.000 C 
ATOM      9  C   UNL     1       5.048   5.746  16.473  0.00  0.00    +0.000 C 
ATOM     10  C   UNL     1       4.680   5.250  17.857  0.00  0.00    +0.000 C 
BRANCH   8  11
ATOM     11  C   UNL     1       7.289   4.843  17.382  0.00  0.00    +0.000 C 
ATOM     12  O   UNL     1       7.676   4.451  16.293  0.00  0.00    +0.000 OA
BRANCH  11  14
ATOM     13  C   UNL     1       7.913   5.724  19.495  0.00  0.00    +0.000 C 
ATOM     14  O   UNL     1       7.895   4.625  18.578  0.00  0.00    +0.000 OA
ENDBRANCH  11  14
ENDBRANCH   8  11
ENDBRANCH   1  10
BRANCH   1  15
ATOM     15  N   UNL     1       3.563   3.487  16.726  0.00  0.00    +0.000 NA
ATOM     16  H   UNL     1       2.640   3.914  16.701  0.00  0.00    +0.000 HD
ATOM     17  H   UNL     1       3.409   2.482  16.696  0.00  0.00    +0.000 HD
ENDBRANCH   1  15
TORSDOF 5
ENDMDL
MODEL 8
REMARK VINA RESULT:      -6.3      1.098      1.251
REMARK  Name = 
REMARK  6 active torsions:
REMARK  status: ('A' for Active; 'I' for Inactive)
REMARK    1  A    between atoms: C_1  and  O_2
REMARK    2  A    between atoms: O_2  and  C_3
REMARK    3  A    between atoms: C_3  and  C_5
REMARK    4  A    between atoms: C_7  and  C_8
REMARK    5  A    between atoms: C_8  and  N_9
REMARK    6  A    between atoms: C_8  and  C_10
REMARK                            x       y       z     vdW  Elec       q    Type
REMARK                         _______ _______ _______ _____ _____    ______ ____
ROOT
ATOM      1  C   UNL     1       4.634   4.644  18.741  0.00  0.00    +0.000 C 
ENDROOT
BRANCH   1   2
ATOM      2  C   UNL     1       3.458   4.208  19.610  0.00  0.00    +0.000 A 
ATOM      3  C   UNL     1       3.545   2.994  20.318  0.00  0.00    +0.000 A 
ATOM      4  C   UNL     1       2.490   2.542  21.119  0.00  0.00    +0.000 A 
ATOM      5  C   UNL     1       1.319   3.287  21.219  0.00  0.00    +0.000 A 
ATOM      6  C   UNL     1       1.191   4.464  20.490  0.00  0.00    +0.000 A 
ATOM      7  C   UNL     1       2.243   4.912  19.682  0.00  0.00    +0.000 A 
ENDBRANCH   1   2
BRANCH   1  10
ATOM      8  C   UNL     1       5.140   5.721  16.304  0.00  0.00    +0.000 C 
ATOM      9  C   UNL     1       4.936   4.231  16.191  0.00  0.00    +0.000 C 
ATOM     10  C   UNL     1       4.265   4.995  17.315  0.00  0.00    +0.000 C 
BRANCH   8  11
ATOM     11  C   UNL     1       6.499   6.257  16.532  0.00  0.00    +0.000 C 
ATOM     12  O   UNL     1       7.500   5.770  16.031  0.00  0.00    +0.000 OA
BRANCH  11  14
ATOM     13  C   UNL     1       7.696   8.009  17.594  0.00  0.00    +0.000 C 
ATOM     14  O   UNL     1       6.447   7.376  17.301  0.00  0.00    +0.000 OA
ENDBRANCH  11  14
ENDBRANCH   8  11
ENDBRANCH   1  10
BRANCH   1  15
ATOM     15  N   UNL     1       5.613   3.558  18.639  0.00  0.00    +0.000 NA
ATOM     16  H   UNL     1       5.163   2.686  18.908  0.00  0.00    +0.000 HD
ATOM     17  H   UNL     1       6.346   3.720  19.325  0.00  0.00    +0.000 HD
ENDBRANCH   1  15
TORSDOF 5
ENDMDL
MODEL 9
REMARK VINA RESULT:      -6.3      3.220      5.687
REMARK  Name = 
REMARK  6 active torsions:
REMARK  status: ('A' for Active; 'I' for Inactive)
REMARK    1  A    between atoms: C_1  and  O_2
REMARK    2  A    between atoms: O_2  and  C_3
REMARK    3  A    between atoms: C_3  and  C_5
REMARK    4  A    between atoms: C_7  and  C_8
REMARK    5  A    between atoms: C_8  and  N_9
REMARK    6  A    between atoms: C_8  and  C_10
REMARK                            x       y       z     vdW  Elec       q    Type
REMARK                         _______ _______ _______ _____ _____    ______ ____
ROOT
ATOM      1  C   UNL     1       4.178   4.836  19.020  0.00  0.00    +0.000 C 
ENDROOT
BRANCH   1   2
ATOM      2  C   UNL     1       5.451   5.594  18.652  0.00  0.00    +0.000 A 
ATOM      3  C   UNL     1       5.433   6.464  17.545  0.00  0.00    +0.000 A 
ATOM      4  C   UNL     1       6.575   7.173  17.158  0.00  0.00    +0.000 A 
ATOM      5  C   UNL     1       7.766   7.017  17.861  0.00  0.00    +0.000 A 
ATOM      6  C   UNL     1       7.822   6.126  18.928  0.00  0.00    +0.000 A 
ATOM      7  C   UNL     1       6.681   5.411  19.309  0.00  0.00    +0.000 A 
ENDBRANCH   1   2
BRANCH   1  10
ATOM      8  C   UNL     1       2.060   3.634  17.828  0.00  0.00    +0.000 C 
ATOM      9  C   UNL     1       1.802   5.110  18.000  0.00  0.00    +0.000 C 
ATOM     10  C   UNL     1       3.226   4.610  17.865  0.00  0.00    +0.000 C 
BRANCH   8  11
ATOM     11  C   UNL     1       1.658   2.693  18.896  0.00  0.00    +0.000 C 
ATOM     12  O   UNL     1       1.948   1.508  18.884  0.00  0.00    +0.000 OA
BRANCH  11  14
ATOM     13  C   UNL     1       1.293   2.942  21.228  0.00  0.00    +0.000 C 
ATOM     14  O   UNL     1       1.003   3.352  19.888  0.00  0.00    +0.000 OA
ENDBRANCH  11  14
ENDBRANCH   8  11
ENDBRANCH   1  10
BRANCH   1  15
ATOM     15  N   UNL     1       3.415   5.591  20.018  0.00  0.00    +0.000 NA
ATOM     16  H   UNL     1       2.520   5.130  20.162  0.00  0.00    +0.000 HD
ATOM     17  H   UNL     1       3.201   6.508  19.634  0.00  0.00    +0.000 HD
ENDBRANCH   1  15
TORSDOF 5
ENDMDL
