MODEL 1
REMARK VINA RESULT:      -8.2      0.000      0.000
REMARK  Name = 
REMARK  6 active torsions:
REMARK  status: ('A' for Active; 'I' for Inactive)
REMARK    1  A    between atoms: C_1  and  O_2
REMARK    2  A    between atoms: O_2  and  C_3
REMARK    3  A    between atoms: C_8  and  N_9
REMARK    4  A    between atoms: C_10  and  C_12
REMARK    5  A    between atoms: C_14  and  C_15
REMARK    6  A    between atoms: C_15  and  C_16
REMARK                            x       y       z     vdW  Elec       q    Type
REMARK                         _______ _______ _______ _____ _____    ______ ____
ROOT
ATOM      1  C   UNL     1       5.992   4.815  15.917  0.00  0.00    +0.000 A 
ATOM      2  C   UNL     1       5.773   4.562  14.577  0.00  0.00    +0.000 A 
ATOM      3  C   UNL     1       6.926   5.060  13.902  0.00  0.00    +0.000 A 
ATOM      4  N   UNL     1       7.800   5.595  14.766  0.00  0.00    +0.000 NA
ATOM      5  N   UNL     1       7.201   5.463  15.955  0.00  0.00    +0.000 N 
ATOM      6  H   UNL     1       7.665   5.818  16.787  0.00  0.00    +0.000 HD
ENDROOT
BRANCH   1   8
ATOM      7  N   UNL     1       3.915   4.818  17.147  0.00  0.00    +0.000 N 
ATOM      8  C   UNL     1       5.280   4.580  17.149  0.00  0.00    +0.000 C 
ATOM      9  O   UNL     1       5.911   4.160  18.116  0.00  0.00    +0.000 OA
ATOM     10  H   UNL     1       3.440   4.961  16.267  0.00  0.00    +0.000 HD
BRANCH   7  16
ATOM     11  C   UNL     1       2.387   3.601  18.633  0.00  0.00    +0.000 A 
ATOM     12  C   UNL     1       1.507   3.594  19.729  0.00  0.00    +0.000 A 
ATOM     13  C   UNL     1       1.335   4.731  20.515  0.00  0.00    +0.000 A 
ATOM     14  C   UNL     1       2.022   5.894  20.201  0.00  0.00    +0.000 A 
ATOM     15  C   UNL     1       2.869   5.923  19.094  0.00  0.00    +0.000 A 
ATOM     16  C   UNL     1       3.070   4.790  18.295  0.00  0.00    +0.000 A 
BRANCH  11  18
ATOM     17  C   UNL     1       3.454   1.494  18.472  0.00  0.00    +0.000 C 
ATOM     18  O   UNL     1       2.627   2.489  17.857  0.00  0.00    +0.000 OA
ENDBRANCH  11  18
ENDBRANCH   7  16
ENDBRANCH   1   8
BRANCH   3  19
ATOM     19  C   UNL     1       7.270   4.965  12.453  0.00  0.00    +0.000 C 
BRANCH  19  20
ATOM     20  C   UNL     1       6.819   3.609  11.964  0.00  0.00    +0.000 A 
ATOM     21  C   UNL     1       7.762   2.636  11.585  0.00  0.00    +0.000 A 
ATOM     22  C   UNL     1       7.348   1.365  11.181  0.00  0.00    +0.000 A 
ATOM     23  C   UNL     1       5.992   1.067  11.146  0.00  0.00    +0.000 A 
ATOM     24  F   UNL     1       5.593  -0.155  10.766  0.00  0.00    +0.000 F 
ATOM     25  C   UNL     1       5.042   2.016  11.502  0.00  0.00    +0.000 A 
ATOM     26  C   UNL     1       5.452   3.286  11.910  0.00  0.00    +0.000 A 
ENDBRANCH  19  20
ENDBRANCH   3  19
TORSDOF 5
ENDMDL
MODEL 2
REMARK VINA RESULT:      -8.2      1.068      1.917
REMARK  Name = 
REMARK  6 active torsions:
REMARK  status: ('A' for Active; 'I' for Inactive)
REMARK    1  A    between atoms: C_1  and  O_2
REMARK    2  A    between atoms: O_2  and  C_3
REMARK    3  A    between atoms: C_8  and  N_9
REMARK    4  A    between atoms: C_10  and  C_12
REMARK    5  A    between atoms: C_14  and  C_15
REMARK    6  A    between atoms: C_15  and  C_16
REMARK                            x       y       z     vdW  Elec       q    Type
REMARK                         _______ _______ _______ _____ _____    ______ ____
ROOT
ATOM      1  C   UNL     1       5.883   4.452  16.418  0.00  0.00    +0.000 A 
ATOM      2  C   UNL     1       5.538   4.666  15.099  0.00  0.00    +0.000 A 
ATOM      3  C   UNL     1       6.770   4.886  14.414  0.00  0.00    +0.000 A 
ATOM      4  N   UNL     1       7.810   4.822  15.255  0.00  0.00    +0.000 NA
ATOM      5  N   UNL     1       7.248   4.594  16.449  0.00  0.00    +0.000 N 
ATOM      6  H   UNL     1       7.841   4.521  17.271  0.00  0.00    +0.000 HD
ENDROOT
BRANCH   1   8
ATOM      7  N   UNL     1       3.803   4.026  17.567  0.00  0.00    +0.000 N 
ATOM      8  C   UNL     1       5.179   4.160  17.643  0.00  0.00    +0.000 C 
ATOM      9  O   UNL     1       5.835   4.019  18.673  0.00  0.00    +0.000 OA
ATOM     10  H   UNL     1       3.364   3.951  16.659  0.00  0.00    +0.000 HD
BRANCH   7  16
ATOM     11  C   UNL     1       2.530   5.035  19.406  0.00  0.00    +0.000 A 
ATOM     12  C   UNL     1       1.710   4.890  20.540  0.00  0.00    +0.000 A 
ATOM     13  C   UNL     1       1.242   3.637  20.928  0.00  0.00    +0.000 A 
ATOM     14  C   UNL     1       1.606   2.512  20.203  0.00  0.00    +0.000 A 
ATOM     15  C   UNL     1       2.448   2.640  19.099  0.00  0.00    +0.000 A 
ATOM     16  C   UNL     1       2.922   3.889  18.679  0.00  0.00    +0.000 A 
BRANCH  11  18
ATOM     17  C   UNL     1       2.275   7.387  19.486  0.00  0.00    +0.000 C 
ATOM     18  O   UNL     1       2.976   6.257  18.955  0.00  0.00    +0.000 OA
ENDBRANCH  11  18
ENDBRANCH   7  16
ENDBRANCH   1   8
BRANCH   3  19
ATOM     19  C   UNL     1       7.001   5.072  12.952  0.00  0.00    +0.000 C 
BRANCH  19  20
ATOM     20  C   UNL     1       6.701   3.757  12.271  0.00  0.00    +0.000 A 
ATOM     21  C   UNL     1       7.748   2.945  11.793  0.00  0.00    +0.000 A 
ATOM     22  C   UNL     1       7.475   1.707  11.210  0.00  0.00    +0.000 A 
ATOM     23  C   UNL     1       6.158   1.280  11.092  0.00  0.00    +0.000 A 
ATOM     24  F   UNL     1       5.896   0.089  10.540  0.00  0.00    +0.000 F 
ATOM     25  C   UNL     1       5.108   2.071  11.543  0.00  0.00    +0.000 A 
ATOM     26  C   UNL     1       5.377   3.308  12.131  0.00  0.00    +0.000 A 
ENDBRANCH  19  20
ENDBRANCH   3  19
TORSDOF 5
ENDMDL
MODEL 3
REMARK VINA RESULT:      -8.0      6.555      8.898
REMARK  Name = 
REMARK  6 active torsions:
REMARK  status: ('A' for Active; 'I' for Inactive)
REMARK    1  A    between atoms: C_1  and  O_2
REMARK    2  A    between atoms: O_2  and  C_3
REMARK    3  A    between atoms: C_8  and  N_9
REMARK    4  A    between atoms: C_10  and  C_12
REMARK    5  A    between atoms: C_14  and  C_15
REMARK    6  A    between atoms: C_15  and  C_16
REMARK                            x       y       z     vdW  Elec       q    Type
REMARK                         _______ _______ _______ _____ _____    ______ ____
ROOT
ATOM      1  C   UNL     1       8.316   8.376  18.293  0.00  0.00    +0.000 A 
ATOM      2  C   UNL     1       8.249   7.092  18.795  0.00  0.00    +0.000 A 
ATOM      3  C   UNL     1       7.496   6.348  17.839  0.00  0.00    +0.000 A 
ATOM      4  N   UNL     1       7.112   7.122  16.815  0.00  0.00    +0.000 NA
ATOM      5  N   UNL     1       7.588   8.333  17.130  0.00  0.00    +0.000 N 
ATOM      6  H   UNL     1       7.408   9.114  16.505  0.00  0.00    +0.000 HD
ENDROOT
BRANCH   1   8
ATOM      7  N   UNL     1       9.252  10.521  17.707  0.00  0.00    +0.000 N 
ATOM      8  C   UNL     1       8.911   9.623  18.704  0.00  0.00    +0.000 C 
ATOM      9  O   UNL     1       9.056   9.832  19.907  0.00  0.00    +0.000 OA
ATOM     10  H   UNL     1       8.915  10.367  16.767  0.00  0.00    +0.000 HD
BRANCH   7  16
ATOM     11  C   UNL     1       9.335  12.974  17.718  0.00  0.00    +0.000 A 
ATOM     12  C   UNL     1      10.072  14.165  17.847  0.00  0.00    +0.000 A 
ATOM     13  C   UNL     1      11.420  14.137  18.196  0.00  0.00    +0.000 A 
ATOM     14  C   UNL     1      12.053  12.919  18.397  0.00  0.00    +0.000 A 
ATOM     15  C   UNL     1      11.341  11.731  18.235  0.00  0.00    +0.000 A 
ATOM     16  C   UNL     1       9.982  11.731  17.898  0.00  0.00    +0.000 A 
BRANCH  11  18
ATOM     17  C   UNL     1       7.289  14.165  17.726  0.00  0.00    +0.000 C 
ATOM     18  O   UNL     1       7.990  12.953  17.423  0.00  0.00    +0.000 OA
ENDBRANCH  11  18
ENDBRANCH   7  16
ENDBRANCH   1   8
BRANCH   3  19
ATOM     19  C   UNL     1       7.199   4.885  17.823  0.00  0.00    +0.000 C 
BRANCH  19  20
ATOM     20  C   UNL     1       5.715   4.717  18.044  0.00  0.00    +0.000 A 
ATOM     21  C   UNL     1       5.107   5.207  19.217  0.00  0.00    +0.000 A 
ATOM     22  C   UNL     1       3.727   5.098  19.399  0.00  0.00    +0.000 A 
ATOM     23  C   UNL     1       2.953   4.491  18.419  0.00  0.00    +0.000 A 
ATOM     24  F   UNL     1       1.628   4.392  18.589  0.00  0.00    +0.000 F 
ATOM     25  C   UNL     1       3.533   3.987  17.260  0.00  0.00    +0.000 A 
ATOM     26  C   UNL     1       4.910   4.098  17.072  0.00  0.00    +0.000 A 
ENDBRANCH  19  20
ENDBRANCH   3  19
TORSDOF 5
ENDMDL
MODEL 4
REMARK VINA RESULT:      -8.0      6.693      9.028
REMARK  Name = 
REMARK  6 active torsions:
REMARK  status: ('A' for Active; 'I' for Inactive)
REMARK    1  A    between atoms: C_1  and  O_2
REMARK    2  A    between atoms: O_2  and  C_3
REMARK    3  A    between atoms: C_8  and  N_9
REMARK    4  A    between atoms: C_10  and  C_12
REMARK    5  A    between atoms: C_14  and  C_15
REMARK    6  A    between atoms: C_15  and  C_16
REMARK                            x       y       z     vdW  Elec       q    Type
REMARK                         _______ _______ _______ _____ _____    ______ ____
ROOT
ATOM      1  C   UNL     1       8.361   8.587  18.333  0.00  0.00    +0.000 A 
ATOM      2  C   UNL     1       8.332   7.296  18.819  0.00  0.00    +0.000 A 
ATOM      3  C   UNL     1       7.526   6.561  17.899  0.00  0.00    +0.000 A 
ATOM      4  N   UNL     1       7.078   7.347  16.911  0.00  0.00    +0.000 NA
ATOM      5  N   UNL     1       7.565   8.557  17.215  0.00  0.00    +0.000 N 
ATOM      6  H   UNL     1       7.345   9.346  16.613  0.00  0.00    +0.000 HD
ENDROOT
BRANCH   1   8
ATOM      7  N   UNL     1       9.324  10.713  17.715  0.00  0.00    +0.000 N 
ATOM      8  C   UNL     1       8.974   9.832  18.725  0.00  0.00    +0.000 C 
ATOM      9  O   UNL     1       9.125  10.056  19.925  0.00  0.00    +0.000 OA
ATOM     10  H   UNL     1       8.982  10.550  16.778  0.00  0.00    +0.000 HD
BRANCH   7  16
ATOM     11  C   UNL     1       9.397  13.158  17.916  0.00  0.00    +0.000 A 
ATOM     12  C   UNL     1      10.140  14.346  18.026  0.00  0.00    +0.000 A 
ATOM     13  C   UNL     1      11.526  14.314  18.153  0.00  0.00    +0.000 A 
ATOM     14  C   UNL     1      12.188  13.095  18.150  0.00  0.00    +0.000 A 
ATOM     15  C   UNL     1      11.465  11.912  18.005  0.00  0.00    +0.000 A 
ATOM     16  C   UNL     1      10.069  11.916  17.888  0.00  0.00    +0.000 A 
BRANCH  11  18
ATOM     17  C   UNL     1       7.401  14.428  17.808  0.00  0.00    +0.000 C 
ATOM     18  O   UNL     1       8.022  13.137  17.838  0.00  0.00    +0.000 OA
ENDBRANCH  11  18
ENDBRANCH   7  16
ENDBRANCH   1   8
BRANCH   3  19
ATOM     19  C   UNL     1       7.237   5.097  17.880  0.00  0.00    +0.000 C 
BRANCH  19  20
ATOM     20  C   UNL     1       5.748   4.923  18.067  0.00  0.00    +0.000 A 
ATOM     21  C   UNL     1       4.965   4.336  17.055  0.00  0.00    +0.000 A 
ATOM     22  C   UNL     1       3.598   4.128  17.247  0.00  0.00    +0.000 A 
ATOM     23  C   UNL     1       3.008   4.514  18.443  0.00  0.00    +0.000 A 
ATOM     24  F   UNL     1       1.698   4.307  18.632  0.00  0.00    +0.000 F 
ATOM     25  C   UNL     1       3.759   5.108  19.451  0.00  0.00    +0.000 A 
ATOM     26  C   UNL     1       5.126   5.314  19.264  0.00  0.00    +0.000 A 
ENDBRANCH  19  20
ENDBRANCH   3  19
TORSDOF 5
ENDMDL
MODEL 5
REMARK VINA RESULT:      -7.9      1.068      2.022
REMARK  Name = 
REMARK  6 active torsions:
REMARK  status: ('A' for Active; 'I' for Inactive)
REMARK    1  A    between atoms: C_1  and  O_2
REMARK    2  A    between atoms: O_2  and  C_3
REMARK    3  A    between atoms: C_8  and  N_9
REMARK    4  A    between atoms: C_10  and  C_12
REMARK    5  A    between atoms: C_14  and  C_15
REMARK    6  A    between atoms: C_15  and  C_16
REMARK                            x       y       z     vdW  Elec       q    Type
REMARK                         _______ _______ _______ _____ _____    ______ ____
ROOT
ATOM      1  C   UNL     1       6.070   4.617  16.295  0.00  0.00    +0.000 A 
ATOM      2  C   UNL     1       5.641   4.620  14.983  0.00  0.00    +0.000 A 
ATOM      3  C   UNL     1       6.782   4.988  14.210  0.00  0.00    +0.000 A 
ATOM      4  N   UNL     1       7.847   5.208  14.992  0.00  0.00    +0.000 NA
ATOM      5  N   UNL     1       7.384   5.010  16.232  0.00  0.00    +0.000 N 
ATOM      6  H   UNL     1       8.011   5.137  17.023  0.00  0.00    +0.000 HD
ENDROOT
BRANCH   1   8
ATOM      7  N   UNL     1       4.126   4.052  17.608  0.00  0.00    +0.000 N 
ATOM      8  C   UNL     1       5.481   4.335  17.580  0.00  0.00    +0.000 C 
ATOM      9  O   UNL     1       6.212   4.332  18.569  0.00  0.00    +0.000 OA
ATOM     10  H   UNL     1       3.641   3.871  16.740  0.00  0.00    +0.000 HD
BRANCH   7  16
ATOM     11  C   UNL     1       2.349   4.858  19.098  0.00  0.00    +0.000 A 
ATOM     12  C   UNL     1       1.615   4.736  20.291  0.00  0.00    +0.000 A 
ATOM     13  C   UNL     1       1.816   3.655  21.146  0.00  0.00    +0.000 A 
ATOM     14  C   UNL     1       2.768   2.697  20.832  0.00  0.00    +0.000 A 
ATOM     15  C   UNL     1       3.528   2.829  19.670  0.00  0.00    +0.000 A 
ATOM     16  C   UNL     1       3.337   3.898  18.786  0.00  0.00    +0.000 A 
BRANCH  11  18
ATOM     17  C   UNL     1       2.779   7.120  18.546  0.00  0.00    +0.000 C 
ATOM     18  O   UNL     1       2.151   5.881  18.197  0.00  0.00    +0.000 OA
ENDBRANCH  11  18
ENDBRANCH   7  16
ENDBRANCH   1   8
BRANCH   3  19
ATOM     19  C   UNL     1       6.918   5.054  12.725  0.00  0.00    +0.000 C 
BRANCH  19  20
ATOM     20  C   UNL     1       6.637   3.675  12.179  0.00  0.00    +0.000 A 
ATOM     21  C   UNL     1       5.312   3.214  12.050  0.00  0.00    +0.000 A 
ATOM     22  C   UNL     1       5.048   1.959  11.498  0.00  0.00    +0.000 A 
ATOM     23  C   UNL     1       6.104   1.158  11.083  0.00  0.00    +0.000 A 
ATOM     24  F   UNL     1       5.851  -0.043  10.545  0.00  0.00    +0.000 F 
ATOM     25  C   UNL     1       7.420   1.586  11.213  0.00  0.00    +0.000 A 
ATOM     26  C   UNL     1       7.688   2.840  11.760  0.00  0.00    +0.000 A 
ENDBRANCH  19  20
ENDBRANCH   3  19
TORSDOF 5
ENDMDL
MODEL 6
REMARK VINA RESULT:      -7.9      1.203      1.352
REMARK  Name = 
REMARK  6 active torsions:
REMARK  status: ('A' for Active; 'I' for Inactive)
REMARK    1  A    between atoms: C_1  and  O_2
REMARK    2  A    between atoms: O_2  and  C_3
REMARK    3  A    between atoms: C_8  and  N_9
REMARK    4  A    between atoms: C_10  and  C_12
REMARK    5  A    between atoms: C_14  and  C_15
REMARK    6  A    between atoms: C_15  and  C_16
REMARK                            x       y       z     vdW  Elec       q    Type
REMARK                         _______ _______ _______ _____ _____    ______ ____
ROOT
ATOM      1  C   UNL     1       5.886   4.800  16.319  0.00  0.00    +0.000 A 
ATOM      2  C   UNL     1       5.558   5.098  15.012  0.00  0.00    +0.000 A 
ATOM      3  C   UNL     1       6.775   4.978  14.278  0.00  0.00    +0.000 A 
ATOM      4  N   UNL     1       7.793   4.638  15.078  0.00  0.00    +0.000 NA
ATOM      5  N   UNL     1       7.239   4.570  16.295  0.00  0.00    +0.000 N 
ATOM      6  H   UNL     1       7.824   4.342  17.095  0.00  0.00    +0.000 HD
ENDROOT
BRANCH   1   8
ATOM      7  N   UNL     1       4.174   3.763  17.668  0.00  0.00    +0.000 N 
ATOM      8  C   UNL     1       5.180   4.709  17.574  0.00  0.00    +0.000 C 
ATOM      9  O   UNL     1       5.525   5.450  18.492  0.00  0.00    +0.000 OA
ATOM     10  H   UNL     1       4.090   3.058  16.948  0.00  0.00    +0.000 HD
BRANCH   7  16
ATOM     11  C   UNL     1       3.606   2.779  19.844  0.00  0.00    +0.000 A 
ATOM     12  C   UNL     1       2.686   2.595  20.891  0.00  0.00    +0.000 A 
ATOM     13  C   UNL     1       1.468   3.269  20.899  0.00  0.00    +0.000 A 
ATOM     14  C   UNL     1       1.144   4.117  19.850  0.00  0.00    +0.000 A 
ATOM     15  C   UNL     1       2.032   4.278  18.788  0.00  0.00    +0.000 A 
ATOM     16  C   UNL     1       3.270   3.622  18.761  0.00  0.00    +0.000 A 
BRANCH  11  18
ATOM     17  C   UNL     1       5.145   1.371  20.964  0.00  0.00    +0.000 C 
ATOM     18  O   UNL     1       4.843   2.173  19.816  0.00  0.00    +0.000 OA
ENDBRANCH  11  18
ENDBRANCH   7  16
ENDBRANCH   1   8
BRANCH   3  19
ATOM     19  C   UNL     1       6.987   5.093  12.805  0.00  0.00    +0.000 C 
BRANCH  19  20
ATOM     20  C   UNL     1       6.678   3.749  12.192  0.00  0.00    +0.000 A 
ATOM     21  C   UNL     1       7.718   2.895  11.777  0.00  0.00    +0.000 A 
ATOM     22  C   UNL     1       7.435   1.631  11.258  0.00  0.00    +0.000 A 
ATOM     23  C   UNL     1       6.114   1.220  11.140  0.00  0.00    +0.000 A 
ATOM     24  F   UNL     1       5.841   0.004  10.648  0.00  0.00    +0.000 F 
ATOM     25  C   UNL     1       5.069   2.051  11.528  0.00  0.00    +0.000 A 
ATOM     26  C   UNL     1       5.349   3.313  12.052  0.00  0.00    +0.000 A 
ENDBRANCH  19  20
ENDBRANCH   3  19
TORSDOF 5
ENDMDL
MODEL 7
REMARK VINA RESULT:      -7.9      6.957      9.443
REMARK  Name = 
REMARK  6 active torsions:
REMARK  status: ('A' for Active; 'I' for Inactive)
REMARK    1  A    between atoms: C_1  and  O_2
REMARK    2  A    between atoms: O_2  and  C_3
REMARK    3  A    between atoms: C_8  and  N_9
REMARK    4  A    between atoms: C_10  and  C_12
REMARK    5  A    between atoms: C_14  and  C_15
REMARK    6  A    between atoms: C_15  and  C_16
REMARK                            x       y       z     vdW  Elec       q    Type
REMARK                         _______ _______ _______ _____ _____    ______ ____
ROOT
ATOM      1  C   UNL     1       8.361   8.744  18.392  0.00  0.00    +0.000 A 
ATOM      2  C   UNL     1       7.430   8.367  17.445  0.00  0.00    +0.000 A 
ATOM      3  C   UNL     1       7.211   6.974  17.661  0.00  0.00    +0.000 A 
ATOM      4  N   UNL     1       7.964   6.515  18.669  0.00  0.00    +0.000 NA
ATOM      5  N   UNL     1       8.664   7.586  19.063  0.00  0.00    +0.000 N 
ATOM      6  H   UNL     1       9.335   7.489  19.821  0.00  0.00    +0.000 HD
ENDROOT
BRANCH   1   8
ATOM      7  N   UNL     1       9.387  10.831  17.746  0.00  0.00    +0.000 N 
ATOM      8  C   UNL     1       9.026   9.968  18.766  0.00  0.00    +0.000 C 
ATOM      9  O   UNL     1       9.209  10.190  19.962  0.00  0.00    +0.000 OA
ATOM     10  H   UNL     1       9.021  10.677  16.816  0.00  0.00    +0.000 HD
BRANCH   7  16
ATOM     11  C   UNL     1       9.567  13.278  17.814  0.00  0.00    +0.000 A 
ATOM     12  C   UNL     1      10.360  14.436  17.904  0.00  0.00    +0.000 A 
ATOM     13  C   UNL     1      11.733  14.348  18.122  0.00  0.00    +0.000 A 
ATOM     14  C   UNL     1      12.333  13.102  18.229  0.00  0.00    +0.000 A 
ATOM     15  C   UNL     1      11.563  11.947  18.104  0.00  0.00    +0.000 A 
ATOM     16  C   UNL     1      10.179  12.007  17.898  0.00  0.00    +0.000 A 
BRANCH  11  18
ATOM     17  C   UNL     1       7.580  14.542  18.051  0.00  0.00    +0.000 C 
ATOM     18  O   UNL     1       8.201  13.315  17.649  0.00  0.00    +0.000 OA
ENDBRANCH  11  18
ENDBRANCH   7  16
ENDBRANCH   1   8
BRANCH   3  19
ATOM     19  C   UNL     1       6.231   6.071  16.988  0.00  0.00    +0.000 C 
BRANCH  19  20
ATOM     20  C   UNL     1       4.972   6.060  17.823  0.00  0.00    +0.000 A 
ATOM     21  C   UNL     1       4.830   5.151  18.889  0.00  0.00    +0.000 A 
ATOM     22  C   UNL     1       3.689   5.174  19.693  0.00  0.00    +0.000 A 
ATOM     23  C   UNL     1       2.684   6.094  19.429  0.00  0.00    +0.000 A 
ATOM     24  F   UNL     1       1.592   6.122  20.205  0.00  0.00    +0.000 F 
ATOM     25  C   UNL     1       2.795   6.991  18.373  0.00  0.00    +0.000 A 
ATOM     26  C   UNL     1       3.936   6.975  17.570  0.00  0.00    +0.000 A 
ENDBRANCH  19  20
ENDBRANCH   3  19
TORSDOF 5
ENDMDL
MODEL 8
REMARK VINA RESULT:      -7.9      6.816      9.223
REMARK  Name = 
REMARK  6 active torsions:
REMARK  status: ('A' for Active; 'I' for Inactive)
REMARK    1  A    between atoms: C_1  and  O_2
REMARK    2  A    between atoms: O_2  and  C_3
REMARK    3  A    between atoms: C_8  and  N_9
REMARK    4  A    between atoms: C_10  and  C_12
REMARK    5  A    between atoms: C_14  and  C_15
REMARK    6  A    between atoms: C_15  and  C_16
REMARK                            x       y       z     vdW  Elec       q    Type
REMARK                         _______ _______ _______ _____ _____    ______ ____
ROOT
ATOM      1  C   UNL     1       8.384   8.617  18.339  0.00  0.00    +0.000 A 
ATOM      2  C   UNL     1       7.588   8.199  17.293  0.00  0.00    +0.000 A 
ATOM      3  C   UNL     1       7.323   6.819  17.544  0.00  0.00    +0.000 A 
ATOM      4  N   UNL     1       7.923   6.407  18.669  0.00  0.00    +0.000 NA
ATOM      5  N   UNL     1       8.575   7.493  19.103  0.00  0.00    +0.000 N 
ATOM      6  H   UNL     1       9.134   7.430  19.950  0.00  0.00    +0.000 HD
ENDROOT
BRANCH   1   8
ATOM      7  N   UNL     1       9.386  10.729  17.737  0.00  0.00    +0.000 N 
ATOM      8  C   UNL     1       9.006   9.854  18.742  0.00  0.00    +0.000 C 
ATOM      9  O   UNL     1       9.139  10.077  19.943  0.00  0.00    +0.000 OA
ATOM     10  H   UNL     1       9.059  10.569  16.794  0.00  0.00    +0.000 HD
BRANCH   7  16
ATOM     11  C   UNL     1       9.503  13.178  17.846  0.00  0.00    +0.000 A 
ATOM     12  C   UNL     1      10.264  14.354  17.969  0.00  0.00    +0.000 A 
ATOM     13  C   UNL     1      11.634  14.297  18.210  0.00  0.00    +0.000 A 
ATOM     14  C   UNL     1      12.264  13.066  18.309  0.00  0.00    +0.000 A 
ATOM     15  C   UNL     1      11.526  11.893  18.152  0.00  0.00    +0.000 A 
ATOM     16  C   UNL     1      10.145  11.922  17.922  0.00  0.00    +0.000 A 
BRANCH  11  18
ATOM     17  C   UNL     1       7.503  14.444  17.899  0.00  0.00    +0.000 C 
ATOM     18  O   UNL     1       8.139  13.183  17.657  0.00  0.00    +0.000 OA
ENDBRANCH  11  18
ENDBRANCH   7  16
ENDBRANCH   1   8
BRANCH   3  19
ATOM     19  C   UNL     1       6.433   5.890  16.788  0.00  0.00    +0.000 C 
BRANCH  19  20
ATOM     20  C   UNL     1       5.158   5.729  17.581  0.00  0.00    +0.000 A 
ATOM     21  C   UNL     1       4.172   6.734  17.559  0.00  0.00    +0.000 A 
ATOM     22  C   UNL     1       2.971   6.565  18.251  0.00  0.00    +0.000 A 
ATOM     23  C   UNL     1       2.757   5.399  18.974  0.00  0.00    +0.000 A 
ATOM     24  F   UNL     1       1.602   5.232  19.632  0.00  0.00    +0.000 F 
ATOM     25  C   UNL     1       3.722   4.400  19.022  0.00  0.00    +0.000 A 
ATOM     26  C   UNL     1       4.921   4.563  18.329  0.00  0.00    +0.000 A 
ENDBRANCH  19  20
ENDBRANCH   3  19
TORSDOF 5
ENDMDL
MODEL 9
REMARK VINA RESULT:      -7.8      6.632      8.791
REMARK  Name = 
REMARK  6 active torsions:
REMARK  status: ('A' for Active; 'I' for Inactive)
REMARK    1  A    between atoms: C_1  and  O_2
REMARK    2  A    between atoms: O_2  and  C_3
REMARK    3  A    between atoms: C_8  and  N_9
REMARK    4  A    between atoms: C_10  and  C_12
REMARK    5  A    between atoms: C_14  and  C_15
REMARK    6  A    between atoms: C_15  and  C_16
REMARK                            x       y       z     vdW  Elec       q    Type
REMARK                         _______ _______ _______ _____ _____    ______ ____
ROOT
ATOM      1  C   UNL     1       8.163   8.372  18.210  0.00  0.00    +0.000 A 
ATOM      2  C   UNL     1       7.389   7.700  17.286  0.00  0.00    +0.000 A 
ATOM      3  C   UNL     1       7.318   6.355  17.755  0.00  0.00    +0.000 A 
ATOM      4  N   UNL     1       8.011   6.200  18.891  0.00  0.00    +0.000 NA
ATOM      5  N   UNL     1       8.531   7.413  19.120  0.00  0.00    +0.000 N 
ATOM      6  H   UNL     1       9.126   7.552  19.933  0.00  0.00    +0.000 HD
ENDROOT
BRANCH   1   8
ATOM      7  N   UNL     1       9.525   9.956  19.419  0.00  0.00    +0.000 N 
ATOM      8  C   UNL     1       8.632   9.724  18.386  0.00  0.00    +0.000 C 
ATOM      9  O   UNL     1       8.241  10.585  17.600  0.00  0.00    +0.000 OA
ATOM     10  H   UNL     1       9.955   9.169  19.885  0.00  0.00    +0.000 HD
BRANCH   7  16
ATOM     11  C   UNL     1       9.449  11.816  21.019  0.00  0.00    +0.000 A 
ATOM     12  C   UNL     1       9.857  13.105  21.403  0.00  0.00    +0.000 A 
ATOM     13  C   UNL     1      10.814  13.801  20.669  0.00  0.00    +0.000 A 
ATOM     14  C   UNL     1      11.359  13.226  19.530  0.00  0.00    +0.000 A 
ATOM     15  C   UNL     1      10.934  11.964  19.118  0.00  0.00    +0.000 A 
ATOM     16  C   UNL     1       9.982  11.237  19.846  0.00  0.00    +0.000 A 
BRANCH  11  18
ATOM     17  C   UNL     1       8.067  11.694  22.937  0.00  0.00    +0.000 C 
ATOM     18  O   UNL     1       8.543  11.070  21.739  0.00  0.00    +0.000 OA
ENDBRANCH  11  18
ENDBRANCH   7  16
ENDBRANCH   1   8
BRANCH   3  19
ATOM     19  C   UNL     1       6.530   5.215  17.199  0.00  0.00    +0.000 C 
BRANCH  19  20
ATOM     20  C   UNL     1       5.200   5.188  17.913  0.00  0.00    +0.000 A 
ATOM     21  C   UNL     1       4.157   6.046  17.513  0.00  0.00    +0.000 A 
ATOM     22  C   UNL     1       2.910   5.986  18.139  0.00  0.00    +0.000 A 
ATOM     23  C   UNL     1       2.705   5.079  19.170  0.00  0.00    +0.000 A 
ATOM     24  F   UNL     1       1.506   5.015  19.766  0.00  0.00    +0.000 F 
ATOM     25  C   UNL     1       3.724   4.233  19.591  0.00  0.00    +0.000 A 
ATOM     26  C   UNL     1       4.969   4.286  18.966  0.00  0.00    +0.000 A 
ENDBRANCH  19  20
ENDBRANCH   3  19
TORSDOF 5
ENDMDL
