MODEL 1
REMARK VINA RESULT:      -7.6      0.000      0.000
REMARK  Name = 
REMARK  2 active torsions:
REMARK  status: ('A' for Active; 'I' for Inactive)
REMARK    1  A    between atoms: C_2  and  O_3
REMARK    2  A    between atoms: C_2  and  C_4
REMARK                            x       y       z     vdW  Elec       q    Type
REMARK                         _______ _______ _______ _____ _____    ______ ____
ROOT
ATOM      1  C   UNL     1       5.547   4.851  16.136  0.00  0.00    +0.000 A 
ATOM      2  C   UNL     1       5.277   3.941  17.079  0.00  0.00    +0.000 A 
ATOM      3  N   UNL     1       4.450   4.086  18.193  0.00  0.00    +0.000 N 
ATOM      4  C   UNL     1       3.779   5.309  18.399  0.00  0.00    +0.000 A 
ATOM      5  C   UNL     1       2.871   5.570  19.450  0.00  0.00    +0.000 A 
ATOM      6  C   UNL     1       2.298   6.867  19.583  0.00  0.00    +0.000 A 
ATOM      7 CL   UNL     1       1.222   7.294  20.881  0.00  0.00    +0.000 Cl
ATOM      8  C   UNL     1       2.581   7.870  18.658  0.00  0.00    +0.000 A 
ATOM      9  F   UNL     1       2.029   9.086  18.767  0.00  0.00    +0.000 F 
ATOM     10  C   UNL     1       3.418   7.626  17.591  0.00  0.00    +0.000 A 
ATOM     11  C   UNL     1       4.011   6.365  17.469  0.00  0.00    +0.000 A 
ATOM     12  C   UNL     1       4.889   6.157  16.293  0.00  0.00    +0.000 A 
ATOM     13  O   UNL     1       5.074   7.038  15.456  0.00  0.00    +0.000 OA
ATOM     14  S   UNL     1       2.286   4.283  20.548  0.00  0.00    +0.000 S 
ATOM     15  C   UNL     1       3.537   3.015  20.372  0.00  0.00    +0.000 C 
ATOM     16  C   UNL     1       4.337   2.926  19.094  0.00  0.00    +0.000 C 
ENDROOT
BRANCH   1  18
ATOM     17  O   UNL     1       6.253   3.582  14.253  0.00  0.00    +0.000 OA
ATOM     18  C   UNL     1       6.457   4.508  15.025  0.00  0.00    +0.000 C 
BRANCH  18  19
ATOM     19  O   UNL     1       7.538   5.310  14.919  0.00  0.00    +0.000 OA
ATOM     20  H   UNL     1       8.343   4.974  15.387  0.00  0.00    +0.000 HD
ENDBRANCH  18  19
ENDBRANCH   1  18
TORSDOF 2
ENDMDL
MODEL 2
REMARK VINA RESULT:      -7.0      2.354      3.599
REMARK  Name = 
REMARK  2 active torsions:
REMARK  status: ('A' for Active; 'I' for Inactive)
REMARK    1  A    between atoms: C_2  and  O_3
REMARK    2  A    between atoms: C_2  and  C_4
REMARK                            x       y       z     vdW  Elec       q    Type
REMARK                         _______ _______ _______ _____ _____    ______ ____
ROOT
ATOM      1  C   UNL     1       5.696   4.973  15.668  0.00  0.00    +0.000 A 
ATOM      2  C   UNL     1       5.181   6.123  16.119  0.00  0.00    +0.000 A 
ATOM      3  N   UNL     1       4.190   6.293  17.086  0.00  0.00    +0.000 N 
ATOM      4  C   UNL     1       3.634   5.157  17.710  0.00  0.00    +0.000 A 
ATOM      5  C   UNL     1       2.668   5.189  18.742  0.00  0.00    +0.000 A 
ATOM      6  C   UNL     1       2.141   3.970  19.254  0.00  0.00    +0.000 A 
ATOM      7 CL   UNL     1       0.906   3.917  20.477  0.00  0.00    +0.000 Cl
ATOM      8  C   UNL     1       2.604   2.741  18.788  0.00  0.00    +0.000 A 
ATOM      9  F   UNL     1       2.126   1.590  19.282  0.00  0.00    +0.000 F 
ATOM     10  C   UNL     1       3.587   2.680  17.824  0.00  0.00    +0.000 A 
ATOM     11  C   UNL     1       4.088   3.872  17.291  0.00  0.00    +0.000 A 
ATOM     12  C   UNL     1       5.154   3.744  16.268  0.00  0.00    +0.000 A 
ATOM     13  O   UNL     1       5.590   2.651  15.918  0.00  0.00    +0.000 OA
ATOM     14  S   UNL     1       2.180   6.712  19.547  0.00  0.00    +0.000 S 
ATOM     15  C   UNL     1       2.661   7.960  18.356  0.00  0.00    +0.000 C 
ATOM     16  C   UNL     1       3.787   7.676  17.390  0.00  0.00    +0.000 C 
ENDROOT
BRANCH   1  18
ATOM     17  O   UNL     1       7.769   5.660  14.728  0.00  0.00    +0.000 OA
ATOM     18  C   UNL     1       6.746   4.996  14.632  0.00  0.00    +0.000 C 
BRANCH  18  19
ATOM     19  O   UNL     1       6.495   4.213  13.561  0.00  0.00    +0.000 OA
ATOM     20  H   UNL     1       5.554   3.912  13.487  0.00  0.00    +0.000 HD
ENDBRANCH  18  19
ENDBRANCH   1  18
TORSDOF 2
ENDMDL
MODEL 3
REMARK VINA RESULT:      -6.5      3.928      5.317
REMARK  Name = 
REMARK  2 active torsions:
REMARK  status: ('A' for Active; 'I' for Inactive)
REMARK    1  A    between atoms: C_2  and  O_3
REMARK    2  A    between atoms: C_2  and  C_4
REMARK                            x       y       z     vdW  Elec       q    Type
REMARK                         _______ _______ _______ _____ _____    ______ ____
ROOT
ATOM      1  C   UNL     1       2.225   8.739  18.333  0.00  0.00    +0.000 A 
ATOM      2  C   UNL     1       3.121   8.191  17.503  0.00  0.00    +0.000 A 
ATOM      3  N   UNL     1       3.694   6.922  17.584  0.00  0.00    +0.000 N 
ATOM      4  C   UNL     1       3.316   6.060  18.634  0.00  0.00    +0.000 A 
ATOM      5  C   UNL     1       3.774   4.734  18.800  0.00  0.00    +0.000 A 
ATOM      6  C   UNL     1       3.362   3.980  19.936  0.00  0.00    +0.000 A 
ATOM      7 CL   UNL     1       3.925   2.366  20.253  0.00  0.00    +0.000 Cl
ATOM      8  C   UNL     1       2.468   4.517  20.861  0.00  0.00    +0.000 A 
ATOM      9  F   UNL     1       2.060   3.805  21.921  0.00  0.00    +0.000 F 
ATOM     10  C   UNL     1       1.961   5.787  20.693  0.00  0.00    +0.000 A 
ATOM     11  C   UNL     1       2.384   6.547  19.598  0.00  0.00    +0.000 A 
ATOM     12  C   UNL     1       1.793   7.900  19.461  0.00  0.00    +0.000 A 
ATOM     13  O   UNL     1       0.959   8.327  20.255  0.00  0.00    +0.000 OA
ATOM     14  S   UNL     1       4.745   3.895  17.552  0.00  0.00    +0.000 S 
ATOM     15  C   UNL     1       5.415   5.252  16.595  0.00  0.00    +0.000 C 
ATOM     16  C   UNL     1       4.674   6.567  16.544  0.00  0.00    +0.000 C 
ENDROOT
BRANCH   1  18
ATOM     17  O   UNL     1       2.463  11.088  18.053  0.00  0.00    +0.000 OA
ATOM     18  C   UNL     1       1.733  10.107  18.081  0.00  0.00    +0.000 C 
BRANCH  18  19
ATOM     19  O   UNL     1       0.402  10.195  17.871  0.00  0.00    +0.000 OA
ATOM     20  H   UNL     1      -0.040   9.329  17.685  0.00  0.00    +0.000 HD
ENDBRANCH  18  19
ENDBRANCH   1  18
TORSDOF 2
ENDMDL
MODEL 4
REMARK VINA RESULT:      -6.5      3.778      5.507
REMARK  Name = 
REMARK  2 active torsions:
REMARK  status: ('A' for Active; 'I' for Inactive)
REMARK    1  A    between atoms: C_2  and  O_3
REMARK    2  A    between atoms: C_2  and  C_4
REMARK                            x       y       z     vdW  Elec       q    Type
REMARK                         _______ _______ _______ _____ _____    ______ ____
ROOT
ATOM      1  C   UNL     1       1.374   7.651  20.548  0.00  0.00    +0.000 A 
ATOM      2  C   UNL     1       1.520   6.398  20.993  0.00  0.00    +0.000 A 
ATOM      3  N   UNL     1       2.280   5.374  20.426  0.00  0.00    +0.000 N 
ATOM      4  C   UNL     1       3.014   5.631  19.250  0.00  0.00    +0.000 A 
ATOM      5  C   UNL     1       3.865   4.704  18.607  0.00  0.00    +0.000 A 
ATOM      6  C   UNL     1       4.512   5.065  17.391  0.00  0.00    +0.000 A 
ATOM      7 CL   UNL     1       5.525   3.968  16.499  0.00  0.00    +0.000 Cl
ATOM      8  C   UNL     1       4.359   6.342  16.853  0.00  0.00    +0.000 A 
ATOM      9  F   UNL     1       4.981   6.694  15.719  0.00  0.00    +0.000 F 
ATOM     10  C   UNL     1       3.580   7.284  17.490  0.00  0.00    +0.000 A 
ATOM     11  C   UNL     1       2.915   6.929  18.668  0.00  0.00    +0.000 A 
ATOM     12  C   UNL     1       2.105   7.988  19.317  0.00  0.00    +0.000 A 
ATOM     13  O   UNL     1       2.035   9.125  18.857  0.00  0.00    +0.000 OA
ATOM     14  S   UNL     1       4.290   3.127  19.340  0.00  0.00    +0.000 S 
ATOM     15  C   UNL     1       2.973   2.876  20.526  0.00  0.00    +0.000 C 
ATOM     16  C   UNL     1       2.255   4.070  21.111  0.00  0.00    +0.000 C 
ENDROOT
BRANCH   1  18
ATOM     17  O   UNL     1      -0.604   8.321  21.683  0.00  0.00    +0.000 OA
ATOM     18  C   UNL     1       0.520   8.598  21.291  0.00  0.00    +0.000 C 
BRANCH  18  19
ATOM     19  O   UNL     1       1.084   9.804  21.516  0.00  0.00    +0.000 OA
ATOM     20  H   UNL     1       1.102  10.076  22.468  0.00  0.00    +0.000 HD
ENDBRANCH  18  19
ENDBRANCH   1  18
TORSDOF 2
ENDMDL
MODEL 5
REMARK VINA RESULT:      -6.2      4.202      5.700
REMARK  Name = 
REMARK  2 active torsions:
REMARK  status: ('A' for Active; 'I' for Inactive)
REMARK    1  A    between atoms: C_2  and  O_3
REMARK    2  A    between atoms: C_2  and  C_4
REMARK                            x       y       z     vdW  Elec       q    Type
REMARK                         _______ _______ _______ _____ _____    ______ ____
ROOT
ATOM      1  C   UNL     1       1.853   8.321  19.176  0.00  0.00    +0.000 A 
ATOM      2  C   UNL     1       2.706   8.030  18.186  0.00  0.00    +0.000 A 
ATOM      3  N   UNL     1       3.401   6.837  17.982  0.00  0.00    +0.000 N 
ATOM      4  C   UNL     1       3.215   5.769  18.883  0.00  0.00    +0.000 A 
ATOM      5  C   UNL     1       3.810   4.493  18.762  0.00  0.00    +0.000 A 
ATOM      6  C   UNL     1       3.589   3.511  19.769  0.00  0.00    +0.000 A 
ATOM      7 CL   UNL     1       4.331   1.938  19.734  0.00  0.00    +0.000 Cl
ATOM      8  C   UNL     1       2.749   3.775  20.850  0.00  0.00    +0.000 A 
ATOM      9  F   UNL     1       2.521   2.848  21.790  0.00  0.00    +0.000 F 
ATOM     10  C   UNL     1       2.111   4.991  20.963  0.00  0.00    +0.000 A 
ATOM     11  C   UNL     1       2.347   5.973  19.996  0.00  0.00    +0.000 A 
ATOM     12  C   UNL     1       1.620   7.255  20.161  0.00  0.00    +0.000 A 
ATOM     13  O   UNL     1       0.836   7.441  21.088  0.00  0.00    +0.000 OA
ATOM     14  S   UNL     1       4.722   3.998  17.303  0.00  0.00    +0.000 S 
ATOM     15  C   UNL     1       5.160   5.568  16.560  0.00  0.00    +0.000 C 
ATOM     16  C   UNL     1       4.298   6.781  16.816  0.00  0.00    +0.000 C 
ENDROOT
BRANCH   1  18
ATOM     17  O   UNL     1       0.791  10.227  18.232  0.00  0.00    +0.000 OA
ATOM     18  C   UNL     1       1.212   9.649  19.224  0.00  0.00    +0.000 C 
BRANCH  18  19
ATOM     19  O   UNL     1       1.116  10.181  20.461  0.00  0.00    +0.000 OA
ATOM     20  H   UNL     1       1.969  10.531  20.823  0.00  0.00    +0.000 HD
ENDBRANCH  18  19
ENDBRANCH   1  18
TORSDOF 2
ENDMDL
MODEL 6
REMARK VINA RESULT:      -6.2      4.177      5.645
REMARK  Name = 
REMARK  2 active torsions:
REMARK  status: ('A' for Active; 'I' for Inactive)
REMARK    1  A    between atoms: C_2  and  O_3
REMARK    2  A    between atoms: C_2  and  C_4
REMARK                            x       y       z     vdW  Elec       q    Type
REMARK                         _______ _______ _______ _____ _____    ______ ____
ROOT
ATOM      1  C   UNL     1       2.618   3.519  20.738  0.00  0.00    +0.000 A 
ATOM      2  C   UNL     1       2.174   4.781  20.752  0.00  0.00    +0.000 A 
ATOM      3  N   UNL     1       2.455   5.794  19.835  0.00  0.00    +0.000 N 
ATOM      4  C   UNL     1       3.288   5.515  18.732  0.00  0.00    +0.000 A 
ATOM      5  C   UNL     1       3.605   6.430  17.703  0.00  0.00    +0.000 A 
ATOM      6  C   UNL     1       4.505   6.046  16.668  0.00  0.00    +0.000 A 
ATOM      7 CL   UNL     1       5.000   7.126  15.399  0.00  0.00    +0.000 Cl
ATOM      8  C   UNL     1       5.038   4.759  16.629  0.00  0.00    +0.000 A 
ATOM      9  F   UNL     1       5.870   4.385  15.647  0.00  0.00    +0.000 F 
ATOM     10  C   UNL     1       4.701   3.829  17.588  0.00  0.00    +0.000 A 
ATOM     11  C   UNL     1       3.843   4.206  18.626  0.00  0.00    +0.000 A 
ATOM     12  C   UNL     1       3.504   3.159  19.620  0.00  0.00    +0.000 A 
ATOM     13  O   UNL     1       3.937   2.013  19.529  0.00  0.00    +0.000 OA
ATOM     14  S   UNL     1       2.799   8.022  17.557  0.00  0.00    +0.000 S 
ATOM     15  C   UNL     1       2.162   8.295  19.208  0.00  0.00    +0.000 C 
ATOM     16  C   UNL     1       1.848   7.111  20.093  0.00  0.00    +0.000 C 
ENDROOT
BRANCH   1  18
ATOM     17  O   UNL     1       1.076   2.544  22.261  0.00  0.00    +0.000 OA
ATOM     18  C   UNL     1       2.210   2.586  21.806  0.00  0.00    +0.000 C 
BRANCH  18  19
ATOM     19  O   UNL     1       3.190   1.766  22.239  0.00  0.00    +0.000 OA
ATOM     20  H   UNL     1       3.756   1.389  21.520  0.00  0.00    +0.000 HD
ENDBRANCH  18  19
ENDBRANCH   1  18
TORSDOF 2
ENDMDL
MODEL 7
REMARK VINA RESULT:      -5.8      4.358      5.832
REMARK  Name = 
REMARK  2 active torsions:
REMARK  status: ('A' for Active; 'I' for Inactive)
REMARK    1  A    between atoms: C_2  and  O_3
REMARK    2  A    between atoms: C_2  and  C_4
REMARK                            x       y       z     vdW  Elec       q    Type
REMARK                         _______ _______ _______ _____ _____    ______ ____
ROOT
ATOM      1  C   UNL     1       2.383   3.777  20.253  0.00  0.00    +0.000 A 
ATOM      2  C   UNL     1       1.993   4.962  19.770  0.00  0.00    +0.000 A 
ATOM      3  N   UNL     1       2.742   5.865  19.014  0.00  0.00    +0.000 N 
ATOM      4  C   UNL     1       4.072   5.542  18.675  0.00  0.00    +0.000 A 
ATOM      5  C   UNL     1       4.919   6.337  17.870  0.00  0.00    +0.000 A 
ATOM      6  C   UNL     1       6.264   5.929  17.643  0.00  0.00    +0.000 A 
ATOM      7 CL   UNL     1       7.394   6.876  16.719  0.00  0.00    +0.000 Cl
ATOM      8  C   UNL     1       6.743   4.728  18.162  0.00  0.00    +0.000 A 
ATOM      9  F   UNL     1       8.002   4.329  17.935  0.00  0.00    +0.000 F 
ATOM     10  C   UNL     1       5.921   3.906  18.903  0.00  0.00    +0.000 A 
ATOM     11  C   UNL     1       4.608   4.312  19.158  0.00  0.00    +0.000 A 
ATOM     12  C   UNL     1       3.766   3.380  19.947  0.00  0.00    +0.000 A 
ATOM     13  O   UNL     1       4.192   2.297  20.341  0.00  0.00    +0.000 OA
ATOM     14  S   UNL     1       4.325   7.777  16.988  0.00  0.00    +0.000 S 
ATOM     15  C   UNL     1       2.828   8.195  17.878  0.00  0.00    +0.000 C 
ATOM     16  C   UNL     1       2.074   7.117  18.620  0.00  0.00    +0.000 C 
ENDROOT
BRANCH   1  18
ATOM     17  O   UNL     1       1.675   2.569  22.174  0.00  0.00    +0.000 OA
ATOM     18  C   UNL     1       1.440   2.958  21.038  0.00  0.00    +0.000 C 
BRANCH  18  19
ATOM     19  O   UNL     1       0.282   2.676  20.406  0.00  0.00    +0.000 OA
ATOM     20  H   UNL     1       0.192   3.091  19.511  0.00  0.00    +0.000 HD
ENDBRANCH  18  19
ENDBRANCH   1  18
TORSDOF 2
ENDMDL
MODEL 8
REMARK VINA RESULT:      -5.8      3.208      4.329
REMARK  Name = 
REMARK  2 active torsions:
REMARK  status: ('A' for Active; 'I' for Inactive)
REMARK    1  A    between atoms: C_2  and  O_3
REMARK    2  A    between atoms: C_2  and  C_4
REMARK                            x       y       z     vdW  Elec       q    Type
REMARK                         _______ _______ _______ _____ _____    ______ ____
ROOT
ATOM      1  C   UNL     1       4.243   2.818  19.517  0.00  0.00    +0.000 A 
ATOM      2  C   UNL     1       4.727   3.510  18.479  0.00  0.00    +0.000 A 
ATOM      3  N   UNL     1       4.395   4.807  18.088  0.00  0.00    +0.000 N 
ATOM      4  C   UNL     1       3.452   5.534  18.842  0.00  0.00    +0.000 A 
ATOM      5  C   UNL     1       3.069   6.871  18.591  0.00  0.00    +0.000 A 
ATOM      6  C   UNL     1       2.063   7.481  19.393  0.00  0.00    +0.000 A 
ATOM      7 CL   UNL     1       1.485   9.098  19.115  0.00  0.00    +0.000 Cl
ATOM      8  C   UNL     1       1.486   6.792  20.459  0.00  0.00    +0.000 A 
ATOM      9  F   UNL     1       0.553   7.368  21.230  0.00  0.00    +0.000 F 
ATOM     10  C   UNL     1       1.882   5.508  20.762  0.00  0.00    +0.000 A 
ATOM     11  C   UNL     1       2.847   4.889  19.961  0.00  0.00    +0.000 A 
ATOM     12  C   UNL     1       3.244   3.513  20.344  0.00  0.00    +0.000 A 
ATOM     13  O   UNL     1       2.767   2.949  21.326  0.00  0.00    +0.000 OA
ATOM     14  S   UNL     1       3.910   7.896  17.388  0.00  0.00    +0.000 S 
ATOM     15  C   UNL     1       4.709   6.691  16.332  0.00  0.00    +0.000 C 
ATOM     16  C   UNL     1       5.066   5.332  16.887  0.00  0.00    +0.000 C 
ENDROOT
BRANCH   1  18
ATOM     17  O   UNL     1       5.366   1.133  20.761  0.00  0.00    +0.000 OA
ATOM     18  C   UNL     1       4.720   1.446  19.771  0.00  0.00    +0.000 C 
BRANCH  18  19
ATOM     19  O   UNL     1       4.378   0.548  18.823  0.00  0.00    +0.000 OA
ATOM     20  H   UNL     1       3.454   0.649  18.480  0.00  0.00    +0.000 HD
ENDBRANCH  18  19
ENDBRANCH   1  18
TORSDOF 2
ENDMDL
MODEL 9
REMARK VINA RESULT:      -5.7      1.585      1.792
REMARK  Name = 
REMARK  2 active torsions:
REMARK  status: ('A' for Active; 'I' for Inactive)
REMARK    1  A    between atoms: C_2  and  O_3
REMARK    2  A    between atoms: C_2  and  C_4
REMARK                            x       y       z     vdW  Elec       q    Type
REMARK                         _______ _______ _______ _____ _____    ______ ____
ROOT
ATOM      1  C   UNL     1       5.952   5.253  16.542  0.00  0.00    +0.000 A 
ATOM      2  C   UNL     1       5.579   3.974  16.670  0.00  0.00    +0.000 A 
ATOM      3  N   UNL     1       4.534   3.463  17.440  0.00  0.00    +0.000 N 
ATOM      4  C   UNL     1       3.728   4.349  18.184  0.00  0.00    +0.000 A 
ATOM      5  C   UNL     1       2.606   3.972  18.956  0.00  0.00    +0.000 A 
ATOM      6  C   UNL     1       1.904   4.955  19.710  0.00  0.00    +0.000 A 
ATOM      7 CL   UNL     1       0.554   4.571  20.737  0.00  0.00    +0.000 Cl
ATOM      8  C   UNL     1       2.278   6.297  19.655  0.00  0.00    +0.000 A 
ATOM      9  F   UNL     1       1.608   7.229  20.346  0.00  0.00    +0.000 F 
ATOM     10  C   UNL     1       3.332   6.701  18.865  0.00  0.00    +0.000 A 
ATOM     11  C   UNL     1       4.048   5.739  18.146  0.00  0.00    +0.000 A 
ATOM     12  C   UNL     1       5.162   6.234  17.301  0.00  0.00    +0.000 A 
ATOM     13  O   UNL     1       5.432   7.430  17.220  0.00  0.00    +0.000 OA
ATOM     14  S   UNL     1       1.929   2.316  18.912  0.00  0.00    +0.000 S 
ATOM     15  C   UNL     1       3.298   1.346  18.288  0.00  0.00    +0.000 C 
ATOM     16  C   UNL     1       4.345   2.003  17.420  0.00  0.00    +0.000 C 
ENDROOT
BRANCH   1  18
ATOM     17  O   UNL     1       7.298   5.074  14.591  0.00  0.00    +0.000 OA
ATOM     18  C   UNL     1       7.094   5.601  15.676  0.00  0.00    +0.000 C 
BRANCH  18  19
ATOM     19  O   UNL     1       7.902   6.562  16.172  0.00  0.00    +0.000 OA
ATOM     20  H   UNL     1       7.494   7.109  16.889  0.00  0.00    +0.000 HD
ENDBRANCH  18  19
ENDBRANCH   1  18
TORSDOF 2
ENDMDL
