MODEL 1
REMARK VINA RESULT:      -7.3      0.000      0.000
REMARK  Name = 
REMARK  10 active torsions:
REMARK  status: ('A' for Active; 'I' for Inactive)
REMARK    1  A    between atoms: C_1  and  C_2
REMARK    2  A    between atoms: C_6  and  C_8
REMARK    3  A    between atoms: C_8  and  C_9
REMARK    4  A    between atoms: C_8  and  N_18
REMARK    5  A    between atoms: C_9  and  C_10
REMARK    6  A    between atoms: C_10  and  N_11
REMARK    7  A    between atoms: C_15  and  C_16
REMARK    8  A    between atoms: N_18  and  S_19
REMARK    9  A    between atoms: S_19  and  C_22
REMARK   10  A    between atoms: C_26  and  N_27
REMARK                            x       y       z     vdW  Elec       q    Type
REMARK                         _______ _______ _______ _____ _____    ______ ____
ROOT
ATOM      1  C   UNL     1       2.673   6.402  18.710  0.00  0.00    +0.000 C 
ENDROOT
BRANCH   1   7
ATOM      2  C   UNL     1       6.759   4.139  14.299  0.00  0.00    +0.000 C 
ATOM      3  C   UNL     1       6.565   5.219  15.373  0.00  0.00    +0.000 C 
ATOM      4  C   UNL     1       6.859   4.649  16.772  0.00  0.00    +0.000 C 
ATOM      5  C   UNL     1       6.456   5.603  17.905  0.00  0.00    +0.000 C 
ATOM      6  N   UNL     1       5.066   6.063  17.760  0.00  0.00    +0.000 N 
ATOM      7  C   UNL     1       4.173   5.939  18.834  0.00  0.00    +0.000 C 
ATOM      8  O   UNL     1       4.549   5.463  19.914  0.00  0.00    +0.000 OA
ATOM      9  C   UNL     1       4.848   6.749  16.484  0.00  0.00    +0.000 C 
ATOM     10  C   UNL     1       5.142   5.809  15.309  0.00  0.00    +0.000 C 
ENDBRANCH   1   7
BRANCH   1  11
ATOM     11  N   UNL     1       2.550   7.828  19.159  0.00  0.00    +0.000 NA
ATOM     12  H   UNL     1       3.175   8.128  19.918  0.00  0.00    +0.000 HD
BRANCH  11  13
ATOM     13  S   UNL     1       1.626   9.031  18.442  0.00  0.00    +0.000 S 
ATOM     14  O   UNL     1       2.493  10.091  18.000  0.00  0.00    +0.000 OA
ATOM     15  O   UNL     1       0.736   8.397  17.490  0.00  0.00    +0.000 OA
BRANCH  13  16
ATOM     16  C   UNL     1       0.632   9.684  19.753  0.00  0.00    +0.000 A 
ATOM     17  C   UNL     1       0.890   9.238  21.057  0.00  0.00    +0.000 A 
ATOM     18  C   UNL     1       0.214   9.807  22.136  0.00  0.00    +0.000 A 
ATOM     19 CL   UNL     1       0.575   9.231  23.725  0.00  0.00    +0.000 Cl
ATOM     20  C   UNL     1      -0.703  10.854  21.943  0.00  0.00    +0.000 A 
ATOM     21  C   UNL     1      -0.971  11.266  20.632  0.00  0.00    +0.000 A 
ATOM     22  C   UNL     1      -0.296  10.704  19.536  0.00  0.00    +0.000 A 
ATOM     23 CL   UNL     1      -0.711  11.315  17.976  0.00  0.00    +0.000 Cl
BRANCH  20  24
ATOM     24  N   UNL     1      -1.509  11.329  22.990  0.00  0.00    +0.000 N 
ATOM     25  H   UNL     1      -2.281  11.911  22.666  0.00  0.00    +0.000 HD
ATOM     26  H   UNL     1      -1.806  10.628  23.662  0.00  0.00    +0.000 HD
ENDBRANCH  20  24
ENDBRANCH  13  16
ENDBRANCH  11  13
ENDBRANCH   1  11
BRANCH   1  27
ATOM     27  C   UNL     1       1.735   5.508  19.520  0.00  0.00    +0.000 C 
BRANCH  27  28
ATOM     28  C   UNL     1       1.213   4.316  18.712  0.00  0.00    +0.000 C 
BRANCH  28  29
ATOM     29  N   UNL     1       2.208   3.255  18.640  0.00  0.00    +0.000 N 
ATOM     30  C   UNL     1       2.795   2.836  17.470  0.00  0.00    +0.000 A 
ATOM     31  C   UNL     1       3.733   1.877  17.783  0.00  0.00    +0.000 A 
ATOM     32  C   UNL     1       3.680   1.691  19.187  0.00  0.00    +0.000 A 
ATOM     33  C   UNL     1       2.717   2.538  19.692  0.00  0.00    +0.000 A 
BRANCH  33  34
ATOM     34  C   UNL     1       2.317   2.655  21.061  0.00  0.00    +0.000 C 
ATOM     35  N   UNL     1       1.967   2.735  22.162  0.00  0.00    +0.000 NA
ENDBRANCH  33  34
ENDBRANCH  28  29
ENDBRANCH  27  28
ENDBRANCH   1  27
TORSDOF 9
ENDMDL
MODEL 2
REMARK VINA RESULT:      -6.8      1.254      1.901
REMARK  Name = 
REMARK  10 active torsions:
REMARK  status: ('A' for Active; 'I' for Inactive)
REMARK    1  A    between atoms: C_1  and  C_2
REMARK    2  A    between atoms: C_6  and  C_8
REMARK    3  A    between atoms: C_8  and  C_9
REMARK    4  A    between atoms: C_8  and  N_18
REMARK    5  A    between atoms: C_9  and  C_10
REMARK    6  A    between atoms: C_10  and  N_11
REMARK    7  A    between atoms: C_15  and  C_16
REMARK    8  A    between atoms: N_18  and  S_19
REMARK    9  A    between atoms: S_19  and  C_22
REMARK   10  A    between atoms: C_26  and  N_27
REMARK                            x       y       z     vdW  Elec       q    Type
REMARK                         _______ _______ _______ _____ _____    ______ ____
ROOT
ATOM      1  C   UNL     1       2.664   6.335  18.691  0.00  0.00    +0.000 C 
ENDROOT
BRANCH   1   7
ATOM      2  C   UNL     1       6.832   4.149  14.318  0.00  0.00    +0.000 C 
ATOM      3  C   UNL     1       6.595   5.243  15.369  0.00  0.00    +0.000 C 
ATOM      4  C   UNL     1       6.916   4.716  16.779  0.00  0.00    +0.000 C 
ATOM      5  C   UNL     1       6.475   5.676  17.893  0.00  0.00    +0.000 C 
ATOM      6  N   UNL     1       5.067   6.076  17.742  0.00  0.00    +0.000 N 
ATOM      7  C   UNL     1       4.183   5.938  18.821  0.00  0.00    +0.000 C 
ATOM      8  O   UNL     1       4.580   5.501  19.910  0.00  0.00    +0.000 OA
ATOM      9  C   UNL     1       4.819   6.725  16.453  0.00  0.00    +0.000 C 
ATOM     10  C   UNL     1       5.149   5.772  15.297  0.00  0.00    +0.000 C 
ENDBRANCH   1   7
BRANCH   1  11
ATOM     11  N   UNL     1       2.496   7.788  19.030  0.00  0.00    +0.000 NA
ATOM     12  H   UNL     1       2.995   8.129  19.861  0.00  0.00    +0.000 HD
BRANCH  11  13
ATOM     13  S   UNL     1       1.724   8.952  18.101  0.00  0.00    +0.000 S 
ATOM     14  O   UNL     1       2.654   9.481  17.139  0.00  0.00    +0.000 OA
ATOM     15  O   UNL     1       0.468   8.392  17.642  0.00  0.00    +0.000 OA
BRANCH  13  16
ATOM     16  C   UNL     1       1.346  10.259  19.233  0.00  0.00    +0.000 A 
ATOM     17  C   UNL     1       1.547  11.578  18.803  0.00  0.00    +0.000 A 
ATOM     18  C   UNL     1       1.157  12.644  19.614  0.00  0.00    +0.000 A 
ATOM     19 CL   UNL     1       1.415  14.252  19.034  0.00  0.00    +0.000 Cl
ATOM     20  C   UNL     1       0.526  12.420  20.848  0.00  0.00    +0.000 A 
ATOM     21  C   UNL     1       0.361  11.096  21.276  0.00  0.00    +0.000 A 
ATOM     22  C   UNL     1       0.746  10.013  20.470  0.00  0.00    +0.000 A 
ATOM     23 CL   UNL     1       0.471   8.434  21.111  0.00  0.00    +0.000 Cl
BRANCH  20  24
ATOM     24  N   UNL     1       0.272  13.468  21.747  0.00  0.00    +0.000 N 
ATOM     25  H   UNL     1      -0.201  13.159  22.596  0.00  0.00    +0.000 HD
ATOM     26  H   UNL     1       1.063  14.075  21.941  0.00  0.00    +0.000 HD
ENDBRANCH  20  24
ENDBRANCH  13  16
ENDBRANCH  11  13
ENDBRANCH   1  11
BRANCH   1  27
ATOM     27  C   UNL     1       1.774   5.476  19.588  0.00  0.00    +0.000 C 
BRANCH  27  28
ATOM     28  C   UNL     1       1.206   4.255  18.858  0.00  0.00    +0.000 C 
BRANCH  28  29
ATOM     29  N   UNL     1       2.217   3.218  18.705  0.00  0.00    +0.000 N 
ATOM     30  C   UNL     1       2.695   2.790  17.490  0.00  0.00    +0.000 A 
ATOM     31  C   UNL     1       3.685   1.861  17.723  0.00  0.00    +0.000 A 
ATOM     32  C   UNL     1       3.779   1.702  19.129  0.00  0.00    +0.000 A 
ATOM     33  C   UNL     1       2.849   2.536  19.713  0.00  0.00    +0.000 A 
BRANCH  33  34
ATOM     34  C   UNL     1       2.585   2.671  21.113  0.00  0.00    +0.000 C 
ATOM     35  N   UNL     1       2.347   2.797  22.239  0.00  0.00    +0.000 NA
ENDBRANCH  33  34
ENDBRANCH  28  29
ENDBRANCH  27  28
ENDBRANCH   1  27
TORSDOF 9
ENDMDL
MODEL 3
REMARK VINA RESULT:      -6.8      1.039      1.160
REMARK  Name = 
REMARK  10 active torsions:
REMARK  status: ('A' for Active; 'I' for Inactive)
REMARK    1  A    between atoms: C_1  and  C_2
REMARK    2  A    between atoms: C_6  and  C_8
REMARK    3  A    between atoms: C_8  and  C_9
REMARK    4  A    between atoms: C_8  and  N_18
REMARK    5  A    between atoms: C_9  and  C_10
REMARK    6  A    between atoms: C_10  and  N_11
REMARK    7  A    between atoms: C_15  and  C_16
REMARK    8  A    between atoms: N_18  and  S_19
REMARK    9  A    between atoms: S_19  and  C_22
REMARK   10  A    between atoms: C_26  and  N_27
REMARK                            x       y       z     vdW  Elec       q    Type
REMARK                         _______ _______ _______ _____ _____    ______ ____
ROOT
ATOM      1  C   UNL     1       3.433   5.916  19.124  0.00  0.00    +0.000 C 
ENDROOT
BRANCH   1   7
ATOM      2  C   UNL     1       6.490   3.902  13.844  0.00  0.00    +0.000 C 
ATOM      3  C   UNL     1       6.456   5.001  14.916  0.00  0.00    +0.000 C 
ATOM      4  C   UNL     1       7.158   4.526  16.200  0.00  0.00    +0.000 C 
ATOM      5  C   UNL     1       6.952   5.481  17.385  0.00  0.00    +0.000 C 
ATOM      6  N   UNL     1       5.529   5.788  17.596  0.00  0.00    +0.000 N 
ATOM      7  C   UNL     1       4.958   5.618  18.865  0.00  0.00    +0.000 C 
ATOM      8  O   UNL     1       5.646   5.230  19.818  0.00  0.00    +0.000 OA
ATOM      9  C   UNL     1       4.919   6.391  16.408  0.00  0.00    +0.000 C 
ATOM     10  C   UNL     1       5.007   5.437  15.211  0.00  0.00    +0.000 C 
ENDBRANCH   1   7
BRANCH   1  11
ATOM     11  N   UNL     1       3.207   7.400  19.126  0.00  0.00    +0.000 NA
ATOM     12  H   UNL     1       3.915   7.974  19.602  0.00  0.00    +0.000 HD
BRANCH  11  13
ATOM     13  S   UNL     1       2.017   8.235  18.289  0.00  0.00    +0.000 S 
ATOM     14  O   UNL     1       2.630   9.290  17.525  0.00  0.00    +0.000 OA
ATOM     15  O   UNL     1       1.183   7.261  17.614  0.00  0.00    +0.000 OA
BRANCH  13  16
ATOM     16  C   UNL     1       1.034   9.005  19.544  0.00  0.00    +0.000 A 
ATOM     17  C   UNL     1       1.406   8.811  20.881  0.00  0.00    +0.000 A 
ATOM     18  C   UNL     1       0.735   9.489  21.898  0.00  0.00    +0.000 A 
ATOM     19 CL   UNL     1       1.240   9.225  23.531  0.00  0.00    +0.000 Cl
ATOM     20  C   UNL     1      -0.293  10.400  21.604  0.00  0.00    +0.000 A 
ATOM     21  C   UNL     1      -0.672  10.559  20.265  0.00  0.00    +0.000 A 
ATOM     22  C   UNL     1      -0.004   9.885  19.230  0.00  0.00    +0.000 A 
ATOM     23 CL   UNL     1      -0.563  10.184  17.625  0.00  0.00    +0.000 Cl
BRANCH  20  24
ATOM     24  N   UNL     1      -1.085  10.968  22.614  0.00  0.00    +0.000 N 
ATOM     25  H   UNL     1      -2.028  10.581  22.647  0.00  0.00    +0.000 HD
ATOM     26  H   UNL     1      -0.652  11.015  23.531  0.00  0.00    +0.000 HD
ENDBRANCH  20  24
ENDBRANCH  13  16
ENDBRANCH  11  13
ENDBRANCH   1  11
BRANCH   1  27
ATOM     27  C   UNL     1       2.951   5.305  20.439  0.00  0.00    +0.000 C 
BRANCH  27  28
ATOM     28  C   UNL     1       2.029   4.101  20.225  0.00  0.00    +0.000 C 
BRANCH  28  29
ATOM     29  N   UNL     1       2.483   3.285  19.106  0.00  0.00    +0.000 N 
ATOM     30  C   UNL     1       1.912   3.318  17.857  0.00  0.00    +0.000 A 
ATOM     31  C   UNL     1       2.635   2.480  17.036  0.00  0.00    +0.000 A 
ATOM     32  C   UNL     1       3.653   1.900  17.832  0.00  0.00    +0.000 A 
ATOM     33  C   UNL     1       3.526   2.396  19.112  0.00  0.00    +0.000 A 
BRANCH  33  34
ATOM     34  C   UNL     1       4.333   2.054  20.244  0.00  0.00    +0.000 C 
ATOM     35  N   UNL     1       5.004   1.801  21.152  0.00  0.00    +0.000 NA
ENDBRANCH  33  34
ENDBRANCH  28  29
ENDBRANCH  27  28
ENDBRANCH   1  27
TORSDOF 9
ENDMDL
MODEL 4
REMARK VINA RESULT:      -6.7      3.690      9.379
REMARK  Name = 
REMARK  10 active torsions:
REMARK  status: ('A' for Active; 'I' for Inactive)
REMARK    1  A    between atoms: C_1  and  C_2
REMARK    2  A    between atoms: C_6  and  C_8
REMARK    3  A    between atoms: C_8  and  C_9
REMARK    4  A    between atoms: C_8  and  N_18
REMARK    5  A    between atoms: C_9  and  C_10
REMARK    6  A    between atoms: C_10  and  N_11
REMARK    7  A    between atoms: C_15  and  C_16
REMARK    8  A    between atoms: N_18  and  S_19
REMARK    9  A    between atoms: S_19  and  C_22
REMARK   10  A    between atoms: C_26  and  N_27
REMARK                            x       y       z     vdW  Elec       q    Type
REMARK                         _______ _______ _______ _____ _____    ______ ____
ROOT
ATOM      1  C   UNL     1      -0.560  10.751  19.774  0.00  0.00    +0.000 C 
ENDROOT
BRANCH   1   7
ATOM      2  C   UNL     1      -3.929  14.012  24.166  0.00  0.00    +0.000 C 
ATOM      3  C   UNL     1      -2.532  13.479  23.818  0.00  0.00    +0.000 C 
ATOM      4  C   UNL     1      -1.827  14.418  22.823  0.00  0.00    +0.000 C 
ATOM      5  C   UNL     1      -0.531  13.825  22.252  0.00  0.00    +0.000 C 
ATOM      6  N   UNL     1      -0.744  12.476  21.706  0.00  0.00    +0.000 N 
ATOM      7  C   UNL     1      -0.330  12.177  20.400  0.00  0.00    +0.000 C 
ATOM      8  O   UNL     1       0.234  13.035  19.707  0.00  0.00    +0.000 OA
ATOM      9  C   UNL     1      -1.265  11.553  22.717  0.00  0.00    +0.000 C 
ATOM     10  C   UNL     1      -2.614  12.046  23.254  0.00  0.00    +0.000 C 
ENDBRANCH   1   7
BRANCH   1  11
ATOM     11  N   UNL     1       0.670   9.913  19.973  0.00  0.00    +0.000 NA
ATOM     12  H   UNL     1       1.497  10.170  19.420  0.00  0.00    +0.000 HD
BRANCH  11  13
ATOM     13  S   UNL     1       0.891   8.714  21.124  0.00  0.00    +0.000 S 
ATOM     14  O   UNL     1       1.825   9.178  22.115  0.00  0.00    +0.000 OA
ATOM     15  O   UNL     1      -0.418   8.253  21.542  0.00  0.00    +0.000 OA
BRANCH  13  16
ATOM     16  C   UNL     1       1.673   7.386  20.253  0.00  0.00    +0.000 A 
ATOM     17  C   UNL     1       1.629   6.108  20.826  0.00  0.00    +0.000 A 
ATOM     18  C   UNL     1       2.129   5.011  20.126  0.00  0.00    +0.000 A 
ATOM     19 CL   UNL     1       2.040   3.453  20.871  0.00  0.00    +0.000 Cl
ATOM     20  C   UNL     1       2.648   5.156  18.829  0.00  0.00    +0.000 A 
ATOM     21  C   UNL     1       2.713   6.445  18.283  0.00  0.00    +0.000 A 
ATOM     22  C   UNL     1       2.211   7.559  18.975  0.00  0.00    +0.000 A 
ATOM     23 CL   UNL     1       2.340   9.086  18.181  0.00  0.00    +0.000 Cl
BRANCH  20  24
ATOM     24  N   UNL     1       3.300   4.100  18.173  0.00  0.00    +0.000 N 
ATOM     25  H   UNL     1       2.971   3.960  17.217  0.00  0.00    +0.000 HD
ATOM     26  H   UNL     1       4.313   4.108  18.237  0.00  0.00    +0.000 HD
ENDBRANCH  20  24
ENDBRANCH  13  16
ENDBRANCH  11  13
ENDBRANCH   1  11
BRANCH   1  27
ATOM     27  C   UNL     1      -0.911  10.834  18.289  0.00  0.00    +0.000 C 
BRANCH  27  28
ATOM     28  C   UNL     1      -2.104   9.949  17.916  0.00  0.00    +0.000 C 
BRANCH  28  29
ATOM     29  N   UNL     1      -3.298  10.750  17.681  0.00  0.00    +0.000 N 
ATOM     30  C   UNL     1      -4.006  11.375  18.678  0.00  0.00    +0.000 A 
ATOM     31  C   UNL     1      -5.022  12.098  18.092  0.00  0.00    +0.000 A 
ATOM     32  C   UNL     1      -4.939  11.868  16.696  0.00  0.00    +0.000 A 
ATOM     33  C   UNL     1      -3.879  11.017  16.468  0.00  0.00    +0.000 A 
BRANCH  33  34
ATOM     34  C   UNL     1      -3.454  10.502  15.201  0.00  0.00    +0.000 C 
ATOM     35  N   UNL     1      -3.089  10.071  14.191  0.00  0.00    +0.000 NA
ENDBRANCH  33  34
ENDBRANCH  28  29
ENDBRANCH  27  28
ENDBRANCH   1  27
TORSDOF 9
ENDMDL
MODEL 5
REMARK VINA RESULT:      -6.7      0.983      1.563
REMARK  Name = 
REMARK  10 active torsions:
REMARK  status: ('A' for Active; 'I' for Inactive)
REMARK    1  A    between atoms: C_1  and  C_2
REMARK    2  A    between atoms: C_6  and  C_8
REMARK    3  A    between atoms: C_8  and  C_9
REMARK    4  A    between atoms: C_8  and  N_18
REMARK    5  A    between atoms: C_9  and  C_10
REMARK    6  A    between atoms: C_10  and  N_11
REMARK    7  A    between atoms: C_15  and  C_16
REMARK    8  A    between atoms: N_18  and  S_19
REMARK    9  A    between atoms: S_19  and  C_22
REMARK   10  A    between atoms: C_26  and  N_27
REMARK                            x       y       z     vdW  Elec       q    Type
REMARK                         _______ _______ _______ _____ _____    ______ ____
ROOT
ATOM      1  C   UNL     1       2.446   7.003  18.118  0.00  0.00    +0.000 C 
ENDROOT
BRANCH   1   7
ATOM      2  C   UNL     1       6.876   4.004  14.561  0.00  0.00    +0.000 C 
ATOM      3  C   UNL     1       6.609   5.246  15.423  0.00  0.00    +0.000 C 
ATOM      4  C   UNL     1       6.749   4.907  16.918  0.00  0.00    +0.000 C 
ATOM      5  C   UNL     1       6.264   6.036  17.838  0.00  0.00    +0.000 C 
ATOM      6  N   UNL     1       4.909   6.485  17.481  0.00  0.00    +0.000 N 
ATOM      7  C   UNL     1       3.913   6.548  18.465  0.00  0.00    +0.000 C 
ATOM      8  O   UNL     1       4.168   6.248  19.640  0.00  0.00    +0.000 OA
ATOM      9  C   UNL     1       4.837   6.958  16.097  0.00  0.00    +0.000 C 
ATOM     10  C   UNL     1       5.217   5.835  15.123  0.00  0.00    +0.000 C 
ENDBRANCH   1   7
BRANCH   1  11
ATOM     11  N   UNL     1       2.105   8.236  18.904  0.00  0.00    +0.000 NA
ATOM     12  H   UNL     1       2.486   8.296  19.856  0.00  0.00    +0.000 HD
BRANCH  11  13
ATOM     13  S   UNL     1       1.315   9.602  18.335  0.00  0.00    +0.000 S 
ATOM     14  O   UNL     1       2.290  10.612  18.016  0.00  0.00    +0.000 OA
ATOM     15  O   UNL     1       0.372   9.178  17.319  0.00  0.00    +0.000 OA
BRANCH  13  16
ATOM     16  C   UNL     1       0.384  10.197  19.717  0.00  0.00    +0.000 A 
ATOM     17  C   UNL     1       0.593   9.588  20.962  0.00  0.00    +0.000 A 
ATOM     18  C   UNL     1      -0.029  10.095  22.102  0.00  0.00    +0.000 A 
ATOM     19 CL   UNL     1       0.271   9.316  23.616  0.00  0.00    +0.000 Cl
ATOM     20  C   UNL     1      -0.841  11.239  22.033  0.00  0.00    +0.000 A 
ATOM     21  C   UNL     1      -1.065  11.817  20.777  0.00  0.00    +0.000 A 
ATOM     22  C   UNL     1      -0.443  11.319  19.621  0.00  0.00    +0.000 A 
ATOM     23 CL   UNL     1      -0.793  12.134  18.141  0.00  0.00    +0.000 Cl
BRANCH  20  24
ATOM     24  N   UNL     1      -1.602  11.670  23.132  0.00  0.00    +0.000 N 
ATOM     25  H   UNL     1      -1.966  12.616  23.019  0.00  0.00    +0.000 HD
ATOM     26  H   UNL     1      -2.311  11.017  23.452  0.00  0.00    +0.000 HD
ENDBRANCH  20  24
ENDBRANCH  13  16
ENDBRANCH  11  13
ENDBRANCH   1  11
BRANCH   1  27
ATOM     27  C   UNL     1       1.428   5.898  18.397  0.00  0.00    +0.000 C 
BRANCH  27  28
ATOM     28  C   UNL     1       2.034   4.497  18.281  0.00  0.00    +0.000 C 
BRANCH  28  29
ATOM     29  N   UNL     1       1.946   3.780  19.546  0.00  0.00    +0.000 N 
ATOM     30  C   UNL     1       0.806   3.718  20.311  0.00  0.00    +0.000 A 
ATOM     31  C   UNL     1       1.062   2.903  21.391  0.00  0.00    +0.000 A 
ATOM     32  C   UNL     1       2.414   2.491  21.287  0.00  0.00    +0.000 A 
ATOM     33  C   UNL     1       2.945   3.062  20.150  0.00  0.00    +0.000 A 
BRANCH  33  34
ATOM     34  C   UNL     1       4.291   2.932  19.679  0.00  0.00    +0.000 C 
ATOM     35  N   UNL     1       5.370   2.804  19.280  0.00  0.00    +0.000 NA
ENDBRANCH  33  34
ENDBRANCH  28  29
ENDBRANCH  27  28
ENDBRANCH   1  27
TORSDOF 9
ENDMDL
MODEL 6
REMARK VINA RESULT:      -6.6      5.540      8.269
REMARK  Name = 
REMARK  10 active torsions:
REMARK  status: ('A' for Active; 'I' for Inactive)
REMARK    1  A    between atoms: C_1  and  C_2
REMARK    2  A    between atoms: C_6  and  C_8
REMARK    3  A    between atoms: C_8  and  C_9
REMARK    4  A    between atoms: C_8  and  N_18
REMARK    5  A    between atoms: C_9  and  C_10
REMARK    6  A    between atoms: C_10  and  N_11
REMARK    7  A    between atoms: C_15  and  C_16
REMARK    8  A    between atoms: N_18  and  S_19
REMARK    9  A    between atoms: S_19  and  C_22
REMARK   10  A    between atoms: C_26  and  N_27
REMARK                            x       y       z     vdW  Elec       q    Type
REMARK                         _______ _______ _______ _____ _____    ______ ____
ROOT
ATOM      1  C   UNL     1      -1.313  12.255  20.291  0.00  0.00    +0.000 C 
ENDROOT
BRANCH   1   7
ATOM      2  C   UNL     1      -2.955  10.130  14.455  0.00  0.00    +0.000 C 
ATOM      3  C   UNL     1      -3.258   9.999  15.954  0.00  0.00    +0.000 C 
ATOM      4  C   UNL     1      -4.171  11.145  16.424  0.00  0.00    +0.000 C 
ATOM      5  C   UNL     1      -4.317  11.209  17.951  0.00  0.00    +0.000 C 
ATOM      6  N   UNL     1      -3.008  11.213  18.624  0.00  0.00    +0.000 N 
ATOM      7  C   UNL     1      -2.710  12.206  19.566  0.00  0.00    +0.000 C 
ATOM      8  O   UNL     1      -3.548  13.072  19.855  0.00  0.00    +0.000 OA
ATOM      9  C   UNL     1      -2.218  10.026  18.287  0.00  0.00    +0.000 C 
ATOM     10  C   UNL     1      -1.955   9.963  16.778  0.00  0.00    +0.000 C 
ENDBRANCH   1   7
BRANCH   1  11
ATOM     11  N   UNL     1      -1.355  13.276  21.391  0.00  0.00    +0.000 NA
ATOM     12  H   UNL     1      -1.201  14.255  21.119  0.00  0.00    +0.000 HD
BRANCH  11  13
ATOM     13  S   UNL     1      -1.799  13.013  22.987  0.00  0.00    +0.000 S 
ATOM     14  O   UNL     1      -1.963  11.599  23.204  0.00  0.00    +0.000 OA
ATOM     15  O   UNL     1      -0.887  13.760  23.830  0.00  0.00    +0.000 OA
BRANCH  13  16
ATOM     16  C   UNL     1      -3.400  13.752  23.142  0.00  0.00    +0.000 A 
ATOM     17  C   UNL     1      -4.488  12.911  23.414  0.00  0.00    +0.000 A 
ATOM     18  C   UNL     1      -5.748  13.456  23.659  0.00  0.00    +0.000 A 
ATOM     19 CL   UNL     1      -7.055  12.377  24.001  0.00  0.00    +0.000 Cl
ATOM     20  C   UNL     1      -5.943  14.847  23.675  0.00  0.00    +0.000 A 
ATOM     21  C   UNL     1      -4.852  15.671  23.372  0.00  0.00    +0.000 A 
ATOM     22  C   UNL     1      -3.577  15.137  23.126  0.00  0.00    +0.000 A 
ATOM     23 CL   UNL     1      -2.318  16.266  22.780  0.00  0.00    +0.000 Cl
BRANCH  20  24
ATOM     24  N   UNL     1      -7.226  15.410  23.760  0.00  0.00    +0.000 N 
ATOM     25  H   UNL     1      -7.337  16.031  24.561  0.00  0.00    +0.000 HD
ATOM     26  H   UNL     1      -7.578  15.819  22.900  0.00  0.00    +0.000 HD
ENDBRANCH  20  24
ENDBRANCH  13  16
ENDBRANCH  11  13
ENDBRANCH   1  11
BRANCH   1  27
ATOM     27  C   UNL     1      -0.179  12.573  19.317  0.00  0.00    +0.000 C 
BRANCH  27  28
ATOM     28  C   UNL     1       1.164  11.992  19.768  0.00  0.00    +0.000 C 
BRANCH  28  29
ATOM     29  N   UNL     1       1.354  10.644  19.250  0.00  0.00    +0.000 N 
ATOM     30  C   UNL     1       1.743  10.370  17.961  0.00  0.00    +0.000 A 
ATOM     31  C   UNL     1       1.894   9.006  17.842  0.00  0.00    +0.000 A 
ATOM     32  C   UNL     1       1.548   8.442  19.095  0.00  0.00    +0.000 A 
ATOM     33  C   UNL     1       1.199   9.472  19.943  0.00  0.00    +0.000 A 
BRANCH  33  34
ATOM     34  C   UNL     1       0.757   9.348  21.299  0.00  0.00    +0.000 C 
ATOM     35  N   UNL     1       0.370   9.254  22.385  0.00  0.00    +0.000 NA
ENDBRANCH  33  34
ENDBRANCH  28  29
ENDBRANCH  27  28
ENDBRANCH   1  27
TORSDOF 9
ENDMDL
MODEL 7
REMARK VINA RESULT:      -6.5      2.443      4.749
REMARK  Name = 
REMARK  10 active torsions:
REMARK  status: ('A' for Active; 'I' for Inactive)
REMARK    1  A    between atoms: C_1  and  C_2
REMARK    2  A    between atoms: C_6  and  C_8
REMARK    3  A    between atoms: C_8  and  C_9
REMARK    4  A    between atoms: C_8  and  N_18
REMARK    5  A    between atoms: C_9  and  C_10
REMARK    6  A    between atoms: C_10  and  N_11
REMARK    7  A    between atoms: C_15  and  C_16
REMARK    8  A    between atoms: N_18  and  S_19
REMARK    9  A    between atoms: S_19  and  C_22
REMARK   10  A    between atoms: C_26  and  N_27
REMARK                            x       y       z     vdW  Elec       q    Type
REMARK                         _______ _______ _______ _____ _____    ______ ____
ROOT
ATOM      1  C   UNL     1       2.547   8.023  18.963  0.00  0.00    +0.000 C 
ENDROOT
BRANCH   1   7
ATOM      2  C   UNL     1       0.667   1.891  18.582  0.00  0.00    +0.000 C 
ATOM      3  C   UNL     1       1.630   2.852  19.293  0.00  0.00    +0.000 C 
ATOM      4  C   UNL     1       0.906   3.604  20.425  0.00  0.00    +0.000 C 
ATOM      5  C   UNL     1       1.743   4.747  21.017  0.00  0.00    +0.000 C 
ATOM      6  N   UNL     1       2.251   5.648  19.971  0.00  0.00    +0.000 N 
ATOM      7  C   UNL     1       2.036   7.029  20.073  0.00  0.00    +0.000 C 
ATOM      8  O   UNL     1       1.437   7.503  21.048  0.00  0.00    +0.000 OA
ATOM      9  C   UNL     1       3.075   4.936  18.991  0.00  0.00    +0.000 C 
ATOM     10  C   UNL     1       2.259   3.842  18.292  0.00  0.00    +0.000 C 
ENDBRANCH   1   7
BRANCH   1  11
ATOM     11  N   UNL     1       1.420   8.917  18.535  0.00  0.00    +0.000 NA
ATOM     12  H   UNL     1       0.701   8.498  17.932  0.00  0.00    +0.000 HD
BRANCH  11  13
ATOM     13  S   UNL     1       1.117  10.476  19.074  0.00  0.00    +0.000 S 
ATOM     14  O   UNL     1       1.110  10.485  20.513  0.00  0.00    +0.000 OA
ATOM     15  O   UNL     1       2.005  11.373  18.362  0.00  0.00    +0.000 OA
BRANCH  13  16
ATOM     16  C   UNL     1      -0.536  10.827  18.544  0.00  0.00    +0.000 A 
ATOM     17  C   UNL     1      -1.031  10.130  17.434  0.00  0.00    +0.000 A 
ATOM     18  C   UNL     1      -2.362  10.286  17.049  0.00  0.00    +0.000 A 
ATOM     19 CL   UNL     1      -2.929   9.395  15.679  0.00  0.00    +0.000 Cl
ATOM     20  C   UNL     1      -3.236  11.106  17.781  0.00  0.00    +0.000 A 
ATOM     21  C   UNL     1      -2.717  11.819  18.870  0.00  0.00    +0.000 A 
ATOM     22  C   UNL     1      -1.379  11.671  19.271  0.00  0.00    +0.000 A 
ATOM     23 CL   UNL     1      -0.874  12.595  20.638  0.00  0.00    +0.000 Cl
BRANCH  20  24
ATOM     24  N   UNL     1      -4.529  11.402  17.322  0.00  0.00    +0.000 N 
ATOM     25  H   UNL     1      -4.779  10.888  16.477  0.00  0.00    +0.000 HD
ATOM     26  H   UNL     1      -5.258  11.369  18.027  0.00  0.00    +0.000 HD
ENDBRANCH  20  24
ENDBRANCH  13  16
ENDBRANCH  11  13
ENDBRANCH   1  11
BRANCH   1  27
ATOM     27  C   UNL     1       3.121   7.280  17.757  0.00  0.00    +0.000 C 
BRANCH  27  28
ATOM     28  C   UNL     1       4.609   7.572  17.540  0.00  0.00    +0.000 C 
BRANCH  28  29
ATOM     29  N   UNL     1       5.255   6.489  16.812  0.00  0.00    +0.000 N 
ATOM     30  C   UNL     1       5.028   6.220  15.483  0.00  0.00    +0.000 A 
ATOM     31  C   UNL     1       5.857   5.185  15.110  0.00  0.00    +0.000 A 
ATOM     32  C   UNL     1       6.579   4.797  16.266  0.00  0.00    +0.000 A 
ATOM     33  C   UNL     1       6.176   5.604  17.309  0.00  0.00    +0.000 A 
BRANCH  33  34
ATOM     34  C   UNL     1       6.632   5.537  18.664  0.00  0.00    +0.000 C 
ATOM     35  N   UNL     1       6.976   5.465  19.767  0.00  0.00    +0.000 NA
ENDBRANCH  33  34
ENDBRANCH  28  29
ENDBRANCH  27  28
ENDBRANCH   1  27
TORSDOF 9
ENDMDL
MODEL 8
REMARK VINA RESULT:      -6.5      3.597      6.996
REMARK  Name = 
REMARK  10 active torsions:
REMARK  status: ('A' for Active; 'I' for Inactive)
REMARK    1  A    between atoms: C_1  and  C_2
REMARK    2  A    between atoms: C_6  and  C_8
REMARK    3  A    between atoms: C_8  and  C_9
REMARK    4  A    between atoms: C_8  and  N_18
REMARK    5  A    between atoms: C_9  and  C_10
REMARK    6  A    between atoms: C_10  and  N_11
REMARK    7  A    between atoms: C_15  and  C_16
REMARK    8  A    between atoms: N_18  and  S_19
REMARK    9  A    between atoms: S_19  and  C_22
REMARK   10  A    between atoms: C_26  and  N_27
REMARK                            x       y       z     vdW  Elec       q    Type
REMARK                         _______ _______ _______ _____ _____    ______ ____
ROOT
ATOM      1  C   UNL     1       1.020  10.142  19.395  0.00  0.00    +0.000 C 
ENDROOT
BRANCH   1   7
ATOM      2  C   UNL     1       1.703   3.944  17.849  0.00  0.00    +0.000 C 
ATOM      3  C   UNL     1       2.321   5.099  18.649  0.00  0.00    +0.000 C 
ATOM      4  C   UNL     1       1.592   5.277  19.992  0.00  0.00    +0.000 C 
ATOM      5  C   UNL     1       2.001   6.558  20.732  0.00  0.00    +0.000 C 
ATOM      6  N   UNL     1       1.896   7.744  19.867  0.00  0.00    +0.000 N 
ATOM      7  C   UNL     1       1.172   8.863  20.301  0.00  0.00    +0.000 C 
ATOM      8  O   UNL     1       0.636   8.872  21.417  0.00  0.00    +0.000 OA
ATOM      9  C   UNL     1       2.729   7.620  18.668  0.00  0.00    +0.000 C 
ATOM     10  C   UNL     1       2.298   6.407  17.834  0.00  0.00    +0.000 C 
ENDBRANCH   1   7
BRANCH   1  11
ATOM     11  N   UNL     1       0.820  11.350  20.263  0.00  0.00    +0.000 NA
ATOM     12  H   UNL     1       0.175  11.246  21.056  0.00  0.00    +0.000 HD
BRANCH  11  13
ATOM     13  S   UNL     1       1.668  12.795  20.182  0.00  0.00    +0.000 S 
ATOM     14  O   UNL     1       2.448  12.953  21.381  0.00  0.00    +0.000 OA
ATOM     15  O   UNL     1       2.328  12.851  18.892  0.00  0.00    +0.000 OA
BRANCH  13  16
ATOM     16  C   UNL     1       0.423  14.054  20.202  0.00  0.00    +0.000 A 
ATOM     17  C   UNL     1       0.446  15.016  19.183  0.00  0.00    +0.000 A 
ATOM     18  C   UNL     1      -0.578  15.958  19.089  0.00  0.00    +0.000 A 
ATOM     19 CL   UNL     1      -0.511  17.117  17.808  0.00  0.00    +0.000 Cl
ATOM     20  C   UNL     1      -1.663  15.938  19.982  0.00  0.00    +0.000 A 
ATOM     21  C   UNL     1      -1.654  14.989  21.012  0.00  0.00    +0.000 A 
ATOM     22  C   UNL     1      -0.631  14.033  21.118  0.00  0.00    +0.000 A 
ATOM     23 CL   UNL     1      -0.751  12.912  22.424  0.00  0.00    +0.000 Cl
BRANCH  20  24
ATOM     24  N   UNL     1      -2.617  16.968  20.006  0.00  0.00    +0.000 N 
ATOM     25  H   UNL     1      -2.259  17.833  20.410  0.00  0.00    +0.000 HD
ATOM     26  H   UNL     1      -3.111  17.122  19.132  0.00  0.00    +0.000 HD
ENDBRANCH  20  24
ENDBRANCH  13  16
ENDBRANCH  11  13
ENDBRANCH   1  11
BRANCH   1  27
ATOM     27  C   UNL     1      -0.137  10.002  18.406  0.00  0.00    +0.000 C 
BRANCH  27  28
ATOM     28  C   UNL     1      -1.409  10.707  18.886  0.00  0.00    +0.000 C 
BRANCH  28  29
ATOM     29  N   UNL     1      -2.405  10.772  17.825  0.00  0.00    +0.000 N 
ATOM     30  C   UNL     1      -2.229  10.223  16.578  0.00  0.00    +0.000 A 
ATOM     31  C   UNL     1      -3.391  10.406  15.862  0.00  0.00    +0.000 A 
ATOM     32  C   UNL     1      -4.283  11.121  16.700  0.00  0.00    +0.000 A 
ATOM     33  C   UNL     1      -3.644  11.353  17.900  0.00  0.00    +0.000 A 
BRANCH  33  34
ATOM     34  C   UNL     1      -4.171  12.067  19.023  0.00  0.00    +0.000 C 
ATOM     35  N   UNL     1      -4.586  12.671  19.919  0.00  0.00    +0.000 NA
ENDBRANCH  33  34
ENDBRANCH  28  29
ENDBRANCH  27  28
ENDBRANCH   1  27
TORSDOF 9
ENDMDL
MODEL 9
REMARK VINA RESULT:      -6.4      2.187      3.191
REMARK  Name = 
REMARK  10 active torsions:
REMARK  status: ('A' for Active; 'I' for Inactive)
REMARK    1  A    between atoms: C_1  and  C_2
REMARK    2  A    between atoms: C_6  and  C_8
REMARK    3  A    between atoms: C_8  and  C_9
REMARK    4  A    between atoms: C_8  and  N_18
REMARK    5  A    between atoms: C_9  and  C_10
REMARK    6  A    between atoms: C_10  and  N_11
REMARK    7  A    between atoms: C_15  and  C_16
REMARK    8  A    between atoms: N_18  and  S_19
REMARK    9  A    between atoms: S_19  and  C_22
REMARK   10  A    between atoms: C_26  and  N_27
REMARK                            x       y       z     vdW  Elec       q    Type
REMARK                         _______ _______ _______ _____ _____    ______ ____
ROOT
ATOM      1  C   UNL     1       1.747   7.116  19.761  0.00  0.00    +0.000 C 
ENDROOT
BRANCH   1   7
ATOM      2  C   UNL     1       8.031   6.289  18.709  0.00  0.00    +0.000 C 
ATOM      3  C   UNL     1       6.629   5.951  18.182  0.00  0.00    +0.000 C 
ATOM      4  C   UNL     1       6.061   7.125  17.365  0.00  0.00    +0.000 C 
ATOM      5  C   UNL     1       4.577   6.949  17.012  0.00  0.00    +0.000 C 
ATOM      6  N   UNL     1       3.768   6.640  18.201  0.00  0.00    +0.000 N 
ATOM      7  C   UNL     1       2.626   7.402  18.487  0.00  0.00    +0.000 C 
ATOM      8  O   UNL     1       2.279   8.323  17.734  0.00  0.00    +0.000 OA
ATOM      9  C   UNL     1       4.228   5.423  18.874  0.00  0.00    +0.000 C 
ATOM     10  C   UNL     1       5.681   5.579  19.339  0.00  0.00    +0.000 C 
ENDBRANCH   1   7
BRANCH   1  11
ATOM     11  N   UNL     1       1.949   8.213  20.766  0.00  0.00    +0.000 NA
ATOM     12  H   UNL     1       2.921   8.472  20.976  0.00  0.00    +0.000 HD
BRANCH  11  13
ATOM     13  S   UNL     1       0.760   9.177  21.451  0.00  0.00    +0.000 S 
ATOM     14  O   UNL     1      -0.311   8.339  21.925  0.00  0.00    +0.000 OA
ATOM     15  O   UNL     1       1.406  10.093  22.370  0.00  0.00    +0.000 OA
BRANCH  13  16
ATOM     16  C   UNL     1       0.117  10.131  20.106  0.00  0.00    +0.000 A 
ATOM     17  C   UNL     1      -0.945   9.592  19.367  0.00  0.00    +0.000 A 
ATOM     18  C   UNL     1      -1.561  10.352  18.374  0.00  0.00    +0.000 A 
ATOM     19 CL   UNL     1      -2.874   9.646  17.498  0.00  0.00    +0.000 Cl
ATOM     20  C   UNL     1      -1.159  11.674  18.122  0.00  0.00    +0.000 A 
ATOM     21  C   UNL     1      -0.077  12.187  18.848  0.00  0.00    +0.000 A 
ATOM     22  C   UNL     1       0.551  11.434  19.854  0.00  0.00    +0.000 A 
ATOM     23 CL   UNL     1       1.862  12.192  20.683  0.00  0.00    +0.000 Cl
BRANCH  20  24
ATOM     24  N   UNL     1      -1.654  12.399  17.025  0.00  0.00    +0.000 N 
ATOM     25  H   UNL     1      -0.948  12.989  16.586  0.00  0.00    +0.000 HD
ATOM     26  H   UNL     1      -2.182  11.855  16.349  0.00  0.00    +0.000 HD
ENDBRANCH  20  24
ENDBRANCH  13  16
ENDBRANCH  11  13
ENDBRANCH   1  11
BRANCH   1  27
ATOM     27  C   UNL     1       2.076   5.759  20.384  0.00  0.00    +0.000 C 
BRANCH  27  28
ATOM     28  C   UNL     1       1.017   4.697  20.074  0.00  0.00    +0.000 C 
BRANCH  28  29
ATOM     29  N   UNL     1       1.585   3.601  19.300  0.00  0.00    +0.000 N 
ATOM     30  C   UNL     1       1.480   3.497  17.934  0.00  0.00    +0.000 A 
ATOM     31  C   UNL     1       2.191   2.386  17.535  0.00  0.00    +0.000 A 
ATOM     32  C   UNL     1       2.710   1.785  18.709  0.00  0.00    +0.000 A 
ATOM     33  C   UNL     1       2.306   2.542  19.788  0.00  0.00    +0.000 A 
BRANCH  33  34
ATOM     34  C   UNL     1       2.584   2.279  21.167  0.00  0.00    +0.000 C 
ATOM     35  N   UNL     1       2.835   2.085  22.281  0.00  0.00    +0.000 NA
ENDBRANCH  33  34
ENDBRANCH  28  29
ENDBRANCH  27  28
ENDBRANCH   1  27
TORSDOF 9
ENDMDL
