MODEL 1
REMARK VINA RESULT:      -8.1      0.000      0.000
REMARK  Name = 
REMARK  3 active torsions:
REMARK  status: ('A' for Active; 'I' for Inactive)
REMARK    1  A    between atoms: C_4  and  C_5
REMARK    2  A    between atoms: C_12  and  N_13
REMARK    3  A    between atoms: C_12  and  C_20
REMARK                            x       y       z     vdW  Elec       q    Type
REMARK                         _______ _______ _______ _____ _____    ______ ____
ROOT
ATOM      1  O   UNL     1       4.566   7.868  17.185  0.00  0.00    +0.000 OA
ATOM      2  C   UNL     1       4.899   6.754  16.810  0.00  0.00    +0.000 C 
ATOM      3  N   UNL     1       5.551   6.508  15.636  0.00  0.00    +0.000 N 
ATOM      4  C   UNL     1       5.507   5.186  15.392  0.00  0.00    +0.000 C 
ATOM      5  N   UNL     1       4.990   4.456  16.320  0.00  0.00    +0.000 NA
ATOM      6  C   UNL     1       4.582   5.383  17.439  0.00  0.00    +0.000 C 
ATOM      7  H   UNL     1       5.797   7.245  14.996  0.00  0.00    +0.000 HD
ENDROOT
BRANCH   6   8
ATOM      8  N   UNL     1       3.120   5.316  17.710  0.00  0.00    +0.000 N 
ATOM      9  C   UNL     1       2.677   4.043  18.098  0.00  0.00    +0.000 A 
ATOM     10  C   UNL     1       1.330   3.865  18.392  0.00  0.00    +0.000 A 
ATOM     11  C   UNL     1       0.873   2.605  18.779  0.00  0.00    +0.000 A 
ATOM     12  C   UNL     1       1.769   1.547  18.847  0.00  0.00    +0.000 A 
ATOM     13  C   UNL     1       3.091   1.809  18.549  0.00  0.00    +0.000 A 
ATOM     14  N   UNL     1       3.552   3.027  18.200  0.00  0.00    +0.000 NA
ATOM     15  H   UNL     1       2.592   5.607  16.896  0.00  0.00    +0.000 HD
ENDBRANCH   6   8
BRANCH   4  16
ATOM     16  C   UNL     1       5.968   4.637  14.106  0.00  0.00    +0.000 A 
ATOM     17  C   UNL     1       5.224   3.696  13.392  0.00  0.00    +0.000 A 
ATOM     18  C   UNL     1       5.720   3.199  12.182  0.00  0.00    +0.000 A 
ATOM     19  C   UNL     1       6.953   3.636  11.692  0.00  0.00    +0.000 A 
ATOM     20  C   UNL     1       7.691   4.581  12.400  0.00  0.00    +0.000 A 
ATOM     21  C   UNL     1       7.196   5.089  13.601  0.00  0.00    +0.000 A 
ENDBRANCH   4  16
BRANCH   6  22
ATOM     22  C   UNL     1       5.516   5.294  18.703  0.00  0.00    +0.000 C 
ATOM     23  F   UNL     1       6.543   6.189  18.651  0.00  0.00    +0.000 F 
ATOM     24  F   UNL     1       4.870   5.547  19.871  0.00  0.00    +0.000 F 
ATOM     25  F   UNL     1       6.114   4.080  18.832  0.00  0.00    +0.000 F 
ENDBRANCH   6  22
TORSDOF 3
ENDMDL
MODEL 2
REMARK VINA RESULT:      -8.1      0.064      1.276
REMARK  Name = 
REMARK  3 active torsions:
REMARK  status: ('A' for Active; 'I' for Inactive)
REMARK    1  A    between atoms: C_4  and  C_5
REMARK    2  A    between atoms: C_12  and  N_13
REMARK    3  A    between atoms: C_12  and  C_20
REMARK                            x       y       z     vdW  Elec       q    Type
REMARK                         _______ _______ _______ _____ _____    ______ ____
ROOT
ATOM      1  O   UNL     1       4.569   7.862  17.194  0.00  0.00    +0.000 OA
ATOM      2  C   UNL     1       4.914   6.751  16.821  0.00  0.00    +0.000 C 
ATOM      3  N   UNL     1       5.583   6.512  15.655  0.00  0.00    +0.000 N 
ATOM      4  C   UNL     1       5.550   5.190  15.407  0.00  0.00    +0.000 C 
ATOM      5  N   UNL     1       5.025   4.454  16.326  0.00  0.00    +0.000 NA
ATOM      6  C   UNL     1       4.596   5.376  17.441  0.00  0.00    +0.000 C 
ATOM      7  H   UNL     1       5.833   7.252  15.020  0.00  0.00    +0.000 HD
ENDROOT
BRANCH   6   8
ATOM      8  N   UNL     1       3.131   5.300  17.692  0.00  0.00    +0.000 N 
ATOM      9  C   UNL     1       2.690   4.023  18.069  0.00  0.00    +0.000 A 
ATOM     10  C   UNL     1       1.339   3.836  18.344  0.00  0.00    +0.000 A 
ATOM     11  C   UNL     1       0.885   2.573  18.719  0.00  0.00    +0.000 A 
ATOM     12  C   UNL     1       1.785   1.519  18.795  0.00  0.00    +0.000 A 
ATOM     13  C   UNL     1       3.109   1.789  18.517  0.00  0.00    +0.000 A 
ATOM     14  N   UNL     1       3.569   3.011  18.179  0.00  0.00    +0.000 NA
ATOM     15  H   UNL     1       2.612   5.592  16.872  0.00  0.00    +0.000 HD
ENDBRANCH   6   8
BRANCH   4  16
ATOM     16  C   UNL     1       6.033   4.648  14.126  0.00  0.00    +0.000 A 
ATOM     17  C   UNL     1       7.239   5.059  13.554  0.00  0.00    +0.000 A 
ATOM     18  C   UNL     1       7.640   4.519  12.328  0.00  0.00    +0.000 A 
ATOM     19  C   UNL     1       6.839   3.578  11.675  0.00  0.00    +0.000 A 
ATOM     20  C   UNL     1       5.641   3.162  12.250  0.00  0.00    +0.000 A 
ATOM     21  C   UNL     1       5.241   3.688  13.478  0.00  0.00    +0.000 A 
ENDBRANCH   4  16
BRANCH   6  22
ATOM     22  C   UNL     1       5.513   5.288  18.718  0.00  0.00    +0.000 C 
ATOM     23  F   UNL     1       4.827   5.563  19.865  0.00  0.00    +0.000 F 
ATOM     24  F   UNL     1       6.062   4.061  18.906  0.00  0.00    +0.000 F 
ATOM     25  F   UNL     1       6.534   6.184  18.696  0.00  0.00    +0.000 F 
ENDBRANCH   6  22
TORSDOF 3
ENDMDL
MODEL 3
REMARK VINA RESULT:      -7.8      3.277      4.725
REMARK  Name = 
REMARK  3 active torsions:
REMARK  status: ('A' for Active; 'I' for Inactive)
REMARK    1  A    between atoms: C_4  and  C_5
REMARK    2  A    between atoms: C_12  and  N_13
REMARK    3  A    between atoms: C_12  and  C_20
REMARK                            x       y       z     vdW  Elec       q    Type
REMARK                         _______ _______ _______ _____ _____    ______ ____
ROOT
ATOM      1  O   UNL     1       3.782   2.410  21.244  0.00  0.00    +0.000 OA
ATOM      2  C   UNL     1       3.701   2.937  20.145  0.00  0.00    +0.000 C 
ATOM      3  N   UNL     1       4.698   2.910  19.212  0.00  0.00    +0.000 N 
ATOM      4  C   UNL     1       4.411   3.811  18.256  0.00  0.00    +0.000 C 
ATOM      5  N   UNL     1       3.266   4.395  18.352  0.00  0.00    +0.000 NA
ATOM      6  C   UNL     1       2.587   3.840  19.580  0.00  0.00    +0.000 C 
ATOM      7  H   UNL     1       5.576   2.449  19.381  0.00  0.00    +0.000 HD
ENDROOT
BRANCH   6   8
ATOM      8  N   UNL     1       2.291   4.903  20.579  0.00  0.00    +0.000 N 
ATOM      9  C   UNL     1       2.094   6.171  20.011  0.00  0.00    +0.000 A 
ATOM     10  C   UNL     1       1.796   7.239  20.849  0.00  0.00    +0.000 A 
ATOM     11  C   UNL     1       1.598   8.506  20.300  0.00  0.00    +0.000 A 
ATOM     12  C   UNL     1       1.720   8.681  18.929  0.00  0.00    +0.000 A 
ATOM     13  C   UNL     1       2.008   7.568  18.165  0.00  0.00    +0.000 A 
ATOM     14  N   UNL     1       2.175   6.332  18.678  0.00  0.00    +0.000 NA
ATOM     15  H   UNL     1       3.035   4.968  21.263  0.00  0.00    +0.000 HD
ENDBRANCH   6   8
BRANCH   4  16
ATOM     16  C   UNL     1       5.391   4.141  17.207  0.00  0.00    +0.000 A 
ATOM     17  C   UNL     1       6.692   4.551  17.510  0.00  0.00    +0.000 A 
ATOM     18  C   UNL     1       7.575   4.864  16.473  0.00  0.00    +0.000 A 
ATOM     19  C   UNL     1       7.161   4.774  15.142  0.00  0.00    +0.000 A 
ATOM     20  C   UNL     1       5.868   4.357  14.839  0.00  0.00    +0.000 A 
ATOM     21  C   UNL     1       4.986   4.031  15.869  0.00  0.00    +0.000 A 
ENDBRANCH   4  16
BRANCH   6  22
ATOM     22  C   UNL     1       1.399   2.860  19.254  0.00  0.00    +0.000 C 
ATOM     23  F   UNL     1       1.807   1.560  19.184  0.00  0.00    +0.000 F 
ATOM     24  F   UNL     1       0.409   2.882  20.183  0.00  0.00    +0.000 F 
ATOM     25  F   UNL     1       0.823   3.112  18.050  0.00  0.00    +0.000 F 
ENDBRANCH   6  22
TORSDOF 3
ENDMDL
MODEL 4
REMARK VINA RESULT:      -7.7      2.027      5.425
REMARK  Name = 
REMARK  3 active torsions:
REMARK  status: ('A' for Active; 'I' for Inactive)
REMARK    1  A    between atoms: C_4  and  C_5
REMARK    2  A    between atoms: C_12  and  N_13
REMARK    3  A    between atoms: C_12  and  C_20
REMARK                            x       y       z     vdW  Elec       q    Type
REMARK                         _______ _______ _______ _____ _____    ______ ____
ROOT
ATOM      1  O   UNL     1       8.564   4.172  17.882  0.00  0.00    +0.000 OA
ATOM      2  C   UNL     1       7.445   4.618  17.677  0.00  0.00    +0.000 C 
ATOM      3  N   UNL     1       6.299   4.047  18.149  0.00  0.00    +0.000 N 
ATOM      4  C   UNL     1       5.252   4.603  17.513  0.00  0.00    +0.000 C 
ATOM      5  N   UNL     1       5.525   5.582  16.720  0.00  0.00    +0.000 NA
ATOM      6  C   UNL     1       7.019   5.792  16.773  0.00  0.00    +0.000 C 
ATOM      7  H   UNL     1       6.308   3.207  18.702  0.00  0.00    +0.000 HD
ENDROOT
BRANCH   6   8
ATOM      8  N   UNL     1       7.652   5.613  15.438  0.00  0.00    +0.000 N 
ATOM      9  C   UNL     1       6.861   4.889  14.532  0.00  0.00    +0.000 A 
ATOM     10  C   UNL     1       7.346   4.673  13.247  0.00  0.00    +0.000 A 
ATOM     11  C   UNL     1       6.573   3.955  12.335  0.00  0.00    +0.000 A 
ATOM     12  C   UNL     1       5.342   3.454  12.731  0.00  0.00    +0.000 A 
ATOM     13  C   UNL     1       4.928   3.720  14.021  0.00  0.00    +0.000 A 
ATOM     14  N   UNL     1       5.652   4.436  14.906  0.00  0.00    +0.000 NA
ATOM     15  H   UNL     1       8.548   5.149  15.527  0.00  0.00    +0.000 HD
ENDBRANCH   6   8
BRANCH   4  16
ATOM     16  C   UNL     1       3.892   4.064  17.679  0.00  0.00    +0.000 A 
ATOM     17  C   UNL     1       2.770   4.893  17.762  0.00  0.00    +0.000 A 
ATOM     18  C   UNL     1       1.505   4.325  17.934  0.00  0.00    +0.000 A 
ATOM     19  C   UNL     1       1.359   2.939  18.028  0.00  0.00    +0.000 A 
ATOM     20  C   UNL     1       2.476   2.112  17.936  0.00  0.00    +0.000 A 
ATOM     21  C   UNL     1       3.740   2.671  17.753  0.00  0.00    +0.000 A 
ENDBRANCH   4  16
BRANCH   6  22
ATOM     22  C   UNL     1       7.445   7.085  17.563  0.00  0.00    +0.000 C 
ATOM     23  F   UNL     1       6.386   7.905  17.821  0.00  0.00    +0.000 F 
ATOM     24  F   UNL     1       8.005   6.820  18.772  0.00  0.00    +0.000 F 
ATOM     25  F   UNL     1       8.327   7.856  16.874  0.00  0.00    +0.000 F 
ENDBRANCH   6  22
TORSDOF 3
ENDMDL
MODEL 5
REMARK VINA RESULT:      -7.7      1.812      2.096
REMARK  Name = 
REMARK  3 active torsions:
REMARK  status: ('A' for Active; 'I' for Inactive)
REMARK    1  A    between atoms: C_4  and  C_5
REMARK    2  A    between atoms: C_12  and  N_13
REMARK    3  A    between atoms: C_12  and  C_20
REMARK                            x       y       z     vdW  Elec       q    Type
REMARK                         _______ _______ _______ _____ _____    ______ ____
ROOT
ATOM      1  O   UNL     1       7.041   8.257  17.479  0.00  0.00    +0.000 OA
ATOM      2  C   UNL     1       6.958   7.092  17.122  0.00  0.00    +0.000 C 
ATOM      3  N   UNL     1       7.150   6.673  15.837  0.00  0.00    +0.000 N 
ATOM      4  C   UNL     1       6.704   5.409  15.728  0.00  0.00    +0.000 C 
ATOM      5  N   UNL     1       6.318   4.848  16.823  0.00  0.00    +0.000 NA
ATOM      6  C   UNL     1       6.505   5.859  17.928  0.00  0.00    +0.000 C 
ATOM      7  H   UNL     1       7.373   7.314  15.093  0.00  0.00    +0.000 HD
ENDROOT
BRANCH   6   8
ATOM      8  N   UNL     1       5.220   6.184  18.606  0.00  0.00    +0.000 N 
ATOM      9  C   UNL     1       4.566   5.064  19.140  0.00  0.00    +0.000 A 
ATOM     10  C   UNL     1       3.362   5.251  19.810  0.00  0.00    +0.000 A 
ATOM     11  C   UNL     1       2.698   4.148  20.346  0.00  0.00    +0.000 A 
ATOM     12  C   UNL     1       3.242   2.881  20.186  0.00  0.00    +0.000 A 
ATOM     13  C   UNL     1       4.445   2.782  19.518  0.00  0.00    +0.000 A 
ATOM     14  N   UNL     1       5.113   3.842  19.017  0.00  0.00    +0.000 NA
ATOM     15  H   UNL     1       4.589   6.654  17.968  0.00  0.00    +0.000 HD
ENDBRANCH   6   8
BRANCH   4  16
ATOM     16  C   UNL     1       6.613   4.748  14.416  0.00  0.00    +0.000 A 
ATOM     17  C   UNL     1       5.586   3.853  14.106  0.00  0.00    +0.000 A 
ATOM     18  C   UNL     1       5.558   3.245  12.847  0.00  0.00    +0.000 A 
ATOM     19  C   UNL     1       6.552   3.524  11.906  0.00  0.00    +0.000 A 
ATOM     20  C   UNL     1       7.570   4.423  12.211  0.00  0.00    +0.000 A 
ATOM     21  C   UNL     1       7.597   5.042  13.460  0.00  0.00    +0.000 A 
ENDBRANCH   4  16
BRANCH   6  22
ATOM     22  C   UNL     1       7.716   5.533  18.880  0.00  0.00    +0.000 C 
ATOM     23  F   UNL     1       7.319   5.331  20.169  0.00  0.00    +0.000 F 
ATOM     24  F   UNL     1       8.395   4.411  18.527  0.00  0.00    +0.000 F 
ATOM     25  F   UNL     1       8.621   6.544  18.946  0.00  0.00    +0.000 F 
ENDBRANCH   6  22
TORSDOF 3
ENDMDL
MODEL 6
REMARK VINA RESULT:      -7.7      2.029      5.425
REMARK  Name = 
REMARK  3 active torsions:
REMARK  status: ('A' for Active; 'I' for Inactive)
REMARK    1  A    between atoms: C_4  and  C_5
REMARK    2  A    between atoms: C_12  and  N_13
REMARK    3  A    between atoms: C_12  and  C_20
REMARK                            x       y       z     vdW  Elec       q    Type
REMARK                         _______ _______ _______ _____ _____    ______ ____
ROOT
ATOM      1  O   UNL     1       8.580   4.207  17.881  0.00  0.00    +0.000 OA
ATOM      2  C   UNL     1       7.454   4.632  17.673  0.00  0.00    +0.000 C 
ATOM      3  N   UNL     1       6.318   4.045  18.149  0.00  0.00    +0.000 N 
ATOM      4  C   UNL     1       5.262   4.578  17.508  0.00  0.00    +0.000 C 
ATOM      5  N   UNL     1       5.518   5.556  16.709  0.00  0.00    +0.000 NA
ATOM      6  C   UNL     1       7.008   5.792  16.761  0.00  0.00    +0.000 C 
ATOM      7  H   UNL     1       6.341   3.209  18.708  0.00  0.00    +0.000 HD
ENDROOT
BRANCH   6   8
ATOM      8  N   UNL     1       7.644   5.614  15.427  0.00  0.00    +0.000 N 
ATOM      9  C   UNL     1       6.857   4.891  14.519  0.00  0.00    +0.000 A 
ATOM     10  C   UNL     1       7.345   4.677  13.234  0.00  0.00    +0.000 A 
ATOM     11  C   UNL     1       6.575   3.959  12.320  0.00  0.00    +0.000 A 
ATOM     12  C   UNL     1       5.342   3.457  12.713  0.00  0.00    +0.000 A 
ATOM     13  C   UNL     1       4.925   3.722  14.001  0.00  0.00    +0.000 A 
ATOM     14  N   UNL     1       5.647   4.437  14.888  0.00  0.00    +0.000 NA
ATOM     15  H   UNL     1       8.541   5.151  15.518  0.00  0.00    +0.000 HD
ENDBRANCH   6   8
BRANCH   4  16
ATOM     16  C   UNL     1       3.911   4.017  17.678  0.00  0.00    +0.000 A 
ATOM     17  C   UNL     1       3.684   2.641  17.762  0.00  0.00    +0.000 A 
ATOM     18  C   UNL     1       2.378   2.165  17.909  0.00  0.00    +0.000 A 
ATOM     19  C   UNL     1       1.304   3.057  17.967  0.00  0.00    +0.000 A 
ATOM     20  C   UNL     1       1.530   4.428  17.892  0.00  0.00    +0.000 A 
ATOM     21  C   UNL     1       2.832   4.910  17.758  0.00  0.00    +0.000 A 
ENDBRANCH   4  16
BRANCH   6  22
ATOM     22  C   UNL     1       7.412   7.098  17.542  0.00  0.00    +0.000 C 
ATOM     23  F   UNL     1       7.948   6.823  18.765  0.00  0.00    +0.000 F 
ATOM     24  F   UNL     1       8.341   7.848  16.896  0.00  0.00    +0.000 F 
ATOM     25  F   UNL     1       6.351   7.908  17.798  0.00  0.00    +0.000 F 
ENDBRANCH   6  22
TORSDOF 3
ENDMDL
MODEL 7
REMARK VINA RESULT:      -7.7      1.467      1.992
REMARK  Name = 
REMARK  3 active torsions:
REMARK  status: ('A' for Active; 'I' for Inactive)
REMARK    1  A    between atoms: C_4  and  C_5
REMARK    2  A    between atoms: C_12  and  N_13
REMARK    3  A    between atoms: C_12  and  C_20
REMARK                            x       y       z     vdW  Elec       q    Type
REMARK                         _______ _______ _______ _____ _____    ______ ____
ROOT
ATOM      1  O   UNL     1       7.372   8.037  17.332  0.00  0.00    +0.000 OA
ATOM      2  C   UNL     1       7.129   6.916  16.913  0.00  0.00    +0.000 C 
ATOM      3  N   UNL     1       7.440   6.489  15.653  0.00  0.00    +0.000 N 
ATOM      4  C   UNL     1       6.789   5.336  15.420  0.00  0.00    +0.000 C 
ATOM      5  N   UNL     1       6.136   4.842  16.417  0.00  0.00    +0.000 NA
ATOM      6  C   UNL     1       6.333   5.780  17.583  0.00  0.00    +0.000 C 
ATOM      7  H   UNL     1       7.894   7.087  14.983  0.00  0.00    +0.000 HD
ENDROOT
BRANCH   6   8
ATOM      8  N   UNL     1       5.041   6.335  18.073  0.00  0.00    +0.000 N 
ATOM      9  C   UNL     1       3.989   5.407  18.062  0.00  0.00    +0.000 A 
ATOM     10  C   UNL     1       2.737   5.811  18.512  0.00  0.00    +0.000 A 
ATOM     11  C   UNL     1       1.681   4.901  18.507  0.00  0.00    +0.000 A 
ATOM     12  C   UNL     1       1.893   3.613  18.036  0.00  0.00    +0.000 A 
ATOM     13  C   UNL     1       3.166   3.287  17.616  0.00  0.00    +0.000 A 
ATOM     14  N   UNL     1       4.205   4.148  17.640  0.00  0.00    +0.000 NA
ATOM     15  H   UNL     1       4.767   7.140  17.523  0.00  0.00    +0.000 HD
ENDBRANCH   6   8
BRANCH   4  16
ATOM     16  C   UNL     1       6.783   4.727  14.080  0.00  0.00    +0.000 A 
ATOM     17  C   UNL     1       7.716   5.078  13.102  0.00  0.00    +0.000 A 
ATOM     18  C   UNL     1       7.653   4.476  11.841  0.00  0.00    +0.000 A 
ATOM     19  C   UNL     1       6.662   3.533  11.558  0.00  0.00    +0.000 A 
ATOM     20  C   UNL     1       5.737   3.176  12.536  0.00  0.00    +0.000 A 
ATOM     21  C   UNL     1       5.802   3.764  13.799  0.00  0.00    +0.000 A 
ENDBRANCH   4  16
BRANCH   6  22
ATOM     22  C   UNL     1       7.295   5.212  18.692  0.00  0.00    +0.000 C 
ATOM     23  F   UNL     1       8.157   6.159  19.161  0.00  0.00    +0.000 F 
ATOM     24  F   UNL     1       6.643   4.739  19.785  0.00  0.00    +0.000 F 
ATOM     25  F   UNL     1       8.091   4.209  18.236  0.00  0.00    +0.000 F 
ENDBRANCH   6  22
TORSDOF 3
ENDMDL
MODEL 8
REMARK VINA RESULT:      -7.7      3.211      4.531
REMARK  Name = 
REMARK  3 active torsions:
REMARK  status: ('A' for Active; 'I' for Inactive)
REMARK    1  A    between atoms: C_4  and  C_5
REMARK    2  A    between atoms: C_12  and  N_13
REMARK    3  A    between atoms: C_12  and  C_20
REMARK                            x       y       z     vdW  Elec       q    Type
REMARK                         _______ _______ _______ _____ _____    ______ ____
ROOT
ATOM      1  O   UNL     1       4.066   2.387  21.102  0.00  0.00    +0.000 OA
ATOM      2  C   UNL     1       3.903   2.899  20.004  0.00  0.00    +0.000 C 
ATOM      3  N   UNL     1       4.846   2.901  19.017  0.00  0.00    +0.000 N 
ATOM      4  C   UNL     1       4.471   3.780  18.070  0.00  0.00    +0.000 C 
ATOM      5  N   UNL     1       3.310   4.319  18.226  0.00  0.00    +0.000 NA
ATOM      6  C   UNL     1       2.724   3.751  19.495  0.00  0.00    +0.000 C 
ATOM      7  H   UNL     1       5.750   2.477  19.140  0.00  0.00    +0.000 HD
ENDROOT
BRANCH   6   8
ATOM      8  N   UNL     1       2.442   4.812  20.500  0.00  0.00    +0.000 N 
ATOM      9  C   UNL     1       2.205   6.075  19.935  0.00  0.00    +0.000 A 
ATOM     10  C   UNL     1       1.916   7.141  20.779  0.00  0.00    +0.000 A 
ATOM     11  C   UNL     1       1.680   8.402  20.233  0.00  0.00    +0.000 A 
ATOM     12  C   UNL     1       1.754   8.575  18.858  0.00  0.00    +0.000 A 
ATOM     13  C   UNL     1       2.037   7.464  18.089  0.00  0.00    +0.000 A 
ATOM     14  N   UNL     1       2.241   6.233  18.600  0.00  0.00    +0.000 NA
ATOM     15  H   UNL     1       3.206   4.892  21.160  0.00  0.00    +0.000 HD
ENDBRANCH   6   8
BRANCH   4  16
ATOM     16  C   UNL     1       5.377   4.137  16.966  0.00  0.00    +0.000 A 
ATOM     17  C   UNL     1       4.978   4.070  15.629  0.00  0.00    +0.000 A 
ATOM     18  C   UNL     1       5.887   4.407  14.621  0.00  0.00    +0.000 A 
ATOM     19  C   UNL     1       7.187   4.804  14.946  0.00  0.00    +0.000 A 
ATOM     20  C   UNL     1       7.581   4.879  16.279  0.00  0.00    +0.000 A 
ATOM     21  C   UNL     1       6.676   4.555  17.289  0.00  0.00    +0.000 A 
ENDBRANCH   4  16
BRANCH   6  22
ATOM     22  C   UNL     1       1.560   2.721  19.245  0.00  0.00    +0.000 C 
ATOM     23  F   UNL     1       0.739   2.596  20.328  0.00  0.00    +0.000 F 
ATOM     24  F   UNL     1       0.749   3.062  18.210  0.00  0.00    +0.000 F 
ATOM     25  F   UNL     1       2.013   1.463  19.001  0.00  0.00    +0.000 F 
ENDBRANCH   6  22
TORSDOF 3
ENDMDL
MODEL 9
REMARK VINA RESULT:      -7.6      1.331      1.736
REMARK  Name = 
REMARK  3 active torsions:
REMARK  status: ('A' for Active; 'I' for Inactive)
REMARK    1  A    between atoms: C_4  and  C_5
REMARK    2  A    between atoms: C_12  and  N_13
REMARK    3  A    between atoms: C_12  and  C_20
REMARK                            x       y       z     vdW  Elec       q    Type
REMARK                         _______ _______ _______ _____ _____    ______ ____
ROOT
ATOM      1  O   UNL     1       7.138   7.783  17.504  0.00  0.00    +0.000 OA
ATOM      2  C   UNL     1       6.891   6.687  17.022  0.00  0.00    +0.000 C 
ATOM      3  N   UNL     1       7.250   6.312  15.760  0.00  0.00    +0.000 N 
ATOM      4  C   UNL     1       6.585   5.186  15.445  0.00  0.00    +0.000 C 
ATOM      5  N   UNL     1       5.878   4.662  16.387  0.00  0.00    +0.000 NA
ATOM      6  C   UNL     1       6.041   5.540  17.603  0.00  0.00    +0.000 C 
ATOM      7  H   UNL     1       7.745   6.929  15.138  0.00  0.00    +0.000 HD
ENDROOT
BRANCH   6   8
ATOM      8  N   UNL     1       4.741   6.102  18.060  0.00  0.00    +0.000 N 
ATOM      9  C   UNL     1       3.686   5.177  18.032  0.00  0.00    +0.000 A 
ATOM     10  C   UNL     1       2.426   5.587  18.452  0.00  0.00    +0.000 A 
ATOM     11  C   UNL     1       1.367   4.680  18.429  0.00  0.00    +0.000 A 
ATOM     12  C   UNL     1       1.586   3.388  17.971  0.00  0.00    +0.000 A 
ATOM     13  C   UNL     1       2.868   3.057  17.581  0.00  0.00    +0.000 A 
ATOM     14  N   UNL     1       3.908   3.915  17.623  0.00  0.00    +0.000 NA
ATOM     15  H   UNL     1       4.481   6.905  17.499  0.00  0.00    +0.000 HD
ENDBRANCH   6   8
BRANCH   4  16
ATOM     16  C   UNL     1       6.628   4.638  14.078  0.00  0.00    +0.000 A 
ATOM     17  C   UNL     1       5.737   3.653  13.646  0.00  0.00    +0.000 A 
ATOM     18  C   UNL     1       5.834   3.161  12.341  0.00  0.00    +0.000 A 
ATOM     19  C   UNL     1       6.817   3.645  11.475  0.00  0.00    +0.000 A 
ATOM     20  C   UNL     1       7.699   4.634  11.902  0.00  0.00    +0.000 A 
ATOM     21  C   UNL     1       7.600   5.138  13.199  0.00  0.00    +0.000 A 
ENDBRANCH   4  16
BRANCH   6  22
ATOM     22  C   UNL     1       6.941   4.901  18.726  0.00  0.00    +0.000 C 
ATOM     23  F   UNL     1       6.319   3.863  19.357  0.00  0.00    +0.000 F 
ATOM     24  F   UNL     1       8.111   4.395  18.259  0.00  0.00    +0.000 F 
ATOM     25  F   UNL     1       7.251   5.778  19.716  0.00  0.00    +0.000 F 
ENDBRANCH   6  22
TORSDOF 3
ENDMDL
