MODEL 1
REMARK VINA RESULT:      -9.2      0.000      0.000
REMARK  Name = 
REMARK  4 active torsions:
REMARK  status: ('A' for Active; 'I' for Inactive)
REMARK    1  A    between atoms: C_1  and  N_2
REMARK    2  A    between atoms: C_6  and  C_7
REMARK    3  A    between atoms: C_6  and  C_20
REMARK    4  A    between atoms: C_11  and  C_12
REMARK                            x       y       z     vdW  Elec       q    Type
REMARK                         _______ _______ _______ _____ _____    ______ ____
ROOT
ATOM      1  C   UNL     1       0.723   2.427  19.541  0.00  0.00    +0.000 C 
ATOM      2  N   UNL     1       1.587   3.577  19.678  0.00  0.00    +0.000 N 
ATOM      3  C   UNL     1       2.253   4.034  20.763  0.00  0.00    +0.000 C 
ATOM      4  N   UNL     1       2.294   3.458  21.905  0.00  0.00    +0.000 NA
ATOM      5  N   UNL     1       2.922   5.183  20.491  0.00  0.00    +0.000 N 
ATOM      6  C   UNL     1       2.891   5.465  19.047  0.00  0.00    +0.000 C 
ATOM      7  C   UNL     1       1.913   4.347  18.575  0.00  0.00    +0.000 C 
ATOM      8  O   UNL     1       1.499   4.146  17.439  0.00  0.00    +0.000 OA
ATOM      9  H   UNL     1       1.742   2.603  21.919  0.00  0.00    +0.000 HD
ATOM     10  H   UNL     1       3.824   5.258  20.940  0.00  0.00    +0.000 HD
ENDROOT
BRANCH   6  11
ATOM     11  C   UNL     1       2.375   6.901  18.851  0.00  0.00    +0.000 A 
ATOM     12  C   UNL     1       2.738   7.688  17.748  0.00  0.00    +0.000 A 
ATOM     13  C   UNL     1       2.367   9.028  17.681  0.00  0.00    +0.000 A 
ATOM     14  C   UNL     1       1.625   9.604  18.711  0.00  0.00    +0.000 A 
ATOM     15  C   UNL     1       1.223   8.860  19.832  0.00  0.00    +0.000 A 
ATOM     16  C   UNL     1       1.587   7.500  19.865  0.00  0.00    +0.000 A 
BRANCH  15  17
ATOM     17  C   UNL     1       0.501   9.501  20.955  0.00  0.00    +0.000 A 
ATOM     18  C   UNL     1       0.501   8.955  22.252  0.00  0.00    +0.000 A 
ATOM     19  C   UNL     1      -0.178   9.578  23.307  0.00  0.00    +0.000 A 
ATOM     20  C   UNL     1      -0.881  10.759  23.085  0.00  0.00    +0.000 A 
ATOM     21  C   UNL     1      -0.895  11.317  21.812  0.00  0.00    +0.000 A 
ATOM     22 CL   UNL     1      -1.764  12.774  21.523  0.00  0.00    +0.000 Cl
ATOM     23  C   UNL     1      -0.208  10.704  20.763  0.00  0.00    +0.000 A 
ENDBRANCH  15  17
ENDBRANCH   6  11
BRANCH   6  24
ATOM     24  C   UNL     1       4.211   5.228  18.309  0.00  0.00    +0.000 A 
ATOM     25  N   UNL     1       4.309   4.951  17.019  0.00  0.00    +0.000 NA
ATOM     26  C   UNL     1       5.635   4.765  16.676  0.00  0.00    +0.000 A 
ATOM     27  C   UNL     1       6.540   4.875  17.708  0.00  0.00    +0.000 A 
ATOM     28  S   UNL     1       5.722   5.234  19.162  0.00  0.00    +0.000 S 
ENDBRANCH   6  24
TORSDOF 3
ENDMDL
MODEL 2
REMARK VINA RESULT:      -8.7      1.275      1.381
REMARK  Name = 
REMARK  4 active torsions:
REMARK  status: ('A' for Active; 'I' for Inactive)
REMARK    1  A    between atoms: C_1  and  N_2
REMARK    2  A    between atoms: C_6  and  C_7
REMARK    3  A    between atoms: C_6  and  C_20
REMARK    4  A    between atoms: C_11  and  C_12
REMARK                            x       y       z     vdW  Elec       q    Type
REMARK                         _______ _______ _______ _____ _____    ______ ____
ROOT
ATOM      1  C   UNL     1       2.476   1.968  18.447  0.00  0.00    +0.000 C 
ATOM      2  N   UNL     1       2.880   3.246  18.988  0.00  0.00    +0.000 N 
ATOM      3  C   UNL     1       2.969   3.651  20.275  0.00  0.00    +0.000 C 
ATOM      4  N   UNL     1       2.768   2.912  21.301  0.00  0.00    +0.000 NA
ATOM      5  N   UNL     1       3.341   4.953  20.365  0.00  0.00    +0.000 N 
ATOM      6  C   UNL     1       3.740   5.464  19.043  0.00  0.00    +0.000 C 
ATOM      7  C   UNL     1       3.342   4.248  18.153  0.00  0.00    +0.000 C 
ATOM      8  O   UNL     1       3.424   4.156  16.933  0.00  0.00    +0.000 OA
ATOM      9  H   UNL     1       2.508   1.964  21.041  0.00  0.00    +0.000 HD
ATOM     10  H   UNL     1       3.971   5.156  21.129  0.00  0.00    +0.000 HD
ENDROOT
BRANCH   6  11
ATOM     11  C   UNL     1       2.945   6.753  18.771  0.00  0.00    +0.000 A 
ATOM     12  C   UNL     1       3.056   7.466  17.567  0.00  0.00    +0.000 A 
ATOM     13  C   UNL     1       2.432   8.701  17.415  0.00  0.00    +0.000 A 
ATOM     14  C   UNL     1       1.687   9.245  18.459  0.00  0.00    +0.000 A 
ATOM     15  C   UNL     1       1.532   8.569  19.681  0.00  0.00    +0.000 A 
ATOM     16  C   UNL     1       2.149   7.309  19.802  0.00  0.00    +0.000 A 
BRANCH  15  17
ATOM     17  C   UNL     1       0.801   9.192  20.809  0.00  0.00    +0.000 A 
ATOM     18  C   UNL     1       0.957   8.747  22.136  0.00  0.00    +0.000 A 
ATOM     19  C   UNL     1       0.267   9.352  23.194  0.00  0.00    +0.000 A 
ATOM     20  C   UNL     1      -0.603  10.410  22.948  0.00  0.00    +0.000 A 
ATOM     21  C   UNL     1      -0.772  10.866  21.646  0.00  0.00    +0.000 A 
ATOM     22 CL   UNL     1      -1.848  12.171  21.327  0.00  0.00    +0.000 Cl
ATOM     23  C   UNL     1      -0.075  10.274  20.592  0.00  0.00    +0.000 A 
ENDBRANCH  15  17
ENDBRANCH   6  11
BRANCH   6  24
ATOM     24  C   UNL     1       5.244   5.670  18.851  0.00  0.00    +0.000 A 
ATOM     25  N   UNL     1       6.169   5.283  19.713  0.00  0.00    +0.000 NA
ATOM     26  C   UNL     1       7.423   5.646  19.255  0.00  0.00    +0.000 A 
ATOM     27  C   UNL     1       7.446   6.328  18.059  0.00  0.00    +0.000 A 
ATOM     28  S   UNL     1       5.857   6.521  17.469  0.00  0.00    +0.000 S 
ENDBRANCH   6  24
TORSDOF 3
ENDMDL
MODEL 3
REMARK VINA RESULT:      -8.4      3.999      7.872
REMARK  Name = 
REMARK  4 active torsions:
REMARK  status: ('A' for Active; 'I' for Inactive)
REMARK    1  A    between atoms: C_1  and  N_2
REMARK    2  A    between atoms: C_6  and  C_7
REMARK    3  A    between atoms: C_6  and  C_20
REMARK    4  A    between atoms: C_11  and  C_12
REMARK                            x       y       z     vdW  Elec       q    Type
REMARK                         _______ _______ _______ _____ _____    ______ ____
ROOT
ATOM      1  C   UNL     1       1.615   2.601  20.988  0.00  0.00    +0.000 C 
ATOM      2  N   UNL     1       2.105   3.308  19.827  0.00  0.00    +0.000 N 
ATOM      3  C   UNL     1       1.727   3.211  18.532  0.00  0.00    +0.000 C 
ATOM      4  N   UNL     1       0.768   2.486  18.092  0.00  0.00    +0.000 NA
ATOM      5  N   UNL     1       2.473   4.014  17.732  0.00  0.00    +0.000 N 
ATOM      6  C   UNL     1       3.319   4.903  18.545  0.00  0.00    +0.000 C 
ATOM      7  C   UNL     1       3.045   4.315  19.961  0.00  0.00    +0.000 C 
ATOM      8  O   UNL     1       3.542   4.666  21.026  0.00  0.00    +0.000 OA
ATOM      9  H   UNL     1       0.316   1.961  18.837  0.00  0.00    +0.000 HD
ATOM     10  H   UNL     1       1.956   4.454  16.983  0.00  0.00    +0.000 HD
ENDROOT
BRANCH   6  11
ATOM     11  C   UNL     1       4.771   4.758  18.055  0.00  0.00    +0.000 A 
ATOM     12  C   UNL     1       5.874   4.929  18.905  0.00  0.00    +0.000 A 
ATOM     13  C   UNL     1       7.169   4.932  18.395  0.00  0.00    +0.000 A 
ATOM     14  C   UNL     1       7.386   4.764  17.029  0.00  0.00    +0.000 A 
ATOM     15  C   UNL     1       6.320   4.576  16.133  0.00  0.00    +0.000 A 
ATOM     16  C   UNL     1       5.021   4.549  16.676  0.00  0.00    +0.000 A 
BRANCH  15  17
ATOM     17  C   UNL     1       6.558   4.474  14.675  0.00  0.00    +0.000 A 
ATOM     18  C   UNL     1       7.575   5.204  14.031  0.00  0.00    +0.000 A 
ATOM     19  C   UNL     1       7.796   5.089  12.653  0.00  0.00    +0.000 A 
ATOM     20  C   UNL     1       6.997   4.247  11.884  0.00  0.00    +0.000 A 
ATOM     21  C   UNL     1       5.987   3.516  12.499  0.00  0.00    +0.000 A 
ATOM     22 CL   UNL     1       4.989   2.475  11.560  0.00  0.00    +0.000 Cl
ATOM     23  C   UNL     1       5.774   3.619  13.874  0.00  0.00    +0.000 A 
ENDBRANCH  15  17
ENDBRANCH   6  11
BRANCH   6  24
ATOM     24  C   UNL     1       2.875   6.366  18.587  0.00  0.00    +0.000 A 
ATOM     25  N   UNL     1       2.030   6.867  19.473  0.00  0.00    +0.000 NA
ATOM     26  C   UNL     1       1.817   8.209  19.216  0.00  0.00    +0.000 A 
ATOM     27  C   UNL     1       2.480   8.720  18.123  0.00  0.00    +0.000 A 
ATOM     28  S   UNL     1       3.414   7.496  17.386  0.00  0.00    +0.000 S 
ENDBRANCH   6  24
TORSDOF 3
ENDMDL
MODEL 4
REMARK VINA RESULT:      -8.0      4.949      7.810
REMARK  Name = 
REMARK  4 active torsions:
REMARK  status: ('A' for Active; 'I' for Inactive)
REMARK    1  A    between atoms: C_1  and  N_2
REMARK    2  A    between atoms: C_6  and  C_7
REMARK    3  A    between atoms: C_6  and  C_20
REMARK    4  A    between atoms: C_11  and  C_12
REMARK                            x       y       z     vdW  Elec       q    Type
REMARK                         _______ _______ _______ _____ _____    ______ ____
ROOT
ATOM      1  C   UNL     1      -3.580  11.942  18.994  0.00  0.00    +0.000 C 
ATOM      2  N   UNL     1      -2.216  11.527  18.758  0.00  0.00    +0.000 N 
ATOM      3  C   UNL     1      -1.582  11.263  17.594  0.00  0.00    +0.000 C 
ATOM      4  N   UNL     1      -2.085  11.407  16.425  0.00  0.00    +0.000 NA
ATOM      5  N   UNL     1      -0.306  10.849  17.802  0.00  0.00    +0.000 N 
ATOM      6  C   UNL     1       0.063  11.019  19.216  0.00  0.00    +0.000 C 
ATOM      7  C   UNL     1      -1.317  11.437  19.807  0.00  0.00    +0.000 C 
ATOM      8  O   UNL     1      -1.590  11.666  20.980  0.00  0.00    +0.000 OA
ATOM      9  H   UNL     1      -3.047  11.735  16.465  0.00  0.00    +0.000 HD
ATOM     10  H   UNL     1       0.360  11.191  17.124  0.00  0.00    +0.000 HD
ENDROOT
BRANCH   6  11
ATOM     11  C   UNL     1       0.608   9.676  19.733  0.00  0.00    +0.000 A 
ATOM     12  C   UNL     1       0.477   9.275  21.071  0.00  0.00    +0.000 A 
ATOM     13  C   UNL     1       1.107   8.121  21.530  0.00  0.00    +0.000 A 
ATOM     14  C   UNL     1       1.878   7.349  20.662  0.00  0.00    +0.000 A 
ATOM     15  C   UNL     1       2.032   7.697  19.310  0.00  0.00    +0.000 A 
ATOM     16  C   UNL     1       1.363   8.852  18.862  0.00  0.00    +0.000 A 
BRANCH  15  17
ATOM     17  C   UNL     1       2.914   6.910  18.416  0.00  0.00    +0.000 A 
ATOM     18  C   UNL     1       3.807   7.525  17.519  0.00  0.00    +0.000 A 
ATOM     19  C   UNL     1       4.643   6.769  16.687  0.00  0.00    +0.000 A 
ATOM     20  C   UNL     1       4.596   5.378  16.727  0.00  0.00    +0.000 A 
ATOM     21  C   UNL     1       3.721   4.750  17.605  0.00  0.00    +0.000 A 
ATOM     22 CL   UNL     1       3.650   3.031  17.662  0.00  0.00    +0.000 Cl
ATOM     23  C   UNL     1       2.898   5.501  18.445  0.00  0.00    +0.000 A 
ENDBRANCH  15  17
ENDBRANCH   6  11
BRANCH   6  24
ATOM     24  C   UNL     1       1.026  12.174  19.504  0.00  0.00    +0.000 A 
ATOM     25  N   UNL     1       1.022  12.894  20.613  0.00  0.00    +0.000 NA
ATOM     26  C   UNL     1       1.995  13.874  20.543  0.00  0.00    +0.000 A 
ATOM     27  C   UNL     1       2.719  13.913  19.373  0.00  0.00    +0.000 A 
ATOM     28  S   UNL     1       2.185  12.682  18.318  0.00  0.00    +0.000 S 
ENDBRANCH   6  24
TORSDOF 3
ENDMDL
MODEL 5
REMARK VINA RESULT:      -7.9      1.553      1.928
REMARK  Name = 
REMARK  4 active torsions:
REMARK  status: ('A' for Active; 'I' for Inactive)
REMARK    1  A    between atoms: C_1  and  N_2
REMARK    2  A    between atoms: C_6  and  C_7
REMARK    3  A    between atoms: C_6  and  C_20
REMARK    4  A    between atoms: C_11  and  C_12
REMARK                            x       y       z     vdW  Elec       q    Type
REMARK                         _______ _______ _______ _____ _____    ______ ____
ROOT
ATOM      1  C   UNL     1       1.948   1.844  19.005  0.00  0.00    +0.000 C 
ATOM      2  N   UNL     1       2.559   3.110  19.341  0.00  0.00    +0.000 N 
ATOM      3  C   UNL     1       2.735   3.692  20.549  0.00  0.00    +0.000 C 
ATOM      4  N   UNL     1       2.438   3.165  21.677  0.00  0.00    +0.000 NA
ATOM      5  N   UNL     1       3.309   4.916  20.435  0.00  0.00    +0.000 N 
ATOM      6  C   UNL     1       3.759   5.144  19.052  0.00  0.00    +0.000 C 
ATOM      7  C   UNL     1       3.158   3.883  18.362  0.00  0.00    +0.000 C 
ATOM      8  O   UNL     1       3.202   3.589  17.172  0.00  0.00    +0.000 OA
ATOM      9  H   UNL     1       2.026   2.241  21.567  0.00  0.00    +0.000 HD
ATOM     10  H   UNL     1       3.977   5.134  21.161  0.00  0.00    +0.000 HD
ENDROOT
BRANCH   6  11
ATOM     11  C   UNL     1       3.173   6.484  18.574  0.00  0.00    +0.000 A 
ATOM     12  C   UNL     1       3.584   7.104  17.384  0.00  0.00    +0.000 A 
ATOM     13  C   UNL     1       3.137   8.382  17.060  0.00  0.00    +0.000 A 
ATOM     14  C   UNL     1       2.272   9.062  17.916  0.00  0.00    +0.000 A 
ATOM     15  C   UNL     1       1.818   8.484  19.113  0.00  0.00    +0.000 A 
ATOM     16  C   UNL     1       2.263   7.180  19.407  0.00  0.00    +0.000 A 
BRANCH  15  17
ATOM     17  C   UNL     1       0.960   9.245  20.051  0.00  0.00    +0.000 A 
ATOM     18  C   UNL     1       0.058  10.229  19.605  0.00  0.00    +0.000 A 
ATOM     19  C   UNL     1      -0.756  10.933  20.502  0.00  0.00    +0.000 A 
ATOM     20  C   UNL     1      -0.677  10.675  21.867  0.00  0.00    +0.000 A 
ATOM     21  C   UNL     1       0.206   9.708  22.330  0.00  0.00    +0.000 A 
ATOM     22 CL   UNL     1       0.316   9.382  24.016  0.00  0.00    +0.000 Cl
ATOM     23  C   UNL     1       1.008   8.995  21.437  0.00  0.00    +0.000 A 
ENDBRANCH  15  17
ENDBRANCH   6  11
BRANCH   6  24
ATOM     24  C   UNL     1       5.273   5.075  18.840  0.00  0.00    +0.000 A 
ATOM     25  N   UNL     1       6.173   5.434  19.740  0.00  0.00    +0.000 NA
ATOM     26  C   UNL     1       7.446   5.278  19.224  0.00  0.00    +0.000 A 
ATOM     27  C   UNL     1       7.512   4.825  17.926  0.00  0.00    +0.000 A 
ATOM     28  S   UNL     1       5.937   4.571  17.318  0.00  0.00    +0.000 S 
ENDBRANCH   6  24
TORSDOF 3
ENDMDL
MODEL 6
REMARK VINA RESULT:      -7.9      1.065      1.417
REMARK  Name = 
REMARK  4 active torsions:
REMARK  status: ('A' for Active; 'I' for Inactive)
REMARK    1  A    between atoms: C_1  and  N_2
REMARK    2  A    between atoms: C_6  and  C_7
REMARK    3  A    between atoms: C_6  and  C_20
REMARK    4  A    between atoms: C_11  and  C_12
REMARK                            x       y       z     vdW  Elec       q    Type
REMARK                         _______ _______ _______ _____ _____    ______ ____
ROOT
ATOM      1  C   UNL     1       0.735   2.360  19.488  0.00  0.00    +0.000 C 
ATOM      2  N   UNL     1       1.636   3.484  19.606  0.00  0.00    +0.000 N 
ATOM      3  C   UNL     1       2.281   3.964  20.693  0.00  0.00    +0.000 C 
ATOM      4  N   UNL     1       2.260   3.440  21.861  0.00  0.00    +0.000 NA
ATOM      5  N   UNL     1       3.001   5.075  20.397  0.00  0.00    +0.000 N 
ATOM      6  C   UNL     1       3.031   5.293  18.941  0.00  0.00    +0.000 C 
ATOM      7  C   UNL     1       2.029   4.190  18.484  0.00  0.00    +0.000 C 
ATOM      8  O   UNL     1       1.648   3.954  17.342  0.00  0.00    +0.000 OA
ATOM      9  H   UNL     1       1.676   2.607  21.892  0.00  0.00    +0.000 HD
ATOM     10  H   UNL     1       3.889   5.138  20.875  0.00  0.00    +0.000 HD
ENDROOT
BRANCH   6  11
ATOM     11  C   UNL     1       2.576   6.736  18.664  0.00  0.00    +0.000 A 
ATOM     12  C   UNL     1       3.014   7.463  17.547  0.00  0.00    +0.000 A 
ATOM     13  C   UNL     1       2.694   8.810  17.408  0.00  0.00    +0.000 A 
ATOM     14  C   UNL     1       1.932   9.456  18.380  0.00  0.00    +0.000 A 
ATOM     15  C   UNL     1       1.456   8.774  19.512  0.00  0.00    +0.000 A 
ATOM     16  C   UNL     1       1.769   7.405  19.617  0.00  0.00    +0.000 A 
BRANCH  15  17
ATOM     17  C   UNL     1       0.711   9.488  20.575  0.00  0.00    +0.000 A 
ATOM     18  C   UNL     1      -0.158  10.557  20.289  0.00  0.00    +0.000 A 
ATOM     19  C   UNL     1      -0.864  11.216  21.303  0.00  0.00    +0.000 A 
ATOM     20  C   UNL     1      -0.709  10.826  22.630  0.00  0.00    +0.000 A 
ATOM     21  C   UNL     1       0.144   9.773  22.937  0.00  0.00    +0.000 A 
ATOM     22 CL   UNL     1       0.349   9.283  24.574  0.00  0.00    +0.000 Cl
ATOM     23  C   UNL     1       0.839   9.106  21.926  0.00  0.00    +0.000 A 
ENDBRANCH  15  17
ENDBRANCH   6  11
BRANCH   6  24
ATOM     24  C   UNL     1       4.366   4.976  18.263  0.00  0.00    +0.000 A 
ATOM     25  N   UNL     1       4.487   4.436  17.062  0.00  0.00    +0.000 NA
ATOM     26  C   UNL     1       5.823   4.253  16.758  0.00  0.00    +0.000 A 
ATOM     27  C   UNL     1       6.714   4.630  17.738  0.00  0.00    +0.000 A 
ATOM     28  S   UNL     1       5.869   5.246  19.087  0.00  0.00    +0.000 S 
ENDBRANCH   6  24
TORSDOF 3
ENDMDL
MODEL 7
REMARK VINA RESULT:      -7.9      4.737      7.394
REMARK  Name = 
REMARK  4 active torsions:
REMARK  status: ('A' for Active; 'I' for Inactive)
REMARK    1  A    between atoms: C_1  and  N_2
REMARK    2  A    between atoms: C_6  and  C_7
REMARK    3  A    between atoms: C_6  and  C_20
REMARK    4  A    between atoms: C_11  and  C_12
REMARK                            x       y       z     vdW  Elec       q    Type
REMARK                         _______ _______ _______ _____ _____    ______ ____
ROOT
ATOM      1  C   UNL     1       0.710  13.505  21.620  0.00  0.00    +0.000 C 
ATOM      2  N   UNL     1       0.405  12.187  21.111  0.00  0.00    +0.000 N 
ATOM      3  C   UNL     1      -0.125  11.117  21.746  0.00  0.00    +0.000 C 
ATOM      4  N   UNL     1      -0.537  11.101  22.957  0.00  0.00    +0.000 NA
ATOM      5  N   UNL     1      -0.207  10.040  20.925  0.00  0.00    +0.000 N 
ATOM      6  C   UNL     1       0.106  10.426  19.539  0.00  0.00    +0.000 C 
ATOM      7  C   UNL     1       0.565  11.898  19.768  0.00  0.00    +0.000 C 
ATOM      8  O   UNL     1       0.984  12.689  18.930  0.00  0.00    +0.000 OA
ATOM      9  H   UNL     1      -0.405  12.000  23.415  0.00  0.00    +0.000 HD
ATOM     10  H   UNL     1      -1.038   9.479  21.053  0.00  0.00    +0.000 HD
ENDROOT
BRANCH   6  11
ATOM     11  C   UNL     1       1.201   9.481  19.015  0.00  0.00    +0.000 A 
ATOM     12  C   UNL     1       2.070   9.839  17.973  0.00  0.00    +0.000 A 
ATOM     13  C   UNL     1       2.950   8.906  17.432  0.00  0.00    +0.000 A 
ATOM     14  C   UNL     1       2.979   7.601  17.922  0.00  0.00    +0.000 A 
ATOM     15  C   UNL     1       2.142   7.192  18.973  0.00  0.00    +0.000 A 
ATOM     16  C   UNL     1       1.279   8.161  19.522  0.00  0.00    +0.000 A 
BRANCH  15  17
ATOM     17  C   UNL     1       2.129   5.784  19.434  0.00  0.00    +0.000 A 
ATOM     18  C   UNL     1       1.913   5.443  20.783  0.00  0.00    +0.000 A 
ATOM     19  C   UNL     1       1.893   4.107  21.203  0.00  0.00    +0.000 A 
ATOM     20  C   UNL     1       2.098   3.082  20.284  0.00  0.00    +0.000 A 
ATOM     21  C   UNL     1       2.313   3.395  18.947  0.00  0.00    +0.000 A 
ATOM     22 CL   UNL     1       2.573   2.138  17.801  0.00  0.00    +0.000 Cl
ATOM     23  C   UNL     1       2.320   4.726  18.524  0.00  0.00    +0.000 A 
ENDBRANCH  15  17
ENDBRANCH   6  11
BRANCH   6  24
ATOM     24  C   UNL     1      -1.095  10.488  18.593  0.00  0.00    +0.000 A 
ATOM     25  N   UNL     1      -1.234   9.741  17.510  0.00  0.00    +0.000 NA
ATOM     26  C   UNL     1      -2.413  10.064  16.862  0.00  0.00    +0.000 A 
ATOM     27  C   UNL     1      -3.154  11.070  17.439  0.00  0.00    +0.000 A 
ATOM     28  S   UNL     1      -2.370  11.637  18.846  0.00  0.00    +0.000 S 
ENDBRANCH   6  24
TORSDOF 3
ENDMDL
MODEL 8
REMARK VINA RESULT:      -7.9      5.168      7.921
REMARK  Name = 
REMARK  4 active torsions:
REMARK  status: ('A' for Active; 'I' for Inactive)
REMARK    1  A    between atoms: C_1  and  N_2
REMARK    2  A    between atoms: C_6  and  C_7
REMARK    3  A    between atoms: C_6  and  C_20
REMARK    4  A    between atoms: C_11  and  C_12
REMARK                            x       y       z     vdW  Elec       q    Type
REMARK                         _______ _______ _______ _____ _____    ______ ____
ROOT
ATOM      1  C   UNL     1      -4.093  11.976  18.503  0.00  0.00    +0.000 C 
ATOM      2  N   UNL     1      -2.690  11.634  18.457  0.00  0.00    +0.000 N 
ATOM      3  C   UNL     1      -1.931  11.235  17.411  0.00  0.00    +0.000 C 
ATOM      4  N   UNL     1      -2.327  11.149  16.197  0.00  0.00    +0.000 NA
ATOM      5  N   UNL     1      -0.659  10.959  17.793  0.00  0.00    +0.000 N 
ATOM      6  C   UNL     1      -0.438  11.384  19.185  0.00  0.00    +0.000 C 
ATOM      7  C   UNL     1      -1.893  11.784  19.578  0.00  0.00    +0.000 C 
ATOM      8  O   UNL     1      -2.291  12.178  20.668  0.00  0.00    +0.000 OA
ATOM      9  H   UNL     1      -3.307  11.405  16.098  0.00  0.00    +0.000 HD
ATOM     10  H   UNL     1       0.048  11.237  17.126  0.00  0.00    +0.000 HD
ENDROOT
BRANCH   6  11
ATOM     11  C   UNL     1       0.136  10.187  19.964  0.00  0.00    +0.000 A 
ATOM     12  C   UNL     1       0.036  10.079  21.359  0.00  0.00    +0.000 A 
ATOM     13  C   UNL     1       0.692   9.057  22.039  0.00  0.00    +0.000 A 
ATOM     14  C   UNL     1       1.458   8.126  21.340  0.00  0.00    +0.000 A 
ATOM     15  C   UNL     1       1.582   8.179  19.942  0.00  0.00    +0.000 A 
ATOM     16  C   UNL     1       0.887   9.205  19.273  0.00  0.00    +0.000 A 
BRANCH  15  17
ATOM     17  C   UNL     1       2.459   7.229  19.217  0.00  0.00    +0.000 A 
ATOM     18  C   UNL     1       3.140   7.592  18.040  0.00  0.00    +0.000 A 
ATOM     19  C   UNL     1       3.975   6.687  17.372  0.00  0.00    +0.000 A 
ATOM     20  C   UNL     1       4.138   5.394  17.861  0.00  0.00    +0.000 A 
ATOM     21  C   UNL     1       3.475   5.014  19.021  0.00  0.00    +0.000 A 
ATOM     22 CL   UNL     1       3.664   3.417  19.634  0.00  0.00    +0.000 Cl
ATOM     23  C   UNL     1       2.654   5.919  19.697  0.00  0.00    +0.000 A 
ENDBRANCH  15  17
ENDBRANCH   6  11
BRANCH   6  24
ATOM     24  C   UNL     1       0.419  12.640  19.355  0.00  0.00    +0.000 A 
ATOM     25  N   UNL     1       1.644  12.649  19.853  0.00  0.00    +0.000 NA
ATOM     26  C   UNL     1       2.126  13.944  19.899  0.00  0.00    +0.000 A 
ATOM     27  C   UNL     1       1.259  14.919  19.458  0.00  0.00    +0.000 A 
ATOM     28  S   UNL     1      -0.209  14.207  18.957  0.00  0.00    +0.000 S 
ENDBRANCH   6  24
TORSDOF 3
ENDMDL
MODEL 9
REMARK VINA RESULT:      -7.8      5.149      7.818
REMARK  Name = 
REMARK  4 active torsions:
REMARK  status: ('A' for Active; 'I' for Inactive)
REMARK    1  A    between atoms: C_1  and  N_2
REMARK    2  A    between atoms: C_6  and  C_7
REMARK    3  A    between atoms: C_6  and  C_20
REMARK    4  A    between atoms: C_11  and  C_12
REMARK                            x       y       z     vdW  Elec       q    Type
REMARK                         _______ _______ _______ _____ _____    ______ ____
ROOT
ATOM      1  C   UNL     1      -4.343  11.601  17.824  0.00  0.00    +0.000 C 
ATOM      2  N   UNL     1      -2.923  11.382  17.979  0.00  0.00    +0.000 N 
ATOM      3  C   UNL     1      -2.028  10.867  17.106  0.00  0.00    +0.000 C 
ATOM      4  N   UNL     1      -2.280  10.526  15.898  0.00  0.00    +0.000 NA
ATOM      5  N   UNL     1      -0.790  10.779  17.654  0.00  0.00    +0.000 N 
ATOM      6  C   UNL     1      -0.755  11.469  18.954  0.00  0.00    +0.000 C 
ATOM      7  C   UNL     1      -2.267  11.804  19.122  0.00  0.00    +0.000 C 
ATOM      8  O   UNL     1      -2.810  12.355  20.073  0.00  0.00    +0.000 OA
ATOM      9  H   UNL     1      -3.258  10.672  15.660  0.00  0.00    +0.000 HD
ATOM     10  H   UNL     1      -0.034  10.992  17.018  0.00  0.00    +0.000 HD
ENDROOT
BRANCH   6  11
ATOM     11  C   UNL     1      -0.189  10.491  19.999  0.00  0.00    +0.000 A 
ATOM     12  C   UNL     1      -0.184  10.777  21.373  0.00  0.00    +0.000 A 
ATOM     13  C   UNL     1       0.464   9.932  22.270  0.00  0.00    +0.000 A 
ATOM     14  C   UNL     1       1.118   8.789  21.812  0.00  0.00    +0.000 A 
ATOM     15  C   UNL     1       1.133   8.448  20.449  0.00  0.00    +0.000 A 
ATOM     16  C   UNL     1       0.447   9.303  19.565  0.00  0.00    +0.000 A 
BRANCH  15  17
ATOM     17  C   UNL     1       1.894   7.272  19.966  0.00  0.00    +0.000 A 
ATOM     18  C   UNL     1       2.688   7.323  18.805  0.00  0.00    +0.000 A 
ATOM     19  C   UNL     1       3.411   6.206  18.366  0.00  0.00    +0.000 A 
ATOM     20  C   UNL     1       3.346   5.009  19.074  0.00  0.00    +0.000 A 
ATOM     21  C   UNL     1       2.568   4.936  20.223  0.00  0.00    +0.000 A 
ATOM     22 CL   UNL     1       2.476   3.461  21.105  0.00  0.00    +0.000 Cl
ATOM     23  C   UNL     1       1.859   6.052  20.670  0.00  0.00    +0.000 A 
ENDBRANCH  15  17
ENDBRANCH   6  11
BRANCH   6  24
ATOM     24  C   UNL     1      -0.010  12.806  18.962  0.00  0.00    +0.000 A 
ATOM     25  N   UNL     1      -0.597  13.991  18.958  0.00  0.00    +0.000 NA
ATOM     26  C   UNL     1       0.357  14.991  18.937  0.00  0.00    +0.000 A 
ATOM     27  C   UNL     1       1.666  14.566  18.900  0.00  0.00    +0.000 A 
ATOM     28  S   UNL     1       1.723  12.860  18.903  0.00  0.00    +0.000 S 
ENDBRANCH   6  24
TORSDOF 3
ENDMDL
