MODEL 1
REMARK VINA RESULT:      -8.1      0.000      0.000
REMARK  Name = 
REMARK  4 active torsions:
REMARK  status: ('A' for Active; 'I' for Inactive)
REMARK    1  A    between atoms: C_2  and  C_3
REMARK    2  A    between atoms: C_10  and  C_12
REMARK    3  A    between atoms: C_12  and  N_13
REMARK    4  A    between atoms: C_14  and  C_16
REMARK                            x       y       z     vdW  Elec       q    Type
REMARK                         _______ _______ _______ _____ _____    ______ ____
ROOT
ATOM      1  N   UNL     1       1.549   8.433  19.543  0.00  0.00    +0.000 N 
ATOM      2  C   UNL     1       1.212   9.445  18.646  0.00  0.00    +0.000 C 
ATOM      3  O   UNL     1       1.777   9.535  17.558  0.00  0.00    +0.000 OA
ATOM      4  H   UNL     1       1.001   8.281  20.383  0.00  0.00    +0.000 HD
ENDROOT
BRANCH   2   5
ATOM      5  C   UNL     1       0.139  10.415  19.061  0.00  0.00    +0.000 A 
ATOM      6  C   UNL     1       0.421  11.274  20.140  0.00  0.00    +0.000 A 
ATOM      7  C   UNL     1      -0.517  12.208  20.573  0.00  0.00    +0.000 A 
ATOM      8  C   UNL     1      -1.744  12.311  19.929  0.00  0.00    +0.000 A 
ATOM      9  C   UNL     1      -2.055  11.496  18.833  0.00  0.00    +0.000 A 
ATOM     10  C   UNL     1      -3.301  11.655  18.200  0.00  0.00    +0.000 A 
ATOM     11  C   UNL     1      -3.654  10.882  17.099  0.00  0.00    +0.000 A 
ATOM     12  C   UNL     1      -2.762   9.935  16.620  0.00  0.00    +0.000 A 
ATOM     13  C   UNL     1      -1.521   9.757  17.248  0.00  0.00    +0.000 A 
ATOM     14  C   UNL     1      -1.116  10.530  18.369  0.00  0.00    +0.000 A 
ENDBRANCH   2   5
BRANCH   1  15
ATOM     15  C   UNL     1       2.561   7.437  19.213  0.00  0.00    +0.000 C 
BRANCH  15  23
ATOM     16  C   UNL     1       2.785   3.498  19.385  0.00  0.00    +0.000 C 
ATOM     17  C   UNL     1       4.079   2.879  18.857  0.00  0.00    +0.000 C 
ATOM     18  C   UNL     1       4.617   3.870  17.834  0.00  0.00    +0.000 C 
ATOM     19  F   UNL     1       5.899   4.187  18.129  0.00  0.00    +0.000 F 
ATOM     20  F   UNL     1       4.608   3.334  16.595  0.00  0.00    +0.000 F 
ATOM     21  C   UNL     1       3.744   5.109  17.891  0.00  0.00    +0.000 C 
ATOM     22  N   UNL     1       2.954   4.955  19.099  0.00  0.00    +0.000 N 
ATOM     23  C   UNL     1       2.270   5.997  19.722  0.00  0.00    +0.000 C 
ATOM     24  O   UNL     1       1.457   5.800  20.625  0.00  0.00    +0.000 OA
BRANCH  16  26
ATOM     25  N   UNL     1       2.426   2.953  22.089  0.00  0.00    +0.000 NA
ATOM     26  C   UNL     1       2.588   3.200  20.863  0.00  0.00    +0.000 C 
ENDBRANCH  16  26
ENDBRANCH  15  23
ENDBRANCH   1  15
TORSDOF 4
ENDMDL
MODEL 2
REMARK VINA RESULT:      -7.9      2.774      4.269
REMARK  Name = 
REMARK  4 active torsions:
REMARK  status: ('A' for Active; 'I' for Inactive)
REMARK    1  A    between atoms: C_2  and  C_3
REMARK    2  A    between atoms: C_10  and  C_12
REMARK    3  A    between atoms: C_12  and  N_13
REMARK    4  A    between atoms: C_14  and  C_16
REMARK                            x       y       z     vdW  Elec       q    Type
REMARK                         _______ _______ _______ _____ _____    ______ ____
ROOT
ATOM      1  N   UNL     1       2.595   5.816  18.444  0.00  0.00    +0.000 N 
ATOM      2  C   UNL     1       2.332   6.598  19.568  0.00  0.00    +0.000 C 
ATOM      3  O   UNL     1       2.471   6.139  20.700  0.00  0.00    +0.000 OA
ATOM      4  H   UNL     1       2.601   6.228  17.517  0.00  0.00    +0.000 HD
ENDROOT
BRANCH   2   5
ATOM      5  C   UNL     1       1.872   8.012  19.340  0.00  0.00    +0.000 A 
ATOM      6  C   UNL     1       2.144   8.592  18.087  0.00  0.00    +0.000 A 
ATOM      7  C   UNL     1       1.738   9.891  17.797  0.00  0.00    +0.000 A 
ATOM      8  C   UNL     1       1.039  10.628  18.746  0.00  0.00    +0.000 A 
ATOM      9  C   UNL     1       0.720  10.082  19.995  0.00  0.00    +0.000 A 
ATOM     10  C   UNL     1      -0.009  10.859  20.913  0.00  0.00    +0.000 A 
ATOM     11  C   UNL     1      -0.364  10.359  22.160  0.00  0.00    +0.000 A 
ATOM     12  C   UNL     1       0.012   9.070  22.508  0.00  0.00    +0.000 A 
ATOM     13  C   UNL     1       0.749   8.287  21.608  0.00  0.00    +0.000 A 
ATOM     14  C   UNL     1       1.126   8.754  20.320  0.00  0.00    +0.000 A 
ENDBRANCH   2   5
BRANCH   1  15
ATOM     15  C   UNL     1       3.066   4.443  18.573  0.00  0.00    +0.000 C 
BRANCH  15  23
ATOM     16  C   UNL     1       6.714   4.240  17.073  0.00  0.00    +0.000 C 
ATOM     17  C   UNL     1       6.950   5.027  15.784  0.00  0.00    +0.000 C 
ATOM     18  C   UNL     1       5.591   5.114  15.105  0.00  0.00    +0.000 C 
ATOM     19  F   UNL     1       5.298   6.405  14.825  0.00  0.00    +0.000 F 
ATOM     20  F   UNL     1       5.593   4.437  13.937  0.00  0.00    +0.000 F 
ATOM     21  C   UNL     1       4.563   4.538  16.059  0.00  0.00    +0.000 C 
ATOM     22  N   UNL     1       5.254   4.425  17.330  0.00  0.00    +0.000 N 
ATOM     23  C   UNL     1       4.611   4.264  18.556  0.00  0.00    +0.000 C 
ATOM     24  O   UNL     1       5.223   3.977  19.585  0.00  0.00    +0.000 OA
BRANCH  16  26
ATOM     25  N   UNL     1       8.313   5.180  19.146  0.00  0.00    +0.000 NA
ATOM     26  C   UNL     1       7.588   4.754  18.207  0.00  0.00    +0.000 C 
ENDBRANCH  16  26
ENDBRANCH  15  23
ENDBRANCH   1  15
TORSDOF 4
ENDMDL
MODEL 3
REMARK VINA RESULT:      -7.7      3.918      8.528
REMARK  Name = 
REMARK  4 active torsions:
REMARK  status: ('A' for Active; 'I' for Inactive)
REMARK    1  A    between atoms: C_2  and  C_3
REMARK    2  A    between atoms: C_10  and  C_12
REMARK    3  A    between atoms: C_12  and  N_13
REMARK    4  A    between atoms: C_14  and  C_16
REMARK                            x       y       z     vdW  Elec       q    Type
REMARK                         _______ _______ _______ _____ _____    ______ ____
ROOT
ATOM      1  N   UNL     1       2.210   8.439  17.700  0.00  0.00    +0.000 N 
ATOM      2  C   UNL     1       2.410   7.413  18.622  0.00  0.00    +0.000 C 
ATOM      3  O   UNL     1       2.305   7.623  19.829  0.00  0.00    +0.000 OA
ATOM      4  H   UNL     1       2.174   8.242  16.705  0.00  0.00    +0.000 HD
ENDROOT
BRANCH   2   5
ATOM      5  C   UNL     1       2.760   6.052  18.084  0.00  0.00    +0.000 A 
ATOM      6  C   UNL     1       1.764   5.058  18.129  0.00  0.00    +0.000 A 
ATOM      7  C   UNL     1       2.008   3.779  17.638  0.00  0.00    +0.000 A 
ATOM      8  C   UNL     1       3.243   3.474  17.079  0.00  0.00    +0.000 A 
ATOM      9  C   UNL     1       4.253   4.439  16.986  0.00  0.00    +0.000 A 
ATOM     10  C   UNL     1       5.478   4.088  16.390  0.00  0.00    +0.000 A 
ATOM     11  C   UNL     1       6.508   5.013  16.259  0.00  0.00    +0.000 A 
ATOM     12  C   UNL     1       6.325   6.305  16.730  0.00  0.00    +0.000 A 
ATOM     13  C   UNL     1       5.114   6.666  17.336  0.00  0.00    +0.000 A 
ATOM     14  C   UNL     1       4.032   5.757  17.483  0.00  0.00    +0.000 A 
ENDBRANCH   2   5
BRANCH   1  15
ATOM     15  C   UNL     1       1.847   9.783  18.132  0.00  0.00    +0.000 C 
BRANCH  15  23
ATOM     16  C   UNL     1      -1.500  11.325  19.553  0.00  0.00    +0.000 C 
ATOM     17  C   UNL     1      -1.366  12.674  20.260  0.00  0.00    +0.000 C 
ATOM     18  C   UNL     1       0.061  12.718  20.788  0.00  0.00    +0.000 C 
ATOM     19  F   UNL     1       0.675  13.847  20.365  0.00  0.00    +0.000 F 
ATOM     20  F   UNL     1       0.074  12.731  22.138  0.00  0.00    +0.000 F 
ATOM     21  C   UNL     1       0.786  11.497  20.255  0.00  0.00    +0.000 C 
ATOM     22  N   UNL     1      -0.087  10.963  19.226  0.00  0.00    +0.000 N 
ATOM     23  C   UNL     1       0.321  10.055  18.250  0.00  0.00    +0.000 C 
ATOM     24  O   UNL     1      -0.481   9.475  17.519  0.00  0.00    +0.000 OA
BRANCH  16  26
ATOM     25  N   UNL     1      -3.124  11.511  17.303  0.00  0.00    +0.000 NA
ATOM     26  C   UNL     1      -2.388  11.427  18.324  0.00  0.00    +0.000 C 
ENDBRANCH  16  26
ENDBRANCH  15  23
ENDBRANCH   1  15
TORSDOF 4
ENDMDL
MODEL 4
REMARK VINA RESULT:      -7.5      2.358      3.385
REMARK  Name = 
REMARK  4 active torsions:
REMARK  status: ('A' for Active; 'I' for Inactive)
REMARK    1  A    between atoms: C_2  and  C_3
REMARK    2  A    between atoms: C_10  and  C_12
REMARK    3  A    between atoms: C_12  and  N_13
REMARK    4  A    between atoms: C_14  and  C_16
REMARK                            x       y       z     vdW  Elec       q    Type
REMARK                         _______ _______ _______ _____ _____    ______ ____
ROOT
ATOM      1  N   UNL     1       2.194   6.371  19.213  0.00  0.00    +0.000 N 
ATOM      2  C   UNL     1       2.180   7.755  19.048  0.00  0.00    +0.000 C 
ATOM      3  O   UNL     1       2.790   8.284  18.121  0.00  0.00    +0.000 OA
ATOM      4  H   UNL     1       1.594   5.924  19.898  0.00  0.00    +0.000 HD
ENDROOT
BRANCH   2   5
ATOM      5  C   UNL     1       1.398   8.567  20.045  0.00  0.00    +0.000 A 
ATOM      6  C   UNL     1       1.673   8.362  21.410  0.00  0.00    +0.000 A 
ATOM      7  C   UNL     1       1.000   9.085  22.391  0.00  0.00    +0.000 A 
ATOM      8  C   UNL     1       0.053  10.036  22.027  0.00  0.00    +0.000 A 
ATOM      9  C   UNL     1      -0.231  10.293  20.680  0.00  0.00    +0.000 A 
ATOM     10  C   UNL     1      -1.180  11.281  20.362  0.00  0.00    +0.000 A 
ATOM     11  C   UNL     1      -1.488  11.586  19.040  0.00  0.00    +0.000 A 
ATOM     12  C   UNL     1      -0.851  10.899  18.018  0.00  0.00    +0.000 A 
ATOM     13  C   UNL     1       0.089   9.904  18.320  0.00  0.00    +0.000 A 
ATOM     14  C   UNL     1       0.441   9.566  19.654  0.00  0.00    +0.000 A 
ENDBRANCH   2   5
BRANCH   1  15
ATOM     15  C   UNL     1       2.907   5.507  18.281  0.00  0.00    +0.000 C 
BRANCH  15  23
ATOM     16  C   UNL     1       6.677   4.513  17.648  0.00  0.00    +0.000 C 
ATOM     17  C   UNL     1       7.163   4.626  16.203  0.00  0.00    +0.000 C 
ATOM     18  C   UNL     1       5.922   4.449  15.340  0.00  0.00    +0.000 C 
ATOM     19  F   UNL     1       5.808   5.486  14.478  0.00  0.00    +0.000 F 
ATOM     20  F   UNL     1       6.004   3.319  14.606  0.00  0.00    +0.000 F 
ATOM     21  C   UNL     1       4.722   4.404  16.266  0.00  0.00    +0.000 C 
ATOM     22  N   UNL     1       5.224   4.849  17.553  0.00  0.00    +0.000 N 
ATOM     23  C   UNL     1       4.412   5.282  18.600  0.00  0.00    +0.000 C 
ATOM     24  O   UNL     1       4.850   5.466  19.735  0.00  0.00    +0.000 OA
BRANCH  16  26
ATOM     25  N   UNL     1       8.081   6.225  19.332  0.00  0.00    +0.000 NA
ATOM     26  C   UNL     1       7.445   5.449  18.568  0.00  0.00    +0.000 C 
ENDBRANCH  16  26
ENDBRANCH  15  23
ENDBRANCH   1  15
TORSDOF 4
ENDMDL
MODEL 5
REMARK VINA RESULT:      -7.5      3.957      8.489
REMARK  Name = 
REMARK  4 active torsions:
REMARK  status: ('A' for Active; 'I' for Inactive)
REMARK    1  A    between atoms: C_2  and  C_3
REMARK    2  A    between atoms: C_10  and  C_12
REMARK    3  A    between atoms: C_12  and  N_13
REMARK    4  A    between atoms: C_14  and  C_16
REMARK                            x       y       z     vdW  Elec       q    Type
REMARK                         _______ _______ _______ _____ _____    ______ ____
ROOT
ATOM      1  N   UNL     1       1.916   8.507  18.028  0.00  0.00    +0.000 N 
ATOM      2  C   UNL     1       2.375   7.450  18.812  0.00  0.00    +0.000 C 
ATOM      3  O   UNL     1       2.243   7.468  20.034  0.00  0.00    +0.000 OA
ATOM      4  H   UNL     1       1.912   8.439  17.016  0.00  0.00    +0.000 HD
ENDROOT
BRANCH   2   5
ATOM      5  C   UNL     1       3.036   6.297  18.106  0.00  0.00    +0.000 A 
ATOM      6  C   UNL     1       4.167   6.578  17.318  0.00  0.00    +0.000 A 
ATOM      7  C   UNL     1       4.841   5.561  16.646  0.00  0.00    +0.000 A 
ATOM      8  C   UNL     1       4.407   4.246  16.761  0.00  0.00    +0.000 A 
ATOM      9  C   UNL     1       3.303   3.916  17.558  0.00  0.00    +0.000 A 
ATOM     10  C   UNL     1       2.917   2.568  17.662  0.00  0.00    +0.000 A 
ATOM     11  C   UNL     1       1.839   2.185  18.452  0.00  0.00    +0.000 A 
ATOM     12  C   UNL     1       1.128   3.152  19.146  0.00  0.00    +0.000 A 
ATOM     13  C   UNL     1       1.494   4.502  19.043  0.00  0.00    +0.000 A 
ATOM     14  C   UNL     1       2.593   4.937  18.256  0.00  0.00    +0.000 A 
ENDBRANCH   2   5
BRANCH   1  15
ATOM     15  C   UNL     1       1.245   9.654  18.627  0.00  0.00    +0.000 C 
BRANCH  15  23
ATOM     16  C   UNL     1      -2.456  11.031  18.720  0.00  0.00    +0.000 C 
ATOM     17  C   UNL     1      -2.665  12.331  19.498  0.00  0.00    +0.000 C 
ATOM     18  C   UNL     1      -1.557  12.365  20.540  0.00  0.00    +0.000 C 
ATOM     19  F   UNL     1      -0.878  13.532  20.453  0.00  0.00    +0.000 F 
ATOM     20  F   UNL     1      -2.067  12.285  21.787  0.00  0.00    +0.000 F 
ATOM     21  C   UNL     1      -0.629  11.197  20.263  0.00  0.00    +0.000 C 
ATOM     22  N   UNL     1      -1.012  10.719  18.947  0.00  0.00    +0.000 N 
ATOM     23  C   UNL     1      -0.219   9.889  18.158  0.00  0.00    +0.000 C 
ATOM     24  O   UNL     1      -0.650   9.345  17.141  0.00  0.00    +0.000 OA
BRANCH  16  26
ATOM     25  N   UNL     1      -3.093  11.342  16.030  0.00  0.00    +0.000 NA
ATOM     26  C   UNL     1      -2.804  11.201  17.249  0.00  0.00    +0.000 C 
ENDBRANCH  16  26
ENDBRANCH  15  23
ENDBRANCH   1  15
TORSDOF 4
ENDMDL
MODEL 6
REMARK VINA RESULT:      -7.5      0.622      2.287
REMARK  Name = 
REMARK  4 active torsions:
REMARK  status: ('A' for Active; 'I' for Inactive)
REMARK    1  A    between atoms: C_2  and  C_3
REMARK    2  A    between atoms: C_10  and  C_12
REMARK    3  A    between atoms: C_12  and  N_13
REMARK    4  A    between atoms: C_14  and  C_16
REMARK                            x       y       z     vdW  Elec       q    Type
REMARK                         _______ _______ _______ _____ _____    ______ ____
ROOT
ATOM      1  N   UNL     1       1.356   8.366  19.374  0.00  0.00    +0.000 N 
ATOM      2  C   UNL     1       1.180   9.311  18.365  0.00  0.00    +0.000 C 
ATOM      3  O   UNL     1       2.018   9.445  17.476  0.00  0.00    +0.000 OA
ATOM      4  H   UNL     1       0.612   8.168  20.035  0.00  0.00    +0.000 HD
ENDROOT
BRANCH   2   5
ATOM      5  C   UNL     1      -0.065  10.155  18.412  0.00  0.00    +0.000 A 
ATOM      6  C   UNL     1      -1.100   9.839  17.513  0.00  0.00    +0.000 A 
ATOM      7  C   UNL     1      -2.287  10.565  17.505  0.00  0.00    +0.000 A 
ATOM      8  C   UNL     1      -2.468  11.610  18.405  0.00  0.00    +0.000 A 
ATOM      9  C   UNL     1      -1.476  11.941  19.336  0.00  0.00    +0.000 A 
ATOM     10  C   UNL     1      -1.716  12.990  20.242  0.00  0.00    +0.000 A 
ATOM     11  C   UNL     1      -0.772  13.349  21.197  0.00  0.00    +0.000 A 
ATOM     12  C   UNL     1       0.431  12.662  21.254  0.00  0.00    +0.000 A 
ATOM     13  C   UNL     1       0.690  11.621  20.351  0.00  0.00    +0.000 A 
ATOM     14  C   UNL     1      -0.250  11.215  19.365  0.00  0.00    +0.000 A 
ENDBRANCH   2   5
BRANCH   1  15
ATOM     15  C   UNL     1       2.522   7.490  19.394  0.00  0.00    +0.000 C 
BRANCH  15  23
ATOM     16  C   UNL     1       2.724   3.547  19.318  0.00  0.00    +0.000 C 
ATOM     17  C   UNL     1       3.985   2.955  18.689  0.00  0.00    +0.000 C 
ATOM     18  C   UNL     1       4.479   4.003  17.701  0.00  0.00    +0.000 C 
ATOM     19  F   UNL     1       5.776   4.297  17.949  0.00  0.00    +0.000 F 
ATOM     20  F   UNL     1       4.402   3.543  16.434  0.00  0.00    +0.000 F 
ATOM     21  C   UNL     1       3.619   5.240  17.877  0.00  0.00    +0.000 C 
ATOM     22  N   UNL     1       2.890   5.018  19.112  0.00  0.00    +0.000 N 
ATOM     23  C   UNL     1       2.246   6.024  19.830  0.00  0.00    +0.000 C 
ATOM     24  O   UNL     1       1.478   5.776  20.760  0.00  0.00    +0.000 OA
BRANCH  16  26
ATOM     25  N   UNL     1       2.498   2.842  21.999  0.00  0.00    +0.000 NA
ATOM     26  C   UNL     1       2.600   3.162  20.784  0.00  0.00    +0.000 C 
ENDBRANCH  16  26
ENDBRANCH  15  23
ENDBRANCH   1  15
TORSDOF 4
ENDMDL
MODEL 7
REMARK VINA RESULT:      -7.5      2.246      2.765
REMARK  Name = 
REMARK  4 active torsions:
REMARK  status: ('A' for Active; 'I' for Inactive)
REMARK    1  A    between atoms: C_2  and  C_3
REMARK    2  A    between atoms: C_10  and  C_12
REMARK    3  A    between atoms: C_12  and  N_13
REMARK    4  A    between atoms: C_14  and  C_16
REMARK                            x       y       z     vdW  Elec       q    Type
REMARK                         _______ _______ _______ _____ _____    ______ ____
ROOT
ATOM      1  N   UNL     1       2.165   8.053  19.696  0.00  0.00    +0.000 N 
ATOM      2  C   UNL     1       1.530   8.962  18.851  0.00  0.00    +0.000 C 
ATOM      3  O   UNL     1       1.372   8.708  17.659  0.00  0.00    +0.000 OA
ATOM      4  H   UNL     1       2.186   8.205  20.699  0.00  0.00    +0.000 HD
ENDROOT
BRANCH   2   5
ATOM      5  C   UNL     1       1.054  10.257  19.453  0.00  0.00    +0.000 A 
ATOM      6  C   UNL     1       1.249  11.433  18.706  0.00  0.00    +0.000 A 
ATOM      7  C   UNL     1       0.823  12.667  19.190  0.00  0.00    +0.000 A 
ATOM      8  C   UNL     1       0.182  12.746  20.421  0.00  0.00    +0.000 A 
ATOM      9  C   UNL     1      -0.059  11.597  21.185  0.00  0.00    +0.000 A 
ATOM     10  C   UNL     1      -0.734  11.726  22.413  0.00  0.00    +0.000 A 
ATOM     11  C   UNL     1      -1.012  10.616  23.203  0.00  0.00    +0.000 A 
ATOM     12  C   UNL     1      -0.613   9.360  22.773  0.00  0.00    +0.000 A 
ATOM     13  C   UNL     1       0.070   9.217  21.557  0.00  0.00    +0.000 A 
ATOM     14  C   UNL     1       0.367  10.321  20.715  0.00  0.00    +0.000 A 
ENDBRANCH   2   5
BRANCH   1  15
ATOM     15  C   UNL     1       2.638   6.766  19.202  0.00  0.00    +0.000 C 
BRANCH  15  23
ATOM     16  C   UNL     1       1.497   3.004  19.582  0.00  0.00    +0.000 C 
ATOM     17  C   UNL     1       2.348   1.971  18.844  0.00  0.00    +0.000 C 
ATOM     18  C   UNL     1       2.968   2.716  17.671  0.00  0.00    +0.000 C 
ATOM     19  F   UNL     1       4.311   2.552  17.678  0.00  0.00    +0.000 F 
ATOM     20  F   UNL     1       2.507   2.233  16.497  0.00  0.00    +0.000 F 
ATOM     21  C   UNL     1       2.618   4.184  17.823  0.00  0.00    +0.000 C 
ATOM     22  N   UNL     1       2.102   4.308  19.174  0.00  0.00    +0.000 N 
ATOM     23  C   UNL     1       1.976   5.518  19.853  0.00  0.00    +0.000 C 
ATOM     24  O   UNL     1       1.358   5.614  20.913  0.00  0.00    +0.000 OA
BRANCH  16  26
ATOM     25  N   UNL     1       1.554   2.593  22.333  0.00  0.00    +0.000 NA
ATOM     26  C   UNL     1       1.528   2.779  21.086  0.00  0.00    +0.000 C 
ENDBRANCH  16  26
ENDBRANCH  15  23
ENDBRANCH   1  15
TORSDOF 4
ENDMDL
MODEL 8
REMARK VINA RESULT:      -7.5      1.490      1.762
REMARK  Name = 
REMARK  4 active torsions:
REMARK  status: ('A' for Active; 'I' for Inactive)
REMARK    1  A    between atoms: C_2  and  C_3
REMARK    2  A    between atoms: C_10  and  C_12
REMARK    3  A    between atoms: C_12  and  N_13
REMARK    4  A    between atoms: C_14  and  C_16
REMARK                            x       y       z     vdW  Elec       q    Type
REMARK                         _______ _______ _______ _____ _____    ______ ____
ROOT
ATOM      1  N   UNL     1       1.846   8.712  18.477  0.00  0.00    +0.000 N 
ATOM      2  C   UNL     1       1.590  10.063  18.251  0.00  0.00    +0.000 C 
ATOM      3  O   UNL     1       2.334  10.733  17.537  0.00  0.00    +0.000 OA
ATOM      4  H   UNL     1       1.170   8.130  18.961  0.00  0.00    +0.000 HD
ENDROOT
BRANCH   2   5
ATOM      5  C   UNL     1       0.379  10.663  18.914  0.00  0.00    +0.000 A 
ATOM      6  C   UNL     1       0.576  11.363  20.119  0.00  0.00    +0.000 A 
ATOM      7  C   UNL     1      -0.493  11.957  20.783  0.00  0.00    +0.000 A 
ATOM      8  C   UNL     1      -1.774  11.876  20.249  0.00  0.00    +0.000 A 
ATOM      9  C   UNL     1      -2.012  11.214  19.038  0.00  0.00    +0.000 A 
ATOM     10  C   UNL     1      -3.322  11.181  18.526  0.00  0.00    +0.000 A 
ATOM     11  C   UNL     1      -3.609  10.551  17.320  0.00  0.00    +0.000 A 
ATOM     12  C   UNL     1      -2.585   9.941  16.612  0.00  0.00    +0.000 A 
ATOM     13  C   UNL     1      -1.276   9.956  17.114  0.00  0.00    +0.000 A 
ATOM     14  C   UNL     1      -0.936  10.595  18.337  0.00  0.00    +0.000 A 
ENDBRANCH   2   5
BRANCH   1  15
ATOM     15  C   UNL     1       2.984   8.045  17.857  0.00  0.00    +0.000 C 
BRANCH  15  23
ATOM     16  C   UNL     1       4.232   4.332  17.349  0.00  0.00    +0.000 C 
ATOM     17  C   UNL     1       5.692   4.170  16.928  0.00  0.00    +0.000 C 
ATOM     18  C   UNL     1       6.051   5.457  16.198  0.00  0.00    +0.000 C 
ATOM     19  F   UNL     1       7.163   6.002  16.742  0.00  0.00    +0.000 F 
ATOM     20  F   UNL     1       6.314   5.213  14.896  0.00  0.00    +0.000 F 
ATOM     21  C   UNL     1       4.877   6.408  16.339  0.00  0.00    +0.000 C 
ATOM     22  N   UNL     1       4.035   5.813  17.361  0.00  0.00    +0.000 N 
ATOM     23  C   UNL     1       3.036   6.502  18.047  0.00  0.00    +0.000 C 
ATOM     24  O   UNL     1       2.215   5.927  18.761  0.00  0.00    +0.000 OA
BRANCH  16  26
ATOM     25  N   UNL     1       3.749   3.150  19.820  0.00  0.00    +0.000 NA
ATOM     26  C   UNL     1       3.967   3.686  18.700  0.00  0.00    +0.000 C 
ENDBRANCH  16  26
ENDBRANCH  15  23
ENDBRANCH   1  15
TORSDOF 4
ENDMDL
MODEL 9
REMARK VINA RESULT:      -7.4      2.599      3.289
REMARK  Name = 
REMARK  4 active torsions:
REMARK  status: ('A' for Active; 'I' for Inactive)
REMARK    1  A    between atoms: C_2  and  C_3
REMARK    2  A    between atoms: C_10  and  C_12
REMARK    3  A    between atoms: C_12  and  N_13
REMARK    4  A    between atoms: C_14  and  C_16
REMARK                            x       y       z     vdW  Elec       q    Type
REMARK                         _______ _______ _______ _____ _____    ______ ____
ROOT
ATOM      1  N   UNL     1       2.063   8.184  19.330  0.00  0.00    +0.000 N 
ATOM      2  C   UNL     1       1.116   9.202  19.229  0.00  0.00    +0.000 C 
ATOM      3  O   UNL     1       0.841   9.699  18.139  0.00  0.00    +0.000 OA
ATOM      4  H   UNL     1       2.201   7.689  20.206  0.00  0.00    +0.000 HD
ENDROOT
BRANCH   2   5
ATOM      5  C   UNL     1       0.455   9.666  20.498  0.00  0.00    +0.000 A 
ATOM      6  C   UNL     1       0.106   8.687  21.447  0.00  0.00    +0.000 A 
ATOM      7  C   UNL     1      -0.497   9.040  22.651  0.00  0.00    +0.000 A 
ATOM      8  C   UNL     1      -0.747  10.378  22.936  0.00  0.00    +0.000 A 
ATOM      9  C   UNL     1      -0.390  11.388  22.035  0.00  0.00    +0.000 A 
ATOM     10  C   UNL     1      -0.641  12.728  22.380  0.00  0.00    +0.000 A 
ATOM     11  C   UNL     1      -0.292  13.770  21.528  0.00  0.00    +0.000 A 
ATOM     12  C   UNL     1       0.311  13.481  20.313  0.00  0.00    +0.000 A 
ATOM     13  C   UNL     1       0.559  12.150  19.951  0.00  0.00    +0.000 A 
ATOM     14  C   UNL     1       0.227  11.055  20.793  0.00  0.00    +0.000 A 
ENDBRANCH   2   5
BRANCH   1  15
ATOM     15  C   UNL     1       2.736   7.658  18.149  0.00  0.00    +0.000 C 
BRANCH  15  23
ATOM     16  C   UNL     1       5.046   4.470  17.837  0.00  0.00    +0.000 C 
ATOM     17  C   UNL     1       6.550   4.722  17.953  0.00  0.00    +0.000 C 
ATOM     18  C   UNL     1       6.759   6.159  17.499  0.00  0.00    +0.000 C 
ATOM     19  F   UNL     1       7.440   6.847  18.444  0.00  0.00    +0.000 F 
ATOM     20  F   UNL     1       7.486   6.203  16.362  0.00  0.00    +0.000 F 
ATOM     21  C   UNL     1       5.390   6.777  17.285  0.00  0.00    +0.000 C 
ATOM     22  N   UNL     1       4.459   5.843  17.891  0.00  0.00    +0.000 N 
ATOM     23  C   UNL     1       3.144   6.159  18.226  0.00  0.00    +0.000 C 
ATOM     24  O   UNL     1       2.326   5.300  18.555  0.00  0.00    +0.000 OA
BRANCH  16  26
ATOM     25  N   UNL     1       4.130   2.814  19.876  0.00  0.00    +0.000 NA
ATOM     26  C   UNL     1       4.546   3.565  18.951  0.00  0.00    +0.000 C 
ENDBRANCH  16  26
ENDBRANCH  15  23
ENDBRANCH   1  15
TORSDOF 4
ENDMDL
