MODEL 1
REMARK VINA RESULT:      -6.5      0.000      0.000
REMARK  Name = 
REMARK  9 active torsions:
REMARK  status: ('A' for Active; 'I' for Inactive)
REMARK    1  A    between atoms: C_1  and  C_2
REMARK    2  A    between atoms: C_2  and  O_3
REMARK    3  A    between atoms: O_3  and  C_4
REMARK    4  A    between atoms: C_4  and  C_5
REMARK    5  A    between atoms: C_5  and  C_6
REMARK    6  A    between atoms: C_6  and  N_7
REMARK    7  A    between atoms: C_11  and  C_13
REMARK    8  A    between atoms: C_18  and  C_19
REMARK    9  A    between atoms: N_26  and  C_27
REMARK                            x       y       z     vdW  Elec       q    Type
REMARK                         _______ _______ _______ _____ _____    ______ ____
ROOT
ATOM      1  C   UNL     1      -1.515  13.054  21.367  0.00  0.00    +0.000 A 
ATOM      2  C   UNL     1      -2.376  12.760  20.294  0.00  0.00    +0.000 A 
ATOM      3  C   UNL     1      -3.754  12.682  20.471  0.00  0.00    +0.000 A 
ATOM      4  C   UNL     1      -4.286  13.096  21.714  0.00  0.00    +0.000 A 
ATOM      5  C   UNL     1      -3.451  13.552  22.736  0.00  0.00    +0.000 A 
ATOM      6  C   UNL     1      -2.054  13.548  22.574  0.00  0.00    +0.000 A 
ATOM      7  C   UNL     1      -1.201  14.105  23.684  0.00  0.00    +0.000 C 
ATOM      8  N   UNL     1      -5.683  13.086  21.938  0.00  0.00    +0.000 N 
ATOM      9  C   UNL     1      -6.625  12.705  21.003  0.00  0.00    +0.000 A 
ATOM     10  O   UNL     1      -7.828  12.738  21.246  0.00  0.00    +0.000 OA
ATOM     11  C   UNL     1      -6.089  12.255  19.742  0.00  0.00    +0.000 A 
ATOM     12  C   UNL     1      -6.716  11.792  18.581  0.00  0.00    +0.000 A 
ATOM     13  N   UNL     1      -5.837  11.450  17.642  0.00  0.00    +0.000 NA
ATOM     14  N   UNL     1      -4.626  11.643  18.220  0.00  0.00    +0.000 N 
ATOM     15  C   UNL     1      -4.725  12.218  19.476  0.00  0.00    +0.000 A 
ATOM     16  H   UNL     1      -6.058  13.406  22.822  0.00  0.00    +0.000 HD
ENDROOT
BRANCH   1  21
ATOM     17  N   UNL     1       2.434  15.468  18.767  0.00  0.00    +0.000 NA
ATOM     18  C   UNL     1       2.770  14.081  19.167  0.00  0.00    +0.000 C 
ATOM     19  C   UNL     1       2.195  13.645  20.527  0.00  0.00    +0.000 C 
ATOM     20  N   UNL     1       0.744  13.855  20.593  0.00  0.00    +0.000 N 
ATOM     21  C   UNL     1      -0.041  12.852  21.183  0.00  0.00    +0.000 C 
ATOM     22  O   UNL     1       0.442  11.780  21.542  0.00  0.00    +0.000 OA
ATOM     23  C   UNL     1       0.307  15.176  20.119  0.00  0.00    +0.000 C 
ATOM     24  C   UNL     1       0.965  15.605  18.795  0.00  0.00    +0.000 C 
BRANCH  17  25
ATOM     25  C   UNL     1       3.061  16.499  19.608  0.00  0.00    +0.000 C 
BRANCH  25  26
ATOM     26  C   UNL     1       4.521  16.775  19.263  0.00  0.00    +0.000 C 
BRANCH  26  27
ATOM     27  C   UNL     1       5.142  17.665  20.329  0.00  0.00    +0.000 C 
BRANCH  27  28
ATOM     28  O   UNL     1       6.403  18.120  19.851  0.00  0.00    +0.000 OA
BRANCH  28  30
ATOM     29  C   UNL     1       8.263  17.636  18.456  0.00  0.00    +0.000 C 
ATOM     30  C   UNL     1       7.182  17.046  19.334  0.00  0.00    +0.000 C 
ENDBRANCH  28  30
ENDBRANCH  27  28
ENDBRANCH  26  27
ENDBRANCH  25  26
ENDBRANCH  17  25
ENDBRANCH   1  21
BRANCH  14  31
ATOM     31  C   UNL     1      -3.415  11.238  17.548  0.00  0.00    +0.000 C 
ATOM     32  C   UNL     1      -3.096   9.713  17.557  0.00  0.00    +0.000 C 
ATOM     33  C   UNL     1      -2.660   9.877  16.083  0.00  0.00    +0.000 C 
ATOM     34  C   UNL     1      -3.648  11.057  16.017  0.00  0.00    +0.000 C 
ENDBRANCH  14  31
TORSDOF 7
ENDMDL
MODEL 2
REMARK VINA RESULT:      -6.4      4.000     11.607
REMARK  Name = 
REMARK  9 active torsions:
REMARK  status: ('A' for Active; 'I' for Inactive)
REMARK    1  A    between atoms: C_1  and  C_2
REMARK    2  A    between atoms: C_2  and  O_3
REMARK    3  A    between atoms: O_3  and  C_4
REMARK    4  A    between atoms: C_4  and  C_5
REMARK    5  A    between atoms: C_5  and  C_6
REMARK    6  A    between atoms: C_6  and  N_7
REMARK    7  A    between atoms: C_11  and  C_13
REMARK    8  A    between atoms: C_18  and  C_19
REMARK    9  A    between atoms: N_26  and  C_27
REMARK                            x       y       z     vdW  Elec       q    Type
REMARK                         _______ _______ _______ _____ _____    ______ ____
ROOT
ATOM      1  C   UNL     1       6.275  15.586  20.349  0.00  0.00    +0.000 A 
ATOM      2  C   UNL     1       7.414  14.846  19.983  0.00  0.00    +0.000 A 
ATOM      3  C   UNL     1       8.398  15.388  19.162  0.00  0.00    +0.000 A 
ATOM      4  C   UNL     1       8.323  16.767  18.861  0.00  0.00    +0.000 A 
ATOM      5  C   UNL     1       7.283  17.554  19.359  0.00  0.00    +0.000 A 
ATOM      6  C   UNL     1       6.250  16.979  20.120  0.00  0.00    +0.000 A 
ATOM      7  C   UNL     1       5.184  17.881  20.683  0.00  0.00    +0.000 C 
ATOM      8  N   UNL     1       9.321  17.386  18.071  0.00  0.00    +0.000 N 
ATOM      9  C   UNL     1      10.425  16.740  17.554  0.00  0.00    +0.000 A 
ATOM     10  O   UNL     1      11.271  17.335  16.893  0.00  0.00    +0.000 OA
ATOM     11  C   UNL     1      10.494  15.327  17.833  0.00  0.00    +0.000 A 
ATOM     12  C   UNL     1      11.437  14.358  17.476  0.00  0.00    +0.000 A 
ATOM     13  N   UNL     1      11.103  13.149  17.925  0.00  0.00    +0.000 NA
ATOM     14  N   UNL     1       9.906  13.328  18.532  0.00  0.00    +0.000 N 
ATOM     15  C   UNL     1       9.530  14.661  18.580  0.00  0.00    +0.000 A 
ATOM     16  H   UNL     1       9.273  18.379  17.880  0.00  0.00    +0.000 HD
ENDROOT
BRANCH   1  21
ATOM     17  N   UNL     1       1.211  14.519  19.168  0.00  0.00    +0.000 NA
ATOM     18  C   UNL     1       1.514  14.355  20.610  0.00  0.00    +0.000 C 
ATOM     19  C   UNL     1       2.915  13.794  20.913  0.00  0.00    +0.000 C 
ATOM     20  N   UNL     1       3.966  14.584  20.261  0.00  0.00    +0.000 N 
ATOM     21  C   UNL     1       5.128  14.870  20.995  0.00  0.00    +0.000 C 
ATOM     22  O   UNL     1       5.233  14.568  22.183  0.00  0.00    +0.000 OA
ATOM     23  C   UNL     1       3.702  14.883  18.846  0.00  0.00    +0.000 C 
ATOM     24  C   UNL     1       2.265  15.367  18.577  0.00  0.00    +0.000 C 
BRANCH  17  25
ATOM     25  C   UNL     1       1.102  13.251  18.433  0.00  0.00    +0.000 C 
BRANCH  25  26
ATOM     26  C   UNL     1      -0.246  12.553  18.600  0.00  0.00    +0.000 C 
BRANCH  26  27
ATOM     27  C   UNL     1      -0.026  11.105  19.011  0.00  0.00    +0.000 C 
BRANCH  27  28
ATOM     28  O   UNL     1      -1.261  10.411  18.873  0.00  0.00    +0.000 OA
BRANCH  28  30
ATOM     29  C   UNL     1      -3.003   9.753  17.398  0.00  0.00    +0.000 C 
ATOM     30  C   UNL     1      -1.942  10.793  17.682  0.00  0.00    +0.000 C 
ENDBRANCH  28  30
ENDBRANCH  27  28
ENDBRANCH  26  27
ENDBRANCH  25  26
ENDBRANCH  17  25
ENDBRANCH   1  21
BRANCH  14  31
ATOM     31  C   UNL     1       9.150  12.200  19.022  0.00  0.00    +0.000 C 
ATOM     32  C   UNL     1       9.112  10.943  18.104  0.00  0.00    +0.000 C 
ATOM     33  C   UNL     1       9.283  10.099  19.387  0.00  0.00    +0.000 C 
ATOM     34  C   UNL     1      10.005  11.321  19.986  0.00  0.00    +0.000 C 
ENDBRANCH  14  31
TORSDOF 7
ENDMDL
MODEL 3
REMARK VINA RESULT:      -6.4      1.146      1.532
REMARK  Name = 
REMARK  9 active torsions:
REMARK  status: ('A' for Active; 'I' for Inactive)
REMARK    1  A    between atoms: C_1  and  C_2
REMARK    2  A    between atoms: C_2  and  O_3
REMARK    3  A    between atoms: O_3  and  C_4
REMARK    4  A    between atoms: C_4  and  C_5
REMARK    5  A    between atoms: C_5  and  C_6
REMARK    6  A    between atoms: C_6  and  N_7
REMARK    7  A    between atoms: C_11  and  C_13
REMARK    8  A    between atoms: C_18  and  C_19
REMARK    9  A    between atoms: N_26  and  C_27
REMARK                            x       y       z     vdW  Elec       q    Type
REMARK                         _______ _______ _______ _____ _____    ______ ____
ROOT
ATOM      1  C   UNL     1      -1.600  12.973  21.394  0.00  0.00    +0.000 A 
ATOM      2  C   UNL     1      -2.432  12.717  20.289  0.00  0.00    +0.000 A 
ATOM      3  C   UNL     1      -3.816  12.659  20.422  0.00  0.00    +0.000 A 
ATOM      4  C   UNL     1      -4.379  13.054  21.657  0.00  0.00    +0.000 A 
ATOM      5  C   UNL     1      -3.568  13.472  22.714  0.00  0.00    +0.000 A 
ATOM      6  C   UNL     1      -2.167  13.448  22.595  0.00  0.00    +0.000 A 
ATOM      7  C   UNL     1      -1.339  13.965  23.742  0.00  0.00    +0.000 C 
ATOM      8  N   UNL     1      -5.782  13.062  21.838  0.00  0.00    +0.000 N 
ATOM      9  C   UNL     1      -6.701  12.720  20.867  0.00  0.00    +0.000 A 
ATOM     10  O   UNL     1      -7.910  12.767  21.075  0.00  0.00    +0.000 OA
ATOM     11  C   UNL     1      -6.134  12.289  19.613  0.00  0.00    +0.000 A 
ATOM     12  C   UNL     1      -6.733  11.863  18.423  0.00  0.00    +0.000 A 
ATOM     13  N   UNL     1      -5.831  11.527  17.503  0.00  0.00    +0.000 NA
ATOM     14  N   UNL     1      -4.636  11.686  18.122  0.00  0.00    +0.000 N 
ATOM     15  C   UNL     1      -4.764  12.234  19.387  0.00  0.00    +0.000 A 
ATOM     16  H   UNL     1      -6.179  13.369  22.718  0.00  0.00    +0.000 HD
ENDROOT
BRANCH   1  21
ATOM     17  N   UNL     1       2.456  15.339  18.917  0.00  0.00    +0.000 NA
ATOM     18  C   UNL     1       2.760  13.945  19.319  0.00  0.00    +0.000 C 
ATOM     19  C   UNL     1       2.141  13.512  20.660  0.00  0.00    +0.000 C 
ATOM     20  N   UNL     1       0.692  13.743  20.686  0.00  0.00    +0.000 N 
ATOM     21  C   UNL     1      -0.124  12.749  21.249  0.00  0.00    +0.000 C 
ATOM     22  O   UNL     1       0.333  11.669  21.616  0.00  0.00    +0.000 OA
ATOM     23  C   UNL     1       0.287  15.073  20.207  0.00  0.00    +0.000 C 
ATOM     24  C   UNL     1       0.989  15.497  18.904  0.00  0.00    +0.000 C 
BRANCH  17  25
ATOM     25  C   UNL     1       3.074  16.357  19.779  0.00  0.00    +0.000 C 
BRANCH  25  26
ATOM     26  C   UNL     1       4.585  16.482  19.604  0.00  0.00    +0.000 C 
BRANCH  26  27
ATOM     27  C   UNL     1       5.274  16.313  20.949  0.00  0.00    +0.000 C 
BRANCH  27  28
ATOM     28  O   UNL     1       4.288  15.958  21.913  0.00  0.00    +0.000 OA
BRANCH  28  30
ATOM     29  C   UNL     1       5.329  13.904  22.498  0.00  0.00    +0.000 C 
ATOM     30  C   UNL     1       4.862  15.250  23.007  0.00  0.00    +0.000 C 
ENDBRANCH  28  30
ENDBRANCH  27  28
ENDBRANCH  26  27
ENDBRANCH  25  26
ENDBRANCH  17  25
ENDBRANCH   1  21
BRANCH  14  31
ATOM     31  C   UNL     1      -3.411  11.276  17.478  0.00  0.00    +0.000 C 
ATOM     32  C   UNL     1      -3.048   9.765  17.584  0.00  0.00    +0.000 C 
ATOM     33  C   UNL     1      -2.613   9.848  16.103  0.00  0.00    +0.000 C 
ATOM     34  C   UNL     1      -3.635  10.991  15.961  0.00  0.00    +0.000 C 
ENDBRANCH  14  31
TORSDOF 7
ENDMDL
MODEL 4
REMARK VINA RESULT:      -6.0      2.959      7.871
REMARK  Name = 
REMARK  9 active torsions:
REMARK  status: ('A' for Active; 'I' for Inactive)
REMARK    1  A    between atoms: C_1  and  C_2
REMARK    2  A    between atoms: C_2  and  O_3
REMARK    3  A    between atoms: O_3  and  C_4
REMARK    4  A    between atoms: C_4  and  C_5
REMARK    5  A    between atoms: C_5  and  C_6
REMARK    6  A    between atoms: C_6  and  N_7
REMARK    7  A    between atoms: C_11  and  C_13
REMARK    8  A    between atoms: C_18  and  C_19
REMARK    9  A    between atoms: N_26  and  C_27
REMARK                            x       y       z     vdW  Elec       q    Type
REMARK                         _______ _______ _______ _____ _____    ______ ____
ROOT
ATOM      1  C   UNL     1      -3.602  13.889  22.847  0.00  0.00    +0.000 A 
ATOM      2  C   UNL     1      -2.342  13.387  22.474  0.00  0.00    +0.000 A 
ATOM      3  C   UNL     1      -1.239  14.225  22.340  0.00  0.00    +0.000 A 
ATOM      4  C   UNL     1      -1.368  15.564  22.773  0.00  0.00    +0.000 A 
ATOM      5  C   UNL     1      -2.571  16.033  23.305  0.00  0.00    +0.000 A 
ATOM      6  C   UNL     1      -3.703  15.201  23.359  0.00  0.00    +0.000 A 
ATOM      7  C   UNL     1      -4.959  15.736  23.995  0.00  0.00    +0.000 C 
ATOM      8  N   UNL     1      -0.267  16.451  22.707  0.00  0.00    +0.000 N 
ATOM      9  C   UNL     1       0.989  16.109  22.250  0.00  0.00    +0.000 A 
ATOM     10  O   UNL     1       1.914  16.916  22.235  0.00  0.00    +0.000 OA
ATOM     11  C   UNL     1       1.121  14.752  21.779  0.00  0.00    +0.000 A 
ATOM     12  C   UNL     1       2.212  14.060  21.245  0.00  0.00    +0.000 A 
ATOM     13  N   UNL     1       1.894  12.811  20.909  0.00  0.00    +0.000 NA
ATOM     14  N   UNL     1       0.570  12.711  21.179  0.00  0.00    +0.000 N 
ATOM     15  C   UNL     1       0.069  13.846  21.795  0.00  0.00    +0.000 A 
ATOM     16  H   UNL     1      -0.361  17.402  23.042  0.00  0.00    +0.000 HD
ENDROOT
BRANCH   1  21
ATOM     17  N   UNL     1      -7.335  12.965  19.187  0.00  0.00    +0.000 NA
ATOM     18  C   UNL     1      -7.712  12.471  20.533  0.00  0.00    +0.000 C 
ATOM     19  C   UNL     1      -6.545  11.902  21.360  0.00  0.00    +0.000 C 
ATOM     20  N   UNL     1      -5.438  12.860  21.464  0.00  0.00    +0.000 N 
ATOM     21  C   UNL     1      -4.801  13.001  22.707  0.00  0.00    +0.000 C 
ATOM     22  O   UNL     1      -5.214  12.427  23.713  0.00  0.00    +0.000 OA
ATOM     23  C   UNL     1      -5.059  13.479  20.185  0.00  0.00    +0.000 C 
ATOM     24  C   UNL     1      -6.262  13.964  19.355  0.00  0.00    +0.000 C 
BRANCH  17  25
ATOM     25  C   UNL     1      -6.908  11.906  18.261  0.00  0.00    +0.000 C 
BRANCH  25  26
ATOM     26  C   UNL     1      -5.754  12.310  17.349  0.00  0.00    +0.000 C 
BRANCH  26  27
ATOM     27  C   UNL     1      -4.812  11.130  17.159  0.00  0.00    +0.000 C 
BRANCH  27  28
ATOM     28  O   UNL     1      -3.596  11.616  16.603  0.00  0.00    +0.000 OA
BRANCH  28  30
ATOM     29  C   UNL     1      -2.023  10.028  17.407  0.00  0.00    +0.000 C 
ATOM     30  C   UNL     1      -2.509  11.457  17.510  0.00  0.00    +0.000 C 
ENDBRANCH  28  30
ENDBRANCH  27  28
ENDBRANCH  26  27
ENDBRANCH  25  26
ENDBRANCH  17  25
ENDBRANCH   1  21
BRANCH  14  31
ATOM     31  C   UNL     1      -0.172  11.531  20.806  0.00  0.00    +0.000 C 
ATOM     32  C   UNL     1       0.607  10.451  19.999  0.00  0.00    +0.000 C 
ATOM     33  C   UNL     1      -0.110   9.396  20.871  0.00  0.00    +0.000 C 
ATOM     34  C   UNL     1      -0.188  10.483  21.960  0.00  0.00    +0.000 C 
ENDBRANCH  14  31
TORSDOF 7
ENDMDL
MODEL 5
REMARK VINA RESULT:      -6.0      2.545      8.618
REMARK  Name = 
REMARK  9 active torsions:
REMARK  status: ('A' for Active; 'I' for Inactive)
REMARK    1  A    between atoms: C_1  and  C_2
REMARK    2  A    between atoms: C_2  and  O_3
REMARK    3  A    between atoms: O_3  and  C_4
REMARK    4  A    between atoms: C_4  and  C_5
REMARK    5  A    between atoms: C_5  and  C_6
REMARK    6  A    between atoms: C_6  and  N_7
REMARK    7  A    between atoms: C_11  and  C_13
REMARK    8  A    between atoms: C_18  and  C_19
REMARK    9  A    between atoms: N_26  and  C_27
REMARK                            x       y       z     vdW  Elec       q    Type
REMARK                         _______ _______ _______ _____ _____    ______ ____
ROOT
ATOM      1  C   UNL     1      -0.992  12.500  19.257  0.00  0.00    +0.000 A 
ATOM      2  C   UNL     1      -0.412  13.718  18.857  0.00  0.00    +0.000 A 
ATOM      3  C   UNL     1       0.835  14.116  19.330  0.00  0.00    +0.000 A 
ATOM      4  C   UNL     1       1.592  13.180  20.070  0.00  0.00    +0.000 A 
ATOM      5  C   UNL     1       1.094  11.902  20.333  0.00  0.00    +0.000 A 
ATOM      6  C   UNL     1      -0.201  11.539  19.921  0.00  0.00    +0.000 A 
ATOM      7  C   UNL     1      -0.668  10.130  20.176  0.00  0.00    +0.000 C 
ATOM      8  N   UNL     1       2.887  13.509  20.536  0.00  0.00    +0.000 N 
ATOM      9  C   UNL     1       3.520  14.714  20.310  0.00  0.00    +0.000 A 
ATOM     10  O   UNL     1       4.654  14.937  20.721  0.00  0.00    +0.000 OA
ATOM     11  C   UNL     1       2.743  15.685  19.579  0.00  0.00    +0.000 A 
ATOM     12  C   UNL     1       3.035  16.992  19.177  0.00  0.00    +0.000 A 
ATOM     13  N   UNL     1       2.014  17.557  18.534  0.00  0.00    +0.000 NA
ATOM     14  N   UNL     1       1.032  16.624  18.569  0.00  0.00    +0.000 N 
ATOM     15  C   UNL     1       1.457  15.428  19.121  0.00  0.00    +0.000 A 
ATOM     16  H   UNL     1       3.432  12.824  21.046  0.00  0.00    +0.000 HD
ENDROOT
BRANCH   1  21
ATOM     17  N   UNL     1      -5.603  12.607  21.885  0.00  0.00    +0.000 NA
ATOM     18  C   UNL     1      -5.684  11.857  20.609  0.00  0.00    +0.000 C 
ATOM     19  C   UNL     1      -4.836  12.441  19.464  0.00  0.00    +0.000 C 
ATOM     20  N   UNL     1      -3.434  12.613  19.864  0.00  0.00    +0.000 N 
ATOM     21  C   UNL     1      -2.437  12.255  18.943  0.00  0.00    +0.000 C 
ATOM     22  O   UNL     1      -2.710  11.714  17.873  0.00  0.00    +0.000 OA
ATOM     23  C   UNL     1      -3.258  13.261  21.172  0.00  0.00    +0.000 C 
ATOM     24  C   UNL     1      -4.181  12.698  22.268  0.00  0.00    +0.000 C 
BRANCH  17  25
ATOM     25  C   UNL     1      -6.206  13.946  21.829  0.00  0.00    +0.000 C 
BRANCH  25  26
ATOM     26  C   UNL     1      -7.283  14.185  22.884  0.00  0.00    +0.000 C 
BRANCH  26  27
ATOM     27  C   UNL     1      -6.993  15.477  23.632  0.00  0.00    +0.000 C 
BRANCH  27  28
ATOM     28  O   UNL     1      -5.590  15.555  23.857  0.00  0.00    +0.000 OA
BRANCH  28  30
ATOM     29  C   UNL     1      -3.772  16.638  24.937  0.00  0.00    +0.000 C 
ATOM     30  C   UNL     1      -5.249  16.710  24.618  0.00  0.00    +0.000 C 
ENDBRANCH  28  30
ENDBRANCH  27  28
ENDBRANCH  26  27
ENDBRANCH  25  26
ENDBRANCH  17  25
ENDBRANCH   1  21
BRANCH  14  31
ATOM     31  C   UNL     1      -0.295  16.933  18.091  0.00  0.00    +0.000 C 
ATOM     32  C   UNL     1      -1.216  17.720  19.069  0.00  0.00    +0.000 C 
ATOM     33  C   UNL     1      -1.679  18.543  17.845  0.00  0.00    +0.000 C 
ATOM     34  C   UNL     1      -0.300  18.234  17.231  0.00  0.00    +0.000 C 
ENDBRANCH  14  31
TORSDOF 7
ENDMDL
MODEL 6
REMARK VINA RESULT:      -6.0      3.729      6.203
REMARK  Name = 
REMARK  9 active torsions:
REMARK  status: ('A' for Active; 'I' for Inactive)
REMARK    1  A    between atoms: C_1  and  C_2
REMARK    2  A    between atoms: C_2  and  O_3
REMARK    3  A    between atoms: O_3  and  C_4
REMARK    4  A    between atoms: C_4  and  C_5
REMARK    5  A    between atoms: C_5  and  C_6
REMARK    6  A    between atoms: C_6  and  N_7
REMARK    7  A    between atoms: C_11  and  C_13
REMARK    8  A    between atoms: C_18  and  C_19
REMARK    9  A    between atoms: N_26  and  C_27
REMARK                            x       y       z     vdW  Elec       q    Type
REMARK                         _______ _______ _______ _____ _____    ______ ____
ROOT
ATOM      1  C   UNL     1      -1.055  12.663  20.917  0.00  0.00    +0.000 A 
ATOM      2  C   UNL     1      -2.339  12.294  20.478  0.00  0.00    +0.000 A 
ATOM      3  C   UNL     1      -2.596  12.020  19.138  0.00  0.00    +0.000 A 
ATOM      4  C   UNL     1      -1.494  11.934  18.257  0.00  0.00    +0.000 A 
ATOM      5  C   UNL     1      -0.191  12.134  18.717  0.00  0.00    +0.000 A 
ATOM      6  C   UNL     1       0.050  12.491  20.056  0.00  0.00    +0.000 A 
ATOM      7  C   UNL     1       1.477  12.638  20.515  0.00  0.00    +0.000 C 
ATOM      8  N   UNL     1      -1.687  11.611  16.893  0.00  0.00    +0.000 N 
ATOM      9  C   UNL     1      -2.912  11.343  16.316  0.00  0.00    +0.000 A 
ATOM     10  O   UNL     1      -3.016  11.046  15.129  0.00  0.00    +0.000 OA
ATOM     11  C   UNL     1      -4.044  11.457  17.202  0.00  0.00    +0.000 A 
ATOM     12  C   UNL     1      -5.413  11.275  16.983  0.00  0.00    +0.000 A 
ATOM     13  N   UNL     1      -6.129  11.507  18.081  0.00  0.00    +0.000 NA
ATOM     14  N   UNL     1      -5.219  11.895  19.007  0.00  0.00    +0.000 N 
ATOM     15  C   UNL     1      -3.917  11.797  18.543  0.00  0.00    +0.000 A 
ATOM     16  H   UNL     1      -0.890  11.527  16.273  0.00  0.00    +0.000 HD
ENDROOT
BRANCH   1  21
ATOM     17  N   UNL     1      -0.584  17.451  23.163  0.00  0.00    +0.000 NA
ATOM     18  C   UNL     1      -0.150  16.350  24.056  0.00  0.00    +0.000 C 
ATOM     19  C   UNL     1      -0.976  15.057  23.932  0.00  0.00    +0.000 C 
ATOM     20  N   UNL     1      -1.041  14.588  22.543  0.00  0.00    +0.000 N 
ATOM     21  C   UNL     1      -0.899  13.212  22.304  0.00  0.00    +0.000 C 
ATOM     22  O   UNL     1      -0.621  12.424  23.206  0.00  0.00    +0.000 OA
ATOM     23  C   UNL     1      -1.369  15.639  21.569  0.00  0.00    +0.000 C 
ATOM     24  C   UNL     1      -0.575  16.942  21.778  0.00  0.00    +0.000 C 
BRANCH  17  25
ATOM     25  C   UNL     1      -1.905  18.004  23.497  0.00  0.00    +0.000 C 
BRANCH  25  26
ATOM     26  C   UNL     1      -1.981  18.628  24.888  0.00  0.00    +0.000 C 
BRANCH  26  27
ATOM     27  C   UNL     1      -3.253  18.173  25.587  0.00  0.00    +0.000 C 
BRANCH  27  28
ATOM     28  O   UNL     1      -3.756  17.034  24.898  0.00  0.00    +0.000 OA
BRANCH  28  30
ATOM     29  C   UNL     1      -5.590  16.010  23.788  0.00  0.00    +0.000 C 
ATOM     30  C   UNL     1      -5.172  17.096  24.754  0.00  0.00    +0.000 C 
ENDBRANCH  28  30
ENDBRANCH  27  28
ENDBRANCH  26  27
ENDBRANCH  25  26
ENDBRANCH  17  25
ENDBRANCH   1  21
BRANCH  14  31
ATOM     31  C   UNL     1      -5.640  12.375  20.301  0.00  0.00    +0.000 C 
ATOM     32  C   UNL     1      -6.526  13.656  20.308  0.00  0.00    +0.000 C 
ATOM     33  C   UNL     1      -7.368  12.971  21.409  0.00  0.00    +0.000 C 
ATOM     34  C   UNL     1      -6.922  11.633  20.790  0.00  0.00    +0.000 C 
ENDBRANCH  14  31
TORSDOF 7
ENDMDL
MODEL 7
REMARK VINA RESULT:      -5.9      3.836      6.298
REMARK  Name = 
REMARK  9 active torsions:
REMARK  status: ('A' for Active; 'I' for Inactive)
REMARK    1  A    between atoms: C_1  and  C_2
REMARK    2  A    between atoms: C_2  and  O_3
REMARK    3  A    between atoms: O_3  and  C_4
REMARK    4  A    between atoms: C_4  and  C_5
REMARK    5  A    between atoms: C_5  and  C_6
REMARK    6  A    between atoms: C_6  and  N_7
REMARK    7  A    between atoms: C_11  and  C_13
REMARK    8  A    between atoms: C_18  and  C_19
REMARK    9  A    between atoms: N_26  and  C_27
REMARK                            x       y       z     vdW  Elec       q    Type
REMARK                         _______ _______ _______ _____ _____    ______ ____
ROOT
ATOM      1  C   UNL     1      -1.690  12.632  21.373  0.00  0.00    +0.000 A 
ATOM      2  C   UNL     1      -2.425  12.520  20.180  0.00  0.00    +0.000 A 
ATOM      3  C   UNL     1      -3.814  12.619  20.172  0.00  0.00    +0.000 A 
ATOM      4  C   UNL     1      -4.455  13.028  21.363  0.00  0.00    +0.000 A 
ATOM      5  C   UNL     1      -3.717  13.306  22.516  0.00  0.00    +0.000 A 
ATOM      6  C   UNL     1      -2.322  13.123  22.535  0.00  0.00    +0.000 A 
ATOM      7  C   UNL     1      -1.566  13.494  23.784  0.00  0.00    +0.000 C 
ATOM      8  N   UNL     1      -5.859  13.194  21.404  0.00  0.00    +0.000 N 
ATOM      9  C   UNL     1      -6.704  13.000  20.331  0.00  0.00    +0.000 A 
ATOM     10  O   UNL     1      -7.915  13.180  20.419  0.00  0.00    +0.000 OA
ATOM     11  C   UNL     1      -6.061  12.555  19.118  0.00  0.00    +0.000 A 
ATOM     12  C   UNL     1      -6.576  12.250  17.855  0.00  0.00    +0.000 A 
ATOM     13  N   UNL     1      -5.627  11.847  17.013  0.00  0.00    +0.000 NA
ATOM     14  N   UNL     1      -4.493  11.840  17.754  0.00  0.00    +0.000 N 
ATOM     15  C   UNL     1      -4.690  12.349  19.027  0.00  0.00    +0.000 A 
ATOM     16  H   UNL     1      -6.309  13.510  22.255  0.00  0.00    +0.000 HD
ENDROOT
BRANCH   1  21
ATOM     17  N   UNL     1       1.125   8.155  21.833  0.00  0.00    +0.000 NA
ATOM     18  C   UNL     1       1.939   9.373  22.060  0.00  0.00    +0.000 C 
ATOM     19  C   UNL     1       1.559  10.575  21.176  0.00  0.00    +0.000 C 
ATOM     20  N   UNL     1       0.130  10.892  21.281  0.00  0.00    +0.000 N 
ATOM     21  C   UNL     1      -0.242  12.244  21.365  0.00  0.00    +0.000 C 
ATOM     22  O   UNL     1       0.595  13.139  21.457  0.00  0.00    +0.000 OA
ATOM     23  C   UNL     1      -0.754   9.723  21.166  0.00  0.00    +0.000 C 
ATOM     24  C   UNL     1      -0.294   8.518  22.007  0.00  0.00    +0.000 C 
BRANCH  17  25
ATOM     25  C   UNL     1       1.338   7.533  20.517  0.00  0.00    +0.000 C 
BRANCH  25  26
ATOM     26  C   UNL     1       1.147   6.019  20.511  0.00  0.00    +0.000 C 
BRANCH  26  27
ATOM     27  C   UNL     1       2.486   5.331  20.729  0.00  0.00    +0.000 C 
BRANCH  27  28
ATOM     28  O   UNL     1       2.241   4.048  21.293  0.00  0.00    +0.000 OA
BRANCH  28  30
ATOM     29  C   UNL     1       1.588   2.443  19.668  0.00  0.00    +0.000 C 
ATOM     30  C   UNL     1       1.100   3.431  20.705  0.00  0.00    +0.000 C 
ENDBRANCH  28  30
ENDBRANCH  27  28
ENDBRANCH  26  27
ENDBRANCH  25  26
ENDBRANCH  17  25
ENDBRANCH   1  21
BRANCH  14  31
ATOM     31  C   UNL     1      -3.261  11.315  17.215  0.00  0.00    +0.000 C 
ATOM     32  C   UNL     1      -2.977   9.808  17.485  0.00  0.00    +0.000 C 
ATOM     33  C   UNL     1      -2.472   9.725  16.026  0.00  0.00    +0.000 C 
ATOM     34  C   UNL     1      -3.431  10.892  15.724  0.00  0.00    +0.000 C 
ENDBRANCH  14  31
TORSDOF 7
ENDMDL
MODEL 8
REMARK VINA RESULT:      -5.9      6.376     10.384
REMARK  Name = 
REMARK  9 active torsions:
REMARK  status: ('A' for Active; 'I' for Inactive)
REMARK    1  A    between atoms: C_1  and  C_2
REMARK    2  A    between atoms: C_2  and  O_3
REMARK    3  A    between atoms: O_3  and  C_4
REMARK    4  A    between atoms: C_4  and  C_5
REMARK    5  A    between atoms: C_5  and  C_6
REMARK    6  A    between atoms: C_6  and  N_7
REMARK    7  A    between atoms: C_11  and  C_13
REMARK    8  A    between atoms: C_18  and  C_19
REMARK    9  A    between atoms: N_26  and  C_27
REMARK                            x       y       z     vdW  Elec       q    Type
REMARK                         _______ _______ _______ _____ _____    ______ ____
ROOT
ATOM      1  C   UNL     1       1.891   8.640  19.138  0.00  0.00    +0.000 A 
ATOM      2  C   UNL     1       2.264   7.295  19.316  0.00  0.00    +0.000 A 
ATOM      3  C   UNL     1       3.063   6.635  18.387  0.00  0.00    +0.000 A 
ATOM      4  C   UNL     1       3.651   7.403  17.356  0.00  0.00    +0.000 A 
ATOM      5  C   UNL     1       3.423   8.778  17.266  0.00  0.00    +0.000 A 
ATOM      6  C   UNL     1       2.548   9.419  18.162  0.00  0.00    +0.000 A 
ATOM      7  C   UNL     1       2.381  10.912  18.059  0.00  0.00    +0.000 C 
ATOM      8  N   UNL     1       4.512   6.798  16.410  0.00  0.00    +0.000 N 
ATOM      9  C   UNL     1       4.862   5.463  16.408  0.00  0.00    +0.000 A 
ATOM     10  O   UNL     1       5.631   4.997  15.573  0.00  0.00    +0.000 OA
ATOM     11  C   UNL     1       4.243   4.667  17.440  0.00  0.00    +0.000 A 
ATOM     12  C   UNL     1       4.343   3.306  17.744  0.00  0.00    +0.000 A 
ATOM     13  N   UNL     1       3.575   2.968  18.777  0.00  0.00    +0.000 NA
ATOM     14  N   UNL     1       2.930   4.112  19.112  0.00  0.00    +0.000 N 
ATOM     15  C   UNL     1       3.370   5.201  18.379  0.00  0.00    +0.000 A 
ATOM     16  H   UNL     1       4.948   7.360  15.689  0.00  0.00    +0.000 HD
ENDROOT
BRANCH   1  21
ATOM     17  N   UNL     1      -2.383  11.726  18.515  0.00  0.00    +0.000 NA
ATOM     18  C   UNL     1      -1.934  11.640  19.926  0.00  0.00    +0.000 C 
ATOM     19  C   UNL     1      -1.384  10.265  20.344  0.00  0.00    +0.000 C 
ATOM     20  N   UNL     1      -0.317   9.813  19.444  0.00  0.00    +0.000 N 
ATOM     21  C   UNL     1       0.816   9.209  20.013  0.00  0.00    +0.000 C 
ATOM     22  O   UNL     1       0.973   9.151  21.231  0.00  0.00    +0.000 OA
ATOM     23  C   UNL     1      -0.636   9.955  18.015  0.00  0.00    +0.000 C 
ATOM     24  C   UNL     1      -1.256  11.318  17.655  0.00  0.00    +0.000 C 
BRANCH  17  25
ATOM     25  C   UNL     1      -3.574  10.916  18.219  0.00  0.00    +0.000 C 
BRANCH  25  26
ATOM     26  C   UNL     1      -4.424  11.463  17.075  0.00  0.00    +0.000 C 
BRANCH  26  27
ATOM     27  C   UNL     1      -5.756  11.959  17.618  0.00  0.00    +0.000 C 
BRANCH  27  28
ATOM     28  O   UNL     1      -5.933  11.423  18.924  0.00  0.00    +0.000 OA
BRANCH  28  30
ATOM     29  C   UNL     1      -7.530  10.689  20.522  0.00  0.00    +0.000 C 
ATOM     30  C   UNL     1      -7.241  11.686  19.421  0.00  0.00    +0.000 C 
ENDBRANCH  28  30
ENDBRANCH  27  28
ENDBRANCH  26  27
ENDBRANCH  25  26
ENDBRANCH  17  25
ENDBRANCH   1  21
BRANCH  14  31
ATOM     31  C   UNL     1       1.889   4.107  20.112  0.00  0.00    +0.000 C 
ATOM     32  C   UNL     1       0.972   2.849  20.149  0.00  0.00    +0.000 C 
ATOM     33  C   UNL     1       1.057   2.930  21.690  0.00  0.00    +0.000 C 
ATOM     34  C   UNL     1       2.426   3.606  21.487  0.00  0.00    +0.000 C 
ENDBRANCH  14  31
TORSDOF 7
ENDMDL
MODEL 9
REMARK VINA RESULT:      -5.9      4.372      5.790
REMARK  Name = 
REMARK  9 active torsions:
REMARK  status: ('A' for Active; 'I' for Inactive)
REMARK    1  A    between atoms: C_1  and  C_2
REMARK    2  A    between atoms: C_2  and  O_3
REMARK    3  A    between atoms: O_3  and  C_4
REMARK    4  A    between atoms: C_4  and  C_5
REMARK    5  A    between atoms: C_5  and  C_6
REMARK    6  A    between atoms: C_6  and  N_7
REMARK    7  A    between atoms: C_11  and  C_13
REMARK    8  A    between atoms: C_18  and  C_19
REMARK    9  A    between atoms: N_26  and  C_27
REMARK                            x       y       z     vdW  Elec       q    Type
REMARK                         _______ _______ _______ _____ _____    ______ ____
ROOT
ATOM      1  C   UNL     1      -2.554  13.446  21.615  0.00  0.00    +0.000 A 
ATOM      2  C   UNL     1      -3.715  13.190  20.864  0.00  0.00    +0.000 A 
ATOM      3  C   UNL     1      -4.645  14.192  20.602  0.00  0.00    +0.000 A 
ATOM      4  C   UNL     1      -4.301  15.519  20.943  0.00  0.00    +0.000 A 
ATOM      5  C   UNL     1      -3.073  15.811  21.540  0.00  0.00    +0.000 A 
ATOM      6  C   UNL     1      -2.176  14.781  21.875  0.00  0.00    +0.000 A 
ATOM      7  C   UNL     1      -0.841  15.154  22.463  0.00  0.00    +0.000 C 
ATOM      8  N   UNL     1      -5.184  16.587  20.658  0.00  0.00    +0.000 N 
ATOM      9  C   UNL     1      -6.406  16.449  20.030  0.00  0.00    +0.000 A 
ATOM     10  O   UNL     1      -7.122  17.416  19.789  0.00  0.00    +0.000 OA
ATOM     11  C   UNL     1      -6.777  15.094  19.704  0.00  0.00    +0.000 A 
ATOM     12  C   UNL     1      -7.917  14.569  19.088  0.00  0.00    +0.000 A 
ATOM     13  N   UNL     1      -7.869  13.241  18.999  0.00  0.00    +0.000 NA
ATOM     14  N   UNL     1      -6.710  12.899  19.613  0.00  0.00    +0.000 N 
ATOM     15  C   UNL     1      -5.962  14.004  19.985  0.00  0.00    +0.000 A 
ATOM     16  H   UNL     1      -4.921  17.539  20.884  0.00  0.00    +0.000 HD
ENDROOT
BRANCH   1  21
ATOM     17  N   UNL     1       0.070   9.378  19.437  0.00  0.00    +0.000 NA
ATOM     18  C   UNL     1      -0.207   9.179  20.880  0.00  0.00    +0.000 C 
ATOM     19  C   UNL     1      -0.129  10.458  21.733  0.00  0.00    +0.000 C 
ATOM     20  N   UNL     1      -0.986  11.521  21.193  0.00  0.00    +0.000 N 
ATOM     21  C   UNL     1      -1.739  12.285  22.098  0.00  0.00    +0.000 C 
ATOM     22  O   UNL     1      -1.774  12.017  23.298  0.00  0.00    +0.000 OA
ATOM     23  C   UNL     1      -0.850  11.722  19.743  0.00  0.00    +0.000 C 
ATOM     24  C   UNL     1      -0.856  10.411  18.935  0.00  0.00    +0.000 C 
BRANCH  17  25
ATOM     25  C   UNL     1       1.462   9.750  19.144  0.00  0.00    +0.000 C 
BRANCH  25  26
ATOM     26  C   UNL     1       1.993   9.176  17.833  0.00  0.00    +0.000 C 
BRANCH  26  27
ATOM     27  C   UNL     1       2.842   7.946  18.117  0.00  0.00    +0.000 C 
BRANCH  27  28
ATOM     28  O   UNL     1       2.059   6.791  17.839  0.00  0.00    +0.000 OA
BRANCH  28  30
ATOM     29  C   UNL     1       1.859   4.424  17.851  0.00  0.00    +0.000 C 
ATOM     30  C   UNL     1       2.764   5.596  18.163  0.00  0.00    +0.000 C 
ENDBRANCH  28  30
ENDBRANCH  27  28
ENDBRANCH  26  27
ENDBRANCH  25  26
ENDBRANCH  17  25
ENDBRANCH   1  21
BRANCH  14  31
ATOM     31  C   UNL     1      -6.378  11.514  19.844  0.00  0.00    +0.000 C 
ATOM     32  C   UNL     1      -7.500  10.628  20.462  0.00  0.00    +0.000 C 
ATOM     33  C   UNL     1      -7.059   9.522  19.477  0.00  0.00    +0.000 C 
ATOM     34  C   UNL     1      -6.581  10.660  18.555  0.00  0.00    +0.000 C 
ENDBRANCH  14  31
TORSDOF 7
ENDMDL
