MODEL 1
REMARK VINA RESULT:     -10.1      0.000      0.000
REMARK  Name = 
REMARK  6 active torsions:
REMARK  status: ('A' for Active; 'I' for Inactive)
REMARK    1  A    between atoms: C_1  and  O_2
REMARK    2  A    between atoms: O_2  and  C_3
REMARK    3  A    between atoms: C_6  and  N_7
REMARK    4  A    between atoms: C_8  and  C_10
REMARK    5  A    between atoms: C_10  and  N_11
REMARK    6  A    between atoms: C_23  and  C_24
REMARK                            x       y       z     vdW  Elec       q    Type
REMARK                         _______ _______ _______ _____ _____    ______ ____
ROOT
ATOM      1  N   UNL     1       6.327   5.956  17.810  0.00  0.00    +0.000 NA
ATOM      2  C   UNL     1       5.138   6.390  18.576  0.00  0.00    +0.000 C 
ATOM      3  C   UNL     1       3.753   5.964  17.898  0.00  0.00    +0.000 C 
ATOM      4  C   UNL     1       3.726   4.447  17.774  0.00  0.00    +0.000 A 
ATOM      5  C   UNL     1       4.992   3.879  17.895  0.00  0.00    +0.000 A 
ATOM      6  N   UNL     1       4.871   3.239  19.140  0.00  0.00    +0.000 N 
ATOM      7  C   UNL     1       3.530   3.160  19.521  0.00  0.00    +0.000 A 
ATOM      8  C   UNL     1       2.887   2.838  20.728  0.00  0.00    +0.000 A 
ATOM      9  C   UNL     1       1.499   2.628  20.689  0.00  0.00    +0.000 A 
ATOM     10  C   UNL     1       0.797   2.722  19.491  0.00  0.00    +0.000 A 
ATOM     11  C   UNL     1       1.426   3.245  18.349  0.00  0.00    +0.000 A 
ATOM     12  C   UNL     1       2.808   3.541  18.395  0.00  0.00    +0.000 A 
ATOM     13  C   UNL     1       6.301   4.532  17.371  0.00  0.00    +0.000 C 
ATOM     14  H   UNL     1       5.648   3.084  19.763  0.00  0.00    +0.000 HD
ENDROOT
BRANCH  13  15
ATOM     15  C   UNL     1       6.489   4.429  15.815  0.00  0.00    +0.000 A 
ATOM     16  C   UNL     1       5.624   3.673  14.978  0.00  0.00    +0.000 A 
ATOM     17  C   UNL     1       5.740   3.655  13.577  0.00  0.00    +0.000 A 
ATOM     18  C   UNL     1       6.743   4.389  12.960  0.00  0.00    +0.000 A 
ATOM     19  C   UNL     1       7.615   5.140  13.746  0.00  0.00    +0.000 A 
ATOM     20  C   UNL     1       7.482   5.171  15.150  0.00  0.00    +0.000 A 
ENDBRANCH  13  15
BRANCH   1  21
ATOM     21  C   UNL     1       7.653   6.512  18.203  0.00  0.00    +0.000 C 
BRANCH  21  23
ATOM     22  N   UNL     1       8.784   8.594  18.942  0.00  0.00    +0.000 N 
ATOM     23  C   UNL     1       7.925   8.033  17.982  0.00  0.00    +0.000 C 
ATOM     24  O   UNL     1       7.349   8.643  17.088  0.00  0.00    +0.000 OA
ATOM     25  H   UNL     1       9.116   7.984  19.677  0.00  0.00    +0.000 HD
BRANCH  22  29
ATOM     26  C   UNL     1       9.951  12.716  19.323  0.00  0.00    +0.000 A 
ATOM     27  C   UNL     1       9.871  12.109  18.071  0.00  0.00    +0.000 A 
ATOM     28  C   UNL     1       9.494  10.758  17.932  0.00  0.00    +0.000 A 
ATOM     29  C   UNL     1       9.200   9.961  19.037  0.00  0.00    +0.000 A 
ATOM     30  C   UNL     1       9.336  10.567  20.305  0.00  0.00    +0.000 A 
ATOM     31  C   UNL     1       9.696  11.936  20.449  0.00  0.00    +0.000 A 
BRANCH  26  33
ATOM     32  C   UNL     1      10.571  14.632  18.043  0.00  0.00    +0.000 C 
ATOM     33  O   UNL     1      10.343  14.025  19.311  0.00  0.00    +0.000 OA
ENDBRANCH  26  33
ENDBRANCH  22  29
ENDBRANCH  21  23
ENDBRANCH   1  21
TORSDOF 5
ENDMDL
MODEL 2
REMARK VINA RESULT:      -9.9      0.470      1.341
REMARK  Name = 
REMARK  6 active torsions:
REMARK  status: ('A' for Active; 'I' for Inactive)
REMARK    1  A    between atoms: C_1  and  O_2
REMARK    2  A    between atoms: O_2  and  C_3
REMARK    3  A    between atoms: C_6  and  N_7
REMARK    4  A    between atoms: C_8  and  C_10
REMARK    5  A    between atoms: C_10  and  N_11
REMARK    6  A    between atoms: C_23  and  C_24
REMARK                            x       y       z     vdW  Elec       q    Type
REMARK                         _______ _______ _______ _____ _____    ______ ____
ROOT
ATOM      1  N   UNL     1       6.340   6.025  17.658  0.00  0.00    +0.000 NA
ATOM      2  C   UNL     1       5.171   6.438  18.465  0.00  0.00    +0.000 C 
ATOM      3  C   UNL     1       3.769   6.033  17.809  0.00  0.00    +0.000 C 
ATOM      4  C   UNL     1       3.737   4.520  17.642  0.00  0.00    +0.000 A 
ATOM      5  C   UNL     1       5.004   3.948  17.715  0.00  0.00    +0.000 A 
ATOM      6  N   UNL     1       4.913   3.272  18.944  0.00  0.00    +0.000 N 
ATOM      7  C   UNL     1       3.581   3.183  19.355  0.00  0.00    +0.000 A 
ATOM      8  C   UNL     1       2.967   2.826  20.568  0.00  0.00    +0.000 A 
ATOM      9  C   UNL     1       1.579   2.619  20.557  0.00  0.00    +0.000 A 
ATOM     10  C   UNL     1       0.848   2.749  19.380  0.00  0.00    +0.000 A 
ATOM     11  C   UNL     1       1.450   3.303  18.239  0.00  0.00    +0.000 A 
ATOM     12  C   UNL     1       2.833   3.597  18.260  0.00  0.00    +0.000 A 
ATOM     13  C   UNL     1       6.301   4.614  17.179  0.00  0.00    +0.000 C 
ATOM     14  H   UNL     1       5.705   3.098  19.543  0.00  0.00    +0.000 HD
ENDROOT
BRANCH  13  15
ATOM     15  C   UNL     1       6.451   4.557  15.616  0.00  0.00    +0.000 A 
ATOM     16  C   UNL     1       7.484   5.233  14.912  0.00  0.00    +0.000 A 
ATOM     17  C   UNL     1       7.669   5.107  13.523  0.00  0.00    +0.000 A 
ATOM     18  C   UNL     1       6.811   4.305  12.784  0.00  0.00    +0.000 A 
ATOM     19  C   UNL     1       5.783   3.629  13.438  0.00  0.00    +0.000 A 
ATOM     20  C   UNL     1       5.613   3.742  14.833  0.00  0.00    +0.000 A 
ENDBRANCH  13  15
BRANCH   1  21
ATOM     21  C   UNL     1       7.676   6.568  18.034  0.00  0.00    +0.000 C 
BRANCH  21  23
ATOM     22  N   UNL     1       8.813   8.597  18.902  0.00  0.00    +0.000 N 
ATOM     23  C   UNL     1       7.915   8.108  17.938  0.00  0.00    +0.000 C 
ATOM     24  O   UNL     1       7.288   8.784  17.131  0.00  0.00    +0.000 OA
ATOM     25  H   UNL     1       9.189   7.931  19.563  0.00  0.00    +0.000 HD
BRANCH  22  29
ATOM     26  C   UNL     1      10.103  12.669  19.406  0.00  0.00    +0.000 A 
ATOM     27  C   UNL     1       9.709  11.903  20.502  0.00  0.00    +0.000 A 
ATOM     28  C   UNL     1       9.280  10.569  20.351  0.00  0.00    +0.000 A 
ATOM     29  C   UNL     1       9.213   9.957  19.100  0.00  0.00    +0.000 A 
ATOM     30  C   UNL     1       9.561  10.756  17.989  0.00  0.00    +0.000 A 
ATOM     31  C   UNL     1      10.014  12.096  18.139  0.00  0.00    +0.000 A 
BRANCH  26  33
ATOM     32  C   UNL     1      10.329  14.390  21.042  0.00  0.00    +0.000 C 
ATOM     33  O   UNL     1      10.479  13.950  19.697  0.00  0.00    +0.000 OA
ENDBRANCH  26  33
ENDBRANCH  22  29
ENDBRANCH  21  23
ENDBRANCH   1  21
TORSDOF 5
ENDMDL
MODEL 3
REMARK VINA RESULT:      -8.5      0.829      1.207
REMARK  Name = 
REMARK  6 active torsions:
REMARK  status: ('A' for Active; 'I' for Inactive)
REMARK    1  A    between atoms: C_1  and  O_2
REMARK    2  A    between atoms: O_2  and  C_3
REMARK    3  A    between atoms: C_6  and  N_7
REMARK    4  A    between atoms: C_8  and  C_10
REMARK    5  A    between atoms: C_10  and  N_11
REMARK    6  A    between atoms: C_23  and  C_24
REMARK                            x       y       z     vdW  Elec       q    Type
REMARK                         _______ _______ _______ _____ _____    ______ ____
ROOT
ATOM      1  N   UNL     1       6.220   5.870  18.248  0.00  0.00    +0.000 NA
ATOM      2  C   UNL     1       5.183   6.280  19.220  0.00  0.00    +0.000 C 
ATOM      3  C   UNL     1       3.691   5.995  18.718  0.00  0.00    +0.000 C 
ATOM      4  C   UNL     1       3.551   4.502  18.455  0.00  0.00    +0.000 A 
ATOM      5  C   UNL     1       4.782   3.863  18.331  0.00  0.00    +0.000 A 
ATOM      6  N   UNL     1       4.800   3.104  19.514  0.00  0.00    +0.000 N 
ATOM      7  C   UNL     1       3.525   3.051  20.080  0.00  0.00    +0.000 A 
ATOM      8  C   UNL     1       3.042   2.637  21.334  0.00  0.00    +0.000 A 
ATOM      9  C   UNL     1       1.653   2.500  21.482  0.00  0.00    +0.000 A 
ATOM     10  C   UNL     1       0.794   2.753  20.416  0.00  0.00    +0.000 A 
ATOM     11  C   UNL     1       1.285   3.359  19.249  0.00  0.00    +0.000 A 
ATOM     12  C   UNL     1       2.676   3.582  19.117  0.00  0.00    +0.000 A 
ATOM     13  C   UNL     1       6.042   4.502  17.684  0.00  0.00    +0.000 C 
ATOM     14  H   UNL     1       5.648   2.847  19.997  0.00  0.00    +0.000 HD
ENDROOT
BRANCH  13  15
ATOM     15  C   UNL     1       5.998   4.553  16.115  0.00  0.00    +0.000 A 
ATOM     16  C   UNL     1       6.330   3.440  15.294  0.00  0.00    +0.000 A 
ATOM     17  C   UNL     1       6.203   3.461  13.894  0.00  0.00    +0.000 A 
ATOM     18  C   UNL     1       5.750   4.608  13.260  0.00  0.00    +0.000 A 
ATOM     19  C   UNL     1       5.419   5.722  14.029  0.00  0.00    +0.000 A 
ATOM     20  C   UNL     1       5.527   5.691  15.435  0.00  0.00    +0.000 A 
ENDBRANCH  13  15
BRANCH   1  21
ATOM     21  C   UNL     1       7.621   6.317  18.491  0.00  0.00    +0.000 C 
BRANCH  21  23
ATOM     22  N   UNL     1       8.683   8.465  19.140  0.00  0.00    +0.000 N 
ATOM     23  C   UNL     1       8.021   7.777  18.109  0.00  0.00    +0.000 C 
ATOM     24  O   UNL     1       7.689   8.249  17.027  0.00  0.00    +0.000 OA
ATOM     25  H   UNL     1       8.812   7.974  20.014  0.00  0.00    +0.000 HD
BRANCH  22  29
ATOM     26  C   UNL     1      10.121  12.514  18.959  0.00  0.00    +0.000 A 
ATOM     27  C   UNL     1      10.132  11.805  20.159  0.00  0.00    +0.000 A 
ATOM     28  C   UNL     1       9.661  10.479  20.233  0.00  0.00    +0.000 A 
ATOM     29  C   UNL     1       9.145   9.820  19.118  0.00  0.00    +0.000 A 
ATOM     30  C   UNL     1       9.086  10.564  17.919  0.00  0.00    +0.000 A 
ATOM     31  C   UNL     1       9.581  11.895  17.834  0.00  0.00    +0.000 A 
BRANCH  26  33
ATOM     32  C   UNL     1      12.000  13.970  19.158  0.00  0.00    +0.000 C 
ATOM     33  O   UNL     1      10.593  13.794  19.036  0.00  0.00    +0.000 OA
ENDBRANCH  26  33
ENDBRANCH  22  29
ENDBRANCH  21  23
ENDBRANCH   1  21
TORSDOF 5
ENDMDL
MODEL 4
REMARK VINA RESULT:      -8.4      1.155      1.754
REMARK  Name = 
REMARK  6 active torsions:
REMARK  status: ('A' for Active; 'I' for Inactive)
REMARK    1  A    between atoms: C_1  and  O_2
REMARK    2  A    between atoms: O_2  and  C_3
REMARK    3  A    between atoms: C_6  and  N_7
REMARK    4  A    between atoms: C_8  and  C_10
REMARK    5  A    between atoms: C_10  and  N_11
REMARK    6  A    between atoms: C_23  and  C_24
REMARK                            x       y       z     vdW  Elec       q    Type
REMARK                         _______ _______ _______ _____ _____    ______ ____
ROOT
ATOM      1  N   UNL     1       6.414   6.277  16.570  0.00  0.00    +0.000 NA
ATOM      2  C   UNL     1       5.352   6.836  17.435  0.00  0.00    +0.000 C 
ATOM      3  C   UNL     1       3.880   6.367  17.019  0.00  0.00    +0.000 C 
ATOM      4  C   UNL     1       3.822   4.847  17.095  0.00  0.00    +0.000 A 
ATOM      5  C   UNL     1       5.086   4.264  17.108  0.00  0.00    +0.000 A 
ATOM      6  N   UNL     1       5.139   3.789  18.430  0.00  0.00    +0.000 N 
ATOM      7  C   UNL     1       3.866   3.795  19.003  0.00  0.00    +0.000 A 
ATOM      8  C   UNL     1       3.399   3.645  20.320  0.00  0.00    +0.000 A 
ATOM      9  C   UNL     1       2.019   3.470  20.504  0.00  0.00    +0.000 A 
ATOM     10  C   UNL     1       1.153   3.432  19.415  0.00  0.00    +0.000 A 
ATOM     11  C   UNL     1       1.617   3.790  18.139  0.00  0.00    +0.000 A 
ATOM     12  C   UNL     1       2.994   4.052  17.951  0.00  0.00    +0.000 A 
ATOM     13  C   UNL     1       6.313   4.810  16.326  0.00  0.00    +0.000 C 
ATOM     14  H   UNL     1       5.997   3.692  18.952  0.00  0.00    +0.000 HD
ENDROOT
BRANCH  13  15
ATOM     15  C   UNL     1       6.275   4.508  14.785  0.00  0.00    +0.000 A 
ATOM     16  C   UNL     1       7.325   4.872  13.898  0.00  0.00    +0.000 A 
ATOM     17  C   UNL     1       7.329   4.521  12.537  0.00  0.00    +0.000 A 
ATOM     18  C   UNL     1       6.268   3.800  12.008  0.00  0.00    +0.000 A 
ATOM     19  C   UNL     1       5.218   3.427  12.844  0.00  0.00    +0.000 A 
ATOM     20  C   UNL     1       5.227   3.763  14.214  0.00  0.00    +0.000 A 
ENDBRANCH  13  15
BRANCH   1  21
ATOM     21  C   UNL     1       7.788   6.841  16.698  0.00  0.00    +0.000 C 
BRANCH  21  23
ATOM     22  N   UNL     1       8.386   9.107  17.518  0.00  0.00    +0.000 N 
ATOM     23  C   UNL     1       8.104   7.785  17.901  0.00  0.00    +0.000 C 
ATOM     24  O   UNL     1       8.164   7.337  19.041  0.00  0.00    +0.000 OA
ATOM     25  H   UNL     1       8.384   9.310  16.528  0.00  0.00    +0.000 HD
BRANCH  22  29
ATOM     26  C   UNL     1       9.513  12.442  19.988  0.00  0.00    +0.000 A 
ATOM     27  C   UNL     1       9.594  11.137  20.469  0.00  0.00    +0.000 A 
ATOM     28  C   UNL     1       9.225  10.035  19.672  0.00  0.00    +0.000 A 
ATOM     29  C   UNL     1       8.745  10.197  18.373  0.00  0.00    +0.000 A 
ATOM     30  C   UNL     1       8.613  11.525  17.912  0.00  0.00    +0.000 A 
ATOM     31  C   UNL     1       9.005  12.639  18.705  0.00  0.00    +0.000 A 
BRANCH  26  33
ATOM     32  C   UNL     1       8.866  14.017  21.660  0.00  0.00    +0.000 C 
ATOM     33  O   UNL     1       9.888  13.413  20.873  0.00  0.00    +0.000 OA
ENDBRANCH  26  33
ENDBRANCH  22  29
ENDBRANCH  21  23
ENDBRANCH   1  21
TORSDOF 5
ENDMDL
MODEL 5
REMARK VINA RESULT:      -8.4      1.799      4.802
REMARK  Name = 
REMARK  6 active torsions:
REMARK  status: ('A' for Active; 'I' for Inactive)
REMARK    1  A    between atoms: C_1  and  O_2
REMARK    2  A    between atoms: O_2  and  C_3
REMARK    3  A    between atoms: C_6  and  N_7
REMARK    4  A    between atoms: C_8  and  C_10
REMARK    5  A    between atoms: C_10  and  N_11
REMARK    6  A    between atoms: C_23  and  C_24
REMARK                            x       y       z     vdW  Elec       q    Type
REMARK                         _______ _______ _______ _____ _____    ______ ____
ROOT
ATOM      1  N   UNL     1       6.904   5.727  17.812  0.00  0.00    +0.000 NA
ATOM      2  C   UNL     1       7.482   4.522  17.177  0.00  0.00    +0.000 C 
ATOM      3  C   UNL     1       6.388   3.572  16.498  0.00  0.00    +0.000 C 
ATOM      4  C   UNL     1       5.649   4.375  15.437  0.00  0.00    +0.000 A 
ATOM      5  C   UNL     1       5.816   5.749  15.594  0.00  0.00    +0.000 A 
ATOM      6  N   UNL     1       6.623   6.041  14.481  0.00  0.00    +0.000 N 
ATOM      7  C   UNL     1       6.615   4.976  13.578  0.00  0.00    +0.000 A 
ATOM      8  C   UNL     1       7.397   4.656  12.456  0.00  0.00    +0.000 A 
ATOM      9  C   UNL     1       6.955   3.609  11.632  0.00  0.00    +0.000 A 
ATOM     10  C   UNL     1       5.774   2.929  11.916  0.00  0.00    +0.000 A 
ATOM     11  C   UNL     1       5.128   3.130  13.147  0.00  0.00    +0.000 A 
ATOM     12  C   UNL     1       5.612   4.125  14.028  0.00  0.00    +0.000 A 
ATOM     13  C   UNL     1       5.927   6.469  16.967  0.00  0.00    +0.000 C 
ATOM     14  H   UNL     1       7.289   6.798  14.461  0.00  0.00    +0.000 HD
ENDROOT
BRANCH  13  15
ATOM     15  C   UNL     1       4.556   6.628  17.717  0.00  0.00    +0.000 A 
ATOM     16  C   UNL     1       4.159   5.786  18.792  0.00  0.00    +0.000 A 
ATOM     17  C   UNL     1       2.973   5.987  19.520  0.00  0.00    +0.000 A 
ATOM     18  C   UNL     1       2.130   7.037  19.188  0.00  0.00    +0.000 A 
ATOM     19  C   UNL     1       2.482   7.883  18.138  0.00  0.00    +0.000 A 
ATOM     20  C   UNL     1       3.683   7.691  17.423  0.00  0.00    +0.000 A 
ENDBRANCH  13  15
BRANCH   1  21
ATOM     21  C   UNL     1       7.788   6.545  18.690  0.00  0.00    +0.000 C 
BRANCH  21  23
ATOM     22  N   UNL     1       8.859   8.720  19.225  0.00  0.00    +0.000 N 
ATOM     23  C   UNL     1       8.137   8.003  18.256  0.00  0.00    +0.000 C 
ATOM     24  O   UNL     1       7.722   8.449  17.192  0.00  0.00    +0.000 OA
ATOM     25  H   UNL     1       9.057   8.246  20.096  0.00  0.00    +0.000 HD
BRANCH  22  29
ATOM     26  C   UNL     1      10.090  12.838  19.074  0.00  0.00    +0.000 A 
ATOM     27  C   UNL     1      10.067  12.056  17.921  0.00  0.00    +0.000 A 
ATOM     28  C   UNL     1       9.670  10.704  17.956  0.00  0.00    +0.000 A 
ATOM     29  C   UNL     1       9.298  10.080  19.146  0.00  0.00    +0.000 A 
ATOM     30  C   UNL     1       9.377  10.863  20.319  0.00  0.00    +0.000 A 
ATOM     31  C   UNL     1       9.757  12.233  20.285  0.00  0.00    +0.000 A 
BRANCH  26  33
ATOM     32  C   UNL     1       9.601  15.037  18.290  0.00  0.00    +0.000 C 
ATOM     33  O   UNL     1      10.511  14.125  18.896  0.00  0.00    +0.000 OA
ENDBRANCH  26  33
ENDBRANCH  22  29
ENDBRANCH  21  23
ENDBRANCH   1  21
TORSDOF 5
ENDMDL
MODEL 6
REMARK VINA RESULT:      -8.3      7.168     10.421
REMARK  Name = 
REMARK  6 active torsions:
REMARK  status: ('A' for Active; 'I' for Inactive)
REMARK    1  A    between atoms: C_1  and  O_2
REMARK    2  A    between atoms: O_2  and  C_3
REMARK    3  A    between atoms: C_6  and  N_7
REMARK    4  A    between atoms: C_8  and  C_10
REMARK    5  A    between atoms: C_10  and  N_11
REMARK    6  A    between atoms: C_23  and  C_24
REMARK                            x       y       z     vdW  Elec       q    Type
REMARK                         _______ _______ _______ _____ _____    ______ ____
ROOT
ATOM      1  N   UNL     1       0.739  10.854  19.099  0.00  0.00    +0.000 NA
ATOM      2  C   UNL     1       1.771  11.914  19.073  0.00  0.00    +0.000 C 
ATOM      3  C   UNL     1       1.256  13.290  18.439  0.00  0.00    +0.000 C 
ATOM      4  C   UNL     1       0.073  13.782  19.261  0.00  0.00    +0.000 A 
ATOM      5  C   UNL     1      -0.484  12.778  20.049  0.00  0.00    +0.000 A 
ATOM      6  N   UNL     1      -0.107  13.215  21.330  0.00  0.00    +0.000 N 
ATOM      7  C   UNL     1       0.323  14.543  21.287  0.00  0.00    +0.000 A 
ATOM      8  C   UNL     1       1.000  15.369  22.201  0.00  0.00    +0.000 A 
ATOM      9  C   UNL     1       1.065  16.741  21.911  0.00  0.00    +0.000 A 
ATOM     10  C   UNL     1       0.466  17.258  20.766  0.00  0.00    +0.000 A 
ATOM     11  C   UNL     1      -0.019  16.388  19.776  0.00  0.00    +0.000 A 
ATOM     12  C   UNL     1      -0.016  14.994  20.017  0.00  0.00    +0.000 A 
ATOM     13  C   UNL     1      -0.585  11.285  19.630  0.00  0.00    +0.000 C 
ATOM     14  H   UNL     1       0.055  12.591  22.106  0.00  0.00    +0.000 HD
ENDROOT
BRANCH  13  15
ATOM     15  C   UNL     1      -1.722  10.989  18.587  0.00  0.00    +0.000 A 
ATOM     16  C   UNL     1      -2.989  11.633  18.619  0.00  0.00    +0.000 A 
ATOM     17  C   UNL     1      -3.971  11.433  17.633  0.00  0.00    +0.000 A 
ATOM     18  C   UNL     1      -3.723  10.565  16.580  0.00  0.00    +0.000 A 
ATOM     19  C   UNL     1      -2.494   9.911  16.516  0.00  0.00    +0.000 A 
ATOM     20  C   UNL     1      -1.504  10.130  17.496  0.00  0.00    +0.000 A 
ENDBRANCH  13  15
BRANCH   1  21
ATOM     21  C   UNL     1       1.171   9.465  19.425  0.00  0.00    +0.000 C 
BRANCH  21  23
ATOM     22  N   UNL     1       2.494   7.454  18.819  0.00  0.00    +0.000 N 
ATOM     23  C   UNL     1       1.899   8.628  18.327  0.00  0.00    +0.000 C 
ATOM     24  O   UNL     1       1.979   9.048  17.177  0.00  0.00    +0.000 OA
ATOM     25  H   UNL     1       2.419   7.280  19.812  0.00  0.00    +0.000 HD
BRANCH  22  29
ATOM     26  C   UNL     1       4.766   4.491  16.685  0.00  0.00    +0.000 A 
ATOM     27  C   UNL     1       5.182   5.820  16.721  0.00  0.00    +0.000 A 
ATOM     28  C   UNL     1       4.445   6.802  17.413  0.00  0.00    +0.000 A 
ATOM     29  C   UNL     1       3.259   6.496  18.079  0.00  0.00    +0.000 A 
ATOM     30  C   UNL     1       2.815   5.158  17.991  0.00  0.00    +0.000 A 
ATOM     31  C   UNL     1       3.566   4.160  17.312  0.00  0.00    +0.000 A 
BRANCH  26  33
ATOM     32  C   UNL     1       6.099   4.139  14.738  0.00  0.00    +0.000 C 
ATOM     33  O   UNL     1       5.567   3.650  15.964  0.00  0.00    +0.000 OA
ENDBRANCH  26  33
ENDBRANCH  22  29
ENDBRANCH  21  23
ENDBRANCH   1  21
TORSDOF 5
ENDMDL
MODEL 7
REMARK VINA RESULT:      -8.2      7.327     10.487
REMARK  Name = 
REMARK  6 active torsions:
REMARK  status: ('A' for Active; 'I' for Inactive)
REMARK    1  A    between atoms: C_1  and  O_2
REMARK    2  A    between atoms: O_2  and  C_3
REMARK    3  A    between atoms: C_6  and  N_7
REMARK    4  A    between atoms: C_8  and  C_10
REMARK    5  A    between atoms: C_10  and  N_11
REMARK    6  A    between atoms: C_23  and  C_24
REMARK                            x       y       z     vdW  Elec       q    Type
REMARK                         _______ _______ _______ _____ _____    ______ ____
ROOT
ATOM      1  N   UNL     1       0.607  10.962  19.070  0.00  0.00    +0.000 NA
ATOM      2  C   UNL     1       1.615  12.042  19.149  0.00  0.00    +0.000 C 
ATOM      3  C   UNL     1       1.128  13.418  18.493  0.00  0.00    +0.000 C 
ATOM      4  C   UNL     1      -0.132  13.873  19.215  0.00  0.00    +0.000 A 
ATOM      5  C   UNL     1      -0.735  12.846  19.937  0.00  0.00    +0.000 A 
ATOM      6  N   UNL     1      -0.480  13.270  21.252  0.00  0.00    +0.000 N 
ATOM      7  C   UNL     1      -0.076  14.606  21.266  0.00  0.00    +0.000 A 
ATOM      8  C   UNL     1       0.501  15.431  22.247  0.00  0.00    +0.000 A 
ATOM      9  C   UNL     1       0.563  16.808  21.984  0.00  0.00    +0.000 A 
ATOM     10  C   UNL     1       0.055  17.331  20.799  0.00  0.00    +0.000 A 
ATOM     11  C   UNL     1      -0.324  16.469  19.757  0.00  0.00    +0.000 A 
ATOM     12  C   UNL     1      -0.312  15.071  19.977  0.00  0.00    +0.000 A 
ATOM     13  C   UNL     1      -0.768  11.359  19.489  0.00  0.00    +0.000 C 
ATOM     14  H   UNL     1      -0.373  12.636  22.030  0.00  0.00    +0.000 HD
ENDROOT
BRANCH  13  15
ATOM     15  C   UNL     1      -1.802  11.057  18.347  0.00  0.00    +0.000 A 
ATOM     16  C   UNL     1      -1.572  10.094  17.326  0.00  0.00    +0.000 A 
ATOM     17  C   UNL     1      -2.536   9.763  16.358  0.00  0.00    +0.000 A 
ATOM     18  C   UNL     1      -3.769  10.398  16.369  0.00  0.00    +0.000 A 
ATOM     19  C   UNL     1      -4.033  11.351  17.350  0.00  0.00    +0.000 A 
ATOM     20  C   UNL     1      -3.070  11.667  18.332  0.00  0.00    +0.000 A 
ENDBRANCH  13  15
BRANCH   1  21
ATOM     21  C   UNL     1       1.038   9.577  19.412  0.00  0.00    +0.000 C 
BRANCH  21  23
ATOM     22  N   UNL     1       2.329   7.535  18.839  0.00  0.00    +0.000 N 
ATOM     23  C   UNL     1       1.820   8.748  18.345  0.00  0.00    +0.000 C 
ATOM     24  O   UNL     1       2.008   9.203  17.222  0.00  0.00    +0.000 OA
ATOM     25  H   UNL     1       2.168   7.332  19.816  0.00  0.00    +0.000 HD
BRANCH  22  29
ATOM     26  C   UNL     1       4.709   4.730  16.612  0.00  0.00    +0.000 A 
ATOM     27  C   UNL     1       3.572   4.313  17.303  0.00  0.00    +0.000 A 
ATOM     28  C   UNL     1       2.786   5.221  18.040  0.00  0.00    +0.000 A 
ATOM     29  C   UNL     1       3.114   6.573  18.128  0.00  0.00    +0.000 A 
ATOM     30  C   UNL     1       4.297   6.978  17.471  0.00  0.00    +0.000 A 
ATOM     31  C   UNL     1       5.082   6.069  16.709  0.00  0.00    +0.000 A 
BRANCH  26  33
ATOM     32  C   UNL     1       6.219   4.127  14.866  0.00  0.00    +0.000 C 
ATOM     33  O   UNL     1       5.385   3.742  15.953  0.00  0.00    +0.000 OA
ENDBRANCH  26  33
ENDBRANCH  22  29
ENDBRANCH  21  23
ENDBRANCH   1  21
TORSDOF 5
ENDMDL
MODEL 8
REMARK VINA RESULT:      -8.1      8.015     11.214
REMARK  Name = 
REMARK  6 active torsions:
REMARK  status: ('A' for Active; 'I' for Inactive)
REMARK    1  A    between atoms: C_1  and  O_2
REMARK    2  A    between atoms: O_2  and  C_3
REMARK    3  A    between atoms: C_6  and  N_7
REMARK    4  A    between atoms: C_8  and  C_10
REMARK    5  A    between atoms: C_10  and  N_11
REMARK    6  A    between atoms: C_23  and  C_24
REMARK                            x       y       z     vdW  Elec       q    Type
REMARK                         _______ _______ _______ _____ _____    ______ ____
ROOT
ATOM      1  N   UNL     1      -0.193  11.551  20.590  0.00  0.00    +0.000 NA
ATOM      2  C   UNL     1       0.940  12.501  20.625  0.00  0.00    +0.000 C 
ATOM      3  C   UNL     1       1.071  13.385  19.297  0.00  0.00    +0.000 C 
ATOM      4  C   UNL     1      -0.220  14.172  19.116  0.00  0.00    +0.000 A 
ATOM      5  C   UNL     1      -1.271  13.653  19.867  0.00  0.00    +0.000 A 
ATOM      6  N   UNL     1      -1.426  14.664  20.830  0.00  0.00    +0.000 N 
ATOM      7  C   UNL     1      -0.750  15.821  20.437  0.00  0.00    +0.000 A 
ATOM      8  C   UNL     1      -0.397  17.007  21.104  0.00  0.00    +0.000 A 
ATOM      9  C   UNL     1       0.082  18.072  20.325  0.00  0.00    +0.000 A 
ATOM     10  C   UNL     1       0.187  17.954  18.942  0.00  0.00    +0.000 A 
ATOM     11  C   UNL     1       0.025  16.700  18.332  0.00  0.00    +0.000 A 
ATOM     12  C   UNL     1      -0.377  15.595  19.117  0.00  0.00    +0.000 A 
ATOM     13  C   UNL     1      -1.489  12.140  20.146  0.00  0.00    +0.000 C 
ATOM     14  H   UNL     1      -1.767  14.496  21.764  0.00  0.00    +0.000 HD
ENDROOT
BRANCH  13  15
ATOM     15  C   UNL     1      -2.070  11.341  18.925  0.00  0.00    +0.000 A 
ATOM     16  C   UNL     1      -3.392  11.527  18.436  0.00  0.00    +0.000 A 
ATOM     17  C   UNL     1      -3.879  10.877  17.288  0.00  0.00    +0.000 A 
ATOM     18  C   UNL     1      -3.059  10.001  16.593  0.00  0.00    +0.000 A 
ATOM     19  C   UNL     1      -1.757   9.788  17.043  0.00  0.00    +0.000 A 
ATOM     20  C   UNL     1      -1.266  10.458  18.183  0.00  0.00    +0.000 A 
ENDBRANCH  13  15
BRANCH   1  21
ATOM     21  C   UNL     1      -0.261  10.505  21.650  0.00  0.00    +0.000 C 
BRANCH  21  23
ATOM     22  N   UNL     1       1.251   8.888  20.527  0.00  0.00    +0.000 N 
ATOM     23  C   UNL     1       0.066   9.027  21.269  0.00  0.00    +0.000 C 
ATOM     24  O   UNL     1      -0.718   8.127  21.547  0.00  0.00    +0.000 OA
ATOM     25  H   UNL     1       1.753   9.734  20.296  0.00  0.00    +0.000 HD
BRANCH  22  29
ATOM     26  C   UNL     1       2.863   5.279  18.832  0.00  0.00    +0.000 A 
ATOM     27  C   UNL     1       2.382   5.301  20.140  0.00  0.00    +0.000 A 
ATOM     28  C   UNL     1       1.855   6.478  20.709  0.00  0.00    +0.000 A 
ATOM     29  C   UNL     1       1.804   7.677  20.000  0.00  0.00    +0.000 A 
ATOM     30  C   UNL     1       2.344   7.660  18.695  0.00  0.00    +0.000 A 
ATOM     31  C   UNL     1       2.858   6.470  18.109  0.00  0.00    +0.000 A 
BRANCH  26  33
ATOM     32  C   UNL     1       4.372   3.470  19.213  0.00  0.00    +0.000 C 
ATOM     33  O   UNL     1       3.359   4.076  18.415  0.00  0.00    +0.000 OA
ENDBRANCH  26  33
ENDBRANCH  22  29
ENDBRANCH  21  23
ENDBRANCH   1  21
TORSDOF 5
ENDMDL
MODEL 9
REMARK VINA RESULT:      -8.0      7.570     10.484
REMARK  Name = 
REMARK  6 active torsions:
REMARK  status: ('A' for Active; 'I' for Inactive)
REMARK    1  A    between atoms: C_1  and  O_2
REMARK    2  A    between atoms: O_2  and  C_3
REMARK    3  A    between atoms: C_6  and  N_7
REMARK    4  A    between atoms: C_8  and  C_10
REMARK    5  A    between atoms: C_10  and  N_11
REMARK    6  A    between atoms: C_23  and  C_24
REMARK                            x       y       z     vdW  Elec       q    Type
REMARK                         _______ _______ _______ _____ _____    ______ ____
ROOT
ATOM      1  N   UNL     1       0.331  10.978  19.262  0.00  0.00    +0.000 NA
ATOM      2  C   UNL     1       1.239  12.131  19.446  0.00  0.00    +0.000 C 
ATOM      3  C   UNL     1       0.667  13.496  18.838  0.00  0.00    +0.000 C 
ATOM      4  C   UNL     1      -0.658  13.806  19.520  0.00  0.00    +0.000 A 
ATOM      5  C   UNL     1      -1.203  12.695  20.158  0.00  0.00    +0.000 A 
ATOM      6  N   UNL     1      -1.043  13.064  21.505  0.00  0.00    +0.000 N 
ATOM      7  C   UNL     1      -0.755  14.427  21.606  0.00  0.00    +0.000 A 
ATOM      8  C   UNL     1      -0.294  15.241  22.656  0.00  0.00    +0.000 A 
ATOM      9  C   UNL     1      -0.338  16.631  22.467  0.00  0.00    +0.000 A 
ATOM     10  C   UNL     1      -0.835  17.175  21.287  0.00  0.00    +0.000 A 
ATOM     11  C   UNL     1      -1.093  16.343  20.185  0.00  0.00    +0.000 A 
ATOM     12  C   UNL     1      -0.972  14.941  20.334  0.00  0.00    +0.000 A 
ATOM     13  C   UNL     1      -1.090  11.236  19.634  0.00  0.00    +0.000 C 
ATOM     14  H   UNL     1      -0.918  12.400  22.253  0.00  0.00    +0.000 HD
ENDROOT
BRANCH  13  15
ATOM     15  C   UNL     1      -2.043  10.914  18.428  0.00  0.00    +0.000 A 
ATOM     16  C   UNL     1      -3.327  11.508  18.276  0.00  0.00    +0.000 A 
ATOM     17  C   UNL     1      -4.140  11.286  17.151  0.00  0.00    +0.000 A 
ATOM     18  C   UNL     1      -3.701  10.447  16.137  0.00  0.00    +0.000 A 
ATOM     19  C   UNL     1      -2.451   9.843  16.251  0.00  0.00    +0.000 A 
ATOM     20  C   UNL     1      -1.629  10.083  17.372  0.00  0.00    +0.000 A 
ENDBRANCH  13  15
BRANCH   1  21
ATOM     21  C   UNL     1       0.862   9.616  19.553  0.00  0.00    +0.000 C 
BRANCH  21  23
ATOM     22  N   UNL     1       2.224   7.652  18.883  0.00  0.00    +0.000 N 
ATOM     23  C   UNL     1       1.721   8.897  18.467  0.00  0.00    +0.000 C 
ATOM     24  O   UNL     1       1.966   9.452  17.401  0.00  0.00    +0.000 OA
ATOM     25  H   UNL     1       2.010   7.360  19.827  0.00  0.00    +0.000 HD
BRANCH  22  29
ATOM     26  C   UNL     1       4.768   5.082  16.554  0.00  0.00    +0.000 A 
ATOM     27  C   UNL     1       3.712   4.559  17.299  0.00  0.00    +0.000 A 
ATOM     28  C   UNL     1       2.874   5.389  18.069  0.00  0.00    +0.000 A 
ATOM     29  C   UNL     1       3.068   6.768  18.138  0.00  0.00    +0.000 A 
ATOM     30  C   UNL     1       4.173   7.284  17.425  0.00  0.00    +0.000 A 
ATOM     31  C   UNL     1       5.009   6.453  16.629  0.00  0.00    +0.000 A 
BRANCH  26  33
ATOM     32  C   UNL     1       6.926   4.253  15.964  0.00  0.00    +0.000 C 
ATOM     33  O   UNL     1       5.508   4.162  15.868  0.00  0.00    +0.000 OA
ENDBRANCH  26  33
ENDBRANCH  22  29
ENDBRANCH  21  23
ENDBRANCH   1  21
TORSDOF 5
ENDMDL
