MODEL 1
REMARK VINA RESULT:      -7.7      0.000      0.000
REMARK  Name = 
REMARK  4 active torsions:
REMARK  status: ('A' for Active; 'I' for Inactive)
REMARK    1  A    between atoms: C_1  and  C_2
REMARK    2  A    between atoms: C_4  and  S_5
REMARK    3  A    between atoms: N_13  and  C_14
REMARK    4  A    between atoms: C_14  and  C_15
REMARK                            x       y       z     vdW  Elec       q    Type
REMARK                         _______ _______ _______ _____ _____    ______ ____
ROOT
ATOM      1  C   UNL     1       2.082   4.509  18.139  0.00  0.00    +0.000 C 
ATOM      2  C   UNL     1       3.371   4.657  17.316  0.00  0.00    +0.000 C 
ATOM      3  C   UNL     1       4.318   3.480  17.554  0.00  0.00    +0.000 C 
ATOM      4  C   UNL     1       4.683   3.438  19.011  0.00  0.00    +0.000 C 
ATOM      5  N   UNL     1       5.376   4.334  19.631  0.00  0.00    +0.000 NA
ATOM      6  C   UNL     1       5.963   5.386  18.901  0.00  0.00    +0.000 A 
ATOM      7  C   UNL     1       7.277   5.695  19.290  0.00  0.00    +0.000 A 
ATOM      8  C   UNL     1       8.028   6.658  18.625  0.00  0.00    +0.000 A 
ATOM      9  C   UNL     1       7.470   7.319  17.544  0.00  0.00    +0.000 A 
ATOM     10  C   UNL     1       6.146   7.058  17.174  0.00  0.00    +0.000 A 
ATOM     11  C   UNL     1       5.338   6.128  17.859  0.00  0.00    +0.000 A 
ATOM     12  N   UNL     1       3.989   5.982  17.519  0.00  0.00    +0.000 N 
ENDROOT
BRANCH   4  13
ATOM     13  S   UNL     1       4.111   2.063  19.948  0.00  0.00    +0.000 S 
ATOM     14  H   UNL     1       2.891   1.954  19.409  0.00  0.00    +0.000 HD
ENDBRANCH   4  13
BRANCH  12  15
ATOM     15  C   UNL     1       3.197   7.179  17.164  0.00  0.00    +0.000 C 
BRANCH  15  16
ATOM     16  C   UNL     1       2.442   7.785  18.336  0.00  0.00    +0.000 A 
ATOM     17  C   UNL     1       2.439   7.207  19.613  0.00  0.00    +0.000 A 
ATOM     18  C   UNL     1       1.721   7.784  20.663  0.00  0.00    +0.000 A 
ATOM     19  C   UNL     1       1.014   8.966  20.459  0.00  0.00    +0.000 A 
ATOM     20  C   UNL     1       1.047   9.585  19.212  0.00  0.00    +0.000 A 
ATOM     21  C   UNL     1       1.763   9.004  18.161  0.00  0.00    +0.000 A 
ENDBRANCH  15  16
ENDBRANCH  12  15
TORSDOF 3
ENDMDL
MODEL 2
REMARK VINA RESULT:      -7.6      0.104      1.081
REMARK  Name = 
REMARK  4 active torsions:
REMARK  status: ('A' for Active; 'I' for Inactive)
REMARK    1  A    between atoms: C_1  and  C_2
REMARK    2  A    between atoms: C_4  and  S_5
REMARK    3  A    between atoms: N_13  and  C_14
REMARK    4  A    between atoms: C_14  and  C_15
REMARK                            x       y       z     vdW  Elec       q    Type
REMARK                         _______ _______ _______ _____ _____    ______ ____
ROOT
ATOM      1  C   UNL     1       2.126   4.565  17.997  0.00  0.00    +0.000 C 
ATOM      2  C   UNL     1       3.441   4.711  17.218  0.00  0.00    +0.000 C 
ATOM      3  C   UNL     1       4.371   3.524  17.473  0.00  0.00    +0.000 C 
ATOM      4  C   UNL     1       4.689   3.465  18.940  0.00  0.00    +0.000 C 
ATOM      5  N   UNL     1       5.370   4.349  19.591  0.00  0.00    +0.000 NA
ATOM      6  C   UNL     1       5.987   5.403  18.891  0.00  0.00    +0.000 A 
ATOM      7  C   UNL     1       7.291   5.698  19.324  0.00  0.00    +0.000 A 
ATOM      8  C   UNL     1       8.070   6.661  18.693  0.00  0.00    +0.000 A 
ATOM      9  C   UNL     1       7.552   7.337  17.601  0.00  0.00    +0.000 A 
ATOM     10  C   UNL     1       6.239   7.090  17.188  0.00  0.00    +0.000 A 
ATOM     11  C   UNL     1       5.402   6.160  17.837  0.00  0.00    +0.000 A 
ATOM     12  N   UNL     1       4.064   6.029  17.453  0.00  0.00    +0.000 N 
ENDROOT
BRANCH   4  13
ATOM     13  S   UNL     1       4.077   2.086  19.846  0.00  0.00    +0.000 S 
ATOM     14  H   UNL     1       5.239   1.651  20.347  0.00  0.00    +0.000 HD
ENDBRANCH   4  13
BRANCH  12  15
ATOM     15  C   UNL     1       3.292   7.236  17.085  0.00  0.00    +0.000 C 
BRANCH  15  16
ATOM     16  C   UNL     1       2.509   7.839  18.240  0.00  0.00    +0.000 A 
ATOM     17  C   UNL     1       1.734   8.999  18.103  0.00  0.00    +0.000 A 
ATOM     18  C   UNL     1       1.041   9.534  19.192  0.00  0.00    +0.000 A 
ATOM     19  C   UNL     1       1.090   8.901  20.430  0.00  0.00    +0.000 A 
ATOM     20  C   UNL     1       1.811   7.718  20.574  0.00  0.00    +0.000 A 
ATOM     21  C   UNL     1       2.507   7.186  19.486  0.00  0.00    +0.000 A 
ENDBRANCH  15  16
ENDBRANCH  12  15
TORSDOF 3
ENDMDL
MODEL 3
REMARK VINA RESULT:      -7.1      2.003      2.535
REMARK  Name = 
REMARK  4 active torsions:
REMARK  status: ('A' for Active; 'I' for Inactive)
REMARK    1  A    between atoms: C_1  and  C_2
REMARK    2  A    between atoms: C_4  and  S_5
REMARK    3  A    between atoms: N_13  and  C_14
REMARK    4  A    between atoms: C_14  and  C_15
REMARK                            x       y       z     vdW  Elec       q    Type
REMARK                         _______ _______ _______ _____ _____    ______ ____
ROOT
ATOM      1  C   UNL     1       1.620   4.747  20.247  0.00  0.00    +0.000 C 
ATOM      2  C   UNL     1       1.725   5.222  18.790  0.00  0.00    +0.000 C 
ATOM      3  C   UNL     1       1.513   4.065  17.813  0.00  0.00    +0.000 C 
ATOM      4  C   UNL     1       2.572   3.027  18.056  0.00  0.00    +0.000 C 
ATOM      5  N   UNL     1       3.836   3.189  17.845  0.00  0.00    +0.000 NA
ATOM      6  C   UNL     1       4.291   4.369  17.225  0.00  0.00    +0.000 A 
ATOM      7  C   UNL     1       5.287   4.163  16.256  0.00  0.00    +0.000 A 
ATOM      8  C   UNL     1       5.794   5.213  15.497  0.00  0.00    +0.000 A 
ATOM      9  C   UNL     1       5.295   6.489  15.693  0.00  0.00    +0.000 A 
ATOM     10  C   UNL     1       4.338   6.718  16.687  0.00  0.00    +0.000 A 
ATOM     11  C   UNL     1       3.841   5.688  17.512  0.00  0.00    +0.000 A 
ATOM     12  N   UNL     1       2.967   5.988  18.562  0.00  0.00    +0.000 N 
ENDROOT
BRANCH   4  13
ATOM     13  S   UNL     1       2.049   1.469  18.685  0.00  0.00    +0.000 S 
ATOM     14  H   UNL     1       2.598   1.556  19.902  0.00  0.00    +0.000 HD
ENDBRANCH   4  13
BRANCH  12  15
ATOM     15  C   UNL     1       3.180   7.216  19.357  0.00  0.00    +0.000 C 
BRANCH  15  16
ATOM     16  C   UNL     1       2.051   8.227  19.238  0.00  0.00    +0.000 A 
ATOM     17  C   UNL     1       1.693   8.821  18.020  0.00  0.00    +0.000 A 
ATOM     18  C   UNL     1       0.659   9.758  17.953  0.00  0.00    +0.000 A 
ATOM     19  C   UNL     1      -0.051  10.099  19.100  0.00  0.00    +0.000 A 
ATOM     20  C   UNL     1       0.255   9.482  20.311  0.00  0.00    +0.000 A 
ATOM     21  C   UNL     1       1.291   8.547  20.378  0.00  0.00    +0.000 A 
ENDBRANCH  15  16
ENDBRANCH  12  15
TORSDOF 3
ENDMDL
MODEL 4
REMARK VINA RESULT:      -7.1      2.012      2.391
REMARK  Name = 
REMARK  4 active torsions:
REMARK  status: ('A' for Active; 'I' for Inactive)
REMARK    1  A    between atoms: C_1  and  C_2
REMARK    2  A    between atoms: C_4  and  S_5
REMARK    3  A    between atoms: N_13  and  C_14
REMARK    4  A    between atoms: C_14  and  C_15
REMARK                            x       y       z     vdW  Elec       q    Type
REMARK                         _______ _______ _______ _____ _____    ______ ____
ROOT
ATOM      1  C   UNL     1       1.665   4.721  20.254  0.00  0.00    +0.000 C 
ATOM      2  C   UNL     1       1.752   5.205  18.799  0.00  0.00    +0.000 C 
ATOM      3  C   UNL     1       1.525   4.055  17.818  0.00  0.00    +0.000 C 
ATOM      4  C   UNL     1       2.585   3.013  18.039  0.00  0.00    +0.000 C 
ATOM      5  N   UNL     1       3.847   3.174  17.813  0.00  0.00    +0.000 NA
ATOM      6  C   UNL     1       4.295   4.357  17.195  0.00  0.00    +0.000 A 
ATOM      7  C   UNL     1       5.278   4.157  16.211  0.00  0.00    +0.000 A 
ATOM      8  C   UNL     1       5.778   5.210  15.452  0.00  0.00    +0.000 A 
ATOM      9  C   UNL     1       5.283   6.486  15.664  0.00  0.00    +0.000 A 
ATOM     10  C   UNL     1       4.340   6.710  16.672  0.00  0.00    +0.000 A 
ATOM     11  C   UNL     1       3.852   5.676  17.496  0.00  0.00    +0.000 A 
ATOM     12  N   UNL     1       2.992   5.970  18.560  0.00  0.00    +0.000 N 
ENDROOT
BRANCH   4  13
ATOM     13  S   UNL     1       2.067   1.452  18.664  0.00  0.00    +0.000 S 
ATOM     14  H   UNL     1       0.992   1.278  17.886  0.00  0.00    +0.000 HD
ENDBRANCH   4  13
BRANCH  12  15
ATOM     15  C   UNL     1       3.219   7.193  19.360  0.00  0.00    +0.000 C 
BRANCH  15  16
ATOM     16  C   UNL     1       2.069   8.185  19.302  0.00  0.00    +0.000 A 
ATOM     17  C   UNL     1       1.316   8.536  20.432  0.00  0.00    +0.000 A 
ATOM     18  C   UNL     1       0.256   9.441  20.337  0.00  0.00    +0.000 A 
ATOM     19  C   UNL     1      -0.053  10.030  19.114  0.00  0.00    +0.000 A 
ATOM     20  C   UNL     1       0.715   9.734  17.991  0.00  0.00    +0.000 A 
ATOM     21  C   UNL     1       1.773   8.826  18.086  0.00  0.00    +0.000 A 
ENDBRANCH  15  16
ENDBRANCH  12  15
TORSDOF 3
ENDMDL
MODEL 5
REMARK VINA RESULT:      -6.8      2.833      5.948
REMARK  Name = 
REMARK  4 active torsions:
REMARK  status: ('A' for Active; 'I' for Inactive)
REMARK    1  A    between atoms: C_1  and  C_2
REMARK    2  A    between atoms: C_4  and  S_5
REMARK    3  A    between atoms: N_13  and  C_14
REMARK    4  A    between atoms: C_14  and  C_15
REMARK                            x       y       z     vdW  Elec       q    Type
REMARK                         _______ _______ _______ _____ _____    ______ ____
ROOT
ATOM      1  C   UNL     1       4.711   7.297  17.925  0.00  0.00    +0.000 C 
ATOM      2  C   UNL     1       3.706   6.185  17.589  0.00  0.00    +0.000 C 
ATOM      3  C   UNL     1       2.266   6.668  17.765  0.00  0.00    +0.000 C 
ATOM      4  C   UNL     1       2.065   7.078  19.196  0.00  0.00    +0.000 C 
ATOM      5  N   UNL     1       2.095   6.279  20.211  0.00  0.00    +0.000 NA
ATOM      6  C   UNL     1       2.197   4.891  19.999  0.00  0.00    +0.000 A 
ATOM      7  C   UNL     1       1.364   4.118  20.825  0.00  0.00    +0.000 A 
ATOM      8  C   UNL     1       1.287   2.735  20.696  0.00  0.00    +0.000 A 
ATOM      9  C   UNL     1       2.042   2.107  19.721  0.00  0.00    +0.000 A 
ATOM     10  C   UNL     1       2.914   2.856  18.923  0.00  0.00    +0.000 A 
ATOM     11  C   UNL     1       3.057   4.251  19.062  0.00  0.00    +0.000 A 
ATOM     12  N   UNL     1       4.020   4.938  18.315  0.00  0.00    +0.000 N 
ENDROOT
BRANCH   4  13
ATOM     13  S   UNL     1       1.774   8.783  19.516  0.00  0.00    +0.000 S 
ATOM     14  H   UNL     1       1.818   8.742  20.852  0.00  0.00    +0.000 HD
ENDBRANCH   4  13
BRANCH  12  15
ATOM     15  C   UNL     1       5.340   4.313  18.082  0.00  0.00    +0.000 C 
BRANCH  15  16
ATOM     16  C   UNL     1       5.800   4.374  16.634  0.00  0.00    +0.000 A 
ATOM     17  C   UNL     1       5.005   3.929  15.569  0.00  0.00    +0.000 A 
ATOM     18  C   UNL     1       5.469   3.987  14.252  0.00  0.00    +0.000 A 
ATOM     19  C   UNL     1       6.726   4.516  13.976  0.00  0.00    +0.000 A 
ATOM     20  C   UNL     1       7.510   5.012  15.015  0.00  0.00    +0.000 A 
ATOM     21  C   UNL     1       7.047   4.951  16.332  0.00  0.00    +0.000 A 
ENDBRANCH  15  16
ENDBRANCH  12  15
TORSDOF 3
ENDMDL
MODEL 6
REMARK VINA RESULT:      -6.8      2.827      5.943
REMARK  Name = 
REMARK  4 active torsions:
REMARK  status: ('A' for Active; 'I' for Inactive)
REMARK    1  A    between atoms: C_1  and  C_2
REMARK    2  A    between atoms: C_4  and  S_5
REMARK    3  A    between atoms: N_13  and  C_14
REMARK    4  A    between atoms: C_14  and  C_15
REMARK                            x       y       z     vdW  Elec       q    Type
REMARK                         _______ _______ _______ _____ _____    ______ ____
ROOT
ATOM      1  C   UNL     1       4.736   7.285  17.923  0.00  0.00    +0.000 C 
ATOM      2  C   UNL     1       3.729   6.176  17.581  0.00  0.00    +0.000 C 
ATOM      3  C   UNL     1       2.290   6.667  17.740  0.00  0.00    +0.000 C 
ATOM      4  C   UNL     1       2.075   7.084  19.167  0.00  0.00    +0.000 C 
ATOM      5  N   UNL     1       2.091   6.291  20.187  0.00  0.00    +0.000 NA
ATOM      6  C   UNL     1       2.189   4.901  19.982  0.00  0.00    +0.000 A 
ATOM      7  C   UNL     1       1.343   4.136  20.802  0.00  0.00    +0.000 A 
ATOM      8  C   UNL     1       1.261   2.753  20.679  0.00  0.00    +0.000 A 
ATOM      9  C   UNL     1       2.023   2.116  19.715  0.00  0.00    +0.000 A 
ATOM     10  C   UNL     1       2.907   2.858  18.923  0.00  0.00    +0.000 A 
ATOM     11  C   UNL     1       3.055   4.253  19.057  0.00  0.00    +0.000 A 
ATOM     12  N   UNL     1       4.029   4.931  18.317  0.00  0.00    +0.000 N 
ENDROOT
BRANCH   4  13
ATOM     13  S   UNL     1       1.789   8.793  19.476  0.00  0.00    +0.000 S 
ATOM     14  H   UNL     1       0.550   8.876  18.975  0.00  0.00    +0.000 HD
ENDBRANCH   4  13
BRANCH  12  15
ATOM     15  C   UNL     1       5.348   4.299  18.100  0.00  0.00    +0.000 C 
BRANCH  15  16
ATOM     16  C   UNL     1       5.845   4.391  16.666  0.00  0.00    +0.000 A 
ATOM     17  C   UNL     1       7.099   4.921  16.333  0.00  0.00    +0.000 A 
ATOM     18  C   UNL     1       7.514   5.004  15.002  0.00  0.00    +0.000 A 
ATOM     19  C   UNL     1       6.692   4.534  13.983  0.00  0.00    +0.000 A 
ATOM     20  C   UNL     1       5.465   3.955  14.296  0.00  0.00    +0.000 A 
ATOM     21  C   UNL     1       5.048   3.876  15.628  0.00  0.00    +0.000 A 
ENDBRANCH  15  16
ENDBRANCH  12  15
TORSDOF 3
ENDMDL
MODEL 7
REMARK VINA RESULT:      -6.7      1.763      3.693
REMARK  Name = 
REMARK  4 active torsions:
REMARK  status: ('A' for Active; 'I' for Inactive)
REMARK    1  A    between atoms: C_1  and  C_2
REMARK    2  A    between atoms: C_4  and  S_5
REMARK    3  A    between atoms: N_13  and  C_14
REMARK    4  A    between atoms: C_14  and  C_15
REMARK                            x       y       z     vdW  Elec       q    Type
REMARK                         _______ _______ _______ _____ _____    ______ ____
ROOT
ATOM      1  C   UNL     1       5.097   7.330  17.174  0.00  0.00    +0.000 C 
ATOM      2  C   UNL     1       4.493   6.532  18.339  0.00  0.00    +0.000 C 
ATOM      3  C   UNL     1       5.465   5.466  18.845  0.00  0.00    +0.000 C 
ATOM      4  C   UNL     1       5.769   4.516  17.721  0.00  0.00    +0.000 C 
ATOM      5  N   UNL     1       4.917   3.713  17.174  0.00  0.00    +0.000 NA
ATOM      6  C   UNL     1       3.625   3.595  17.720  0.00  0.00    +0.000 A 
ATOM      7  C   UNL     1       3.145   2.276  17.787  0.00  0.00    +0.000 A 
ATOM      8  C   UNL     1       1.917   1.975  18.366  0.00  0.00    +0.000 A 
ATOM      9  C   UNL     1       1.154   2.999  18.900  0.00  0.00    +0.000 A 
ATOM     10  C   UNL     1       1.595   4.323  18.798  0.00  0.00    +0.000 A 
ATOM     11  C   UNL     1       2.808   4.671  18.171  0.00  0.00    +0.000 A 
ATOM     12  N   UNL     1       3.151   6.016  17.999  0.00  0.00    +0.000 N 
ENDROOT
BRANCH   4  13
ATOM     13  S   UNL     1       7.414   4.501  17.097  0.00  0.00    +0.000 S 
ATOM     14  H   UNL     1       7.130   4.662  15.799  0.00  0.00    +0.000 HD
ENDBRANCH   4  13
BRANCH  12  15
ATOM     15  C   UNL     1       2.100   6.995  17.649  0.00  0.00    +0.000 C 
BRANCH  15  16
ATOM     16  C   UNL     1       1.724   7.926  18.791  0.00  0.00    +0.000 A 
ATOM     17  C   UNL     1       1.781   7.535  20.136  0.00  0.00    +0.000 A 
ATOM     18  C   UNL     1       1.413   8.413  21.157  0.00  0.00    +0.000 A 
ATOM     19  C   UNL     1       1.006   9.709  20.852  0.00  0.00    +0.000 A 
ATOM     20  C   UNL     1       0.993  10.135  19.525  0.00  0.00    +0.000 A 
ATOM     21  C   UNL     1       1.358   9.254  18.504  0.00  0.00    +0.000 A 
ENDBRANCH  15  16
ENDBRANCH  12  15
TORSDOF 3
ENDMDL
MODEL 8
REMARK VINA RESULT:      -6.6      1.850      3.510
REMARK  Name = 
REMARK  4 active torsions:
REMARK  status: ('A' for Active; 'I' for Inactive)
REMARK    1  A    between atoms: C_1  and  C_2
REMARK    2  A    between atoms: C_4  and  S_5
REMARK    3  A    between atoms: N_13  and  C_14
REMARK    4  A    between atoms: C_14  and  C_15
REMARK                            x       y       z     vdW  Elec       q    Type
REMARK                         _______ _______ _______ _____ _____    ______ ____
ROOT
ATOM      1  C   UNL     1       4.780   6.709  16.772  0.00  0.00    +0.000 C 
ATOM      2  C   UNL     1       4.574   6.580  18.288  0.00  0.00    +0.000 C 
ATOM      3  C   UNL     1       5.818   6.010  18.970  0.00  0.00    +0.000 C 
ATOM      4  C   UNL     1       6.096   4.645  18.408  0.00  0.00    +0.000 C 
ATOM      5  N   UNL     1       5.339   3.609  18.557  0.00  0.00    +0.000 NA
ATOM      6  C   UNL     1       4.220   3.685  19.409  0.00  0.00    +0.000 A 
ATOM      7  C   UNL     1       4.038   2.555  20.224  0.00  0.00    +0.000 A 
ATOM      8  C   UNL     1       3.024   2.496  21.175  0.00  0.00    +0.000 A 
ATOM      9  C   UNL     1       2.181   3.584  21.329  0.00  0.00    +0.000 A 
ATOM     10  C   UNL     1       2.319   4.696  20.492  0.00  0.00    +0.000 A 
ATOM     11  C   UNL     1       3.300   4.768  19.483  0.00  0.00    +0.000 A 
ATOM     12  N   UNL     1       3.325   5.856  18.603  0.00  0.00    +0.000 N 
ENDROOT
BRANCH   4  13
ATOM     13  S   UNL     1       7.566   4.444  17.462  0.00  0.00    +0.000 S 
ATOM     14  H   UNL     1       7.407   3.159  17.126  0.00  0.00    +0.000 HD
ENDBRANCH   4  13
BRANCH  12  15
ATOM     15  C   UNL     1       2.051   6.425  18.114  0.00  0.00    +0.000 C 
BRANCH  15  16
ATOM     16  C   UNL     1       1.750   7.811  18.659  0.00  0.00    +0.000 A 
ATOM     17  C   UNL     1       1.511   8.053  20.019  0.00  0.00    +0.000 A 
ATOM     18  C   UNL     1       1.222   9.339  20.481  0.00  0.00    +0.000 A 
ATOM     19  C   UNL     1       1.191  10.411  19.594  0.00  0.00    +0.000 A 
ATOM     20  C   UNL     1       1.477  10.201  18.247  0.00  0.00    +0.000 A 
ATOM     21  C   UNL     1       1.763   8.913  17.785  0.00  0.00    +0.000 A 
ENDBRANCH  15  16
ENDBRANCH  12  15
TORSDOF 3
ENDMDL
MODEL 9
REMARK VINA RESULT:      -6.6      1.743      3.837
REMARK  Name = 
REMARK  4 active torsions:
REMARK  status: ('A' for Active; 'I' for Inactive)
REMARK    1  A    between atoms: C_1  and  C_2
REMARK    2  A    between atoms: C_4  and  S_5
REMARK    3  A    between atoms: N_13  and  C_14
REMARK    4  A    between atoms: C_14  and  C_15
REMARK                            x       y       z     vdW  Elec       q    Type
REMARK                         _______ _______ _______ _____ _____    ______ ____
ROOT
ATOM      1  C   UNL     1       5.155   7.327  17.289  0.00  0.00    +0.000 C 
ATOM      2  C   UNL     1       4.514   6.519  18.426  0.00  0.00    +0.000 C 
ATOM      3  C   UNL     1       5.468   5.444  18.948  0.00  0.00    +0.000 C 
ATOM      4  C   UNL     1       5.802   4.505  17.823  0.00  0.00    +0.000 C 
ATOM      5  N   UNL     1       4.965   3.712  17.241  0.00  0.00    +0.000 NA
ATOM      6  C   UNL     1       3.656   3.592  17.748  0.00  0.00    +0.000 A 
ATOM      7  C   UNL     1       3.171   2.274  17.785  0.00  0.00    +0.000 A 
ATOM      8  C   UNL     1       1.925   1.970  18.323  0.00  0.00    +0.000 A 
ATOM      9  C   UNL     1       1.150   2.990  18.847  0.00  0.00    +0.000 A 
ATOM     10  C   UNL     1       1.598   4.314  18.774  0.00  0.00    +0.000 A 
ATOM     11  C   UNL     1       2.830   4.665  18.186  0.00  0.00    +0.000 A 
ATOM     12  N   UNL     1       3.181   6.011  18.041  0.00  0.00    +0.000 N 
ENDROOT
BRANCH   4  13
ATOM     13  S   UNL     1       7.464   4.493  17.247  0.00  0.00    +0.000 S 
ATOM     14  H   UNL     1       7.769   5.771  17.503  0.00  0.00    +0.000 HD
ENDBRANCH   4  13
BRANCH  12  15
ATOM     15  C   UNL     1       2.144   6.997  17.671  0.00  0.00    +0.000 C 
BRANCH  15  16
ATOM     16  C   UNL     1       1.760   7.937  18.803  0.00  0.00    +0.000 A 
ATOM     17  C   UNL     1       1.341   9.256  18.580  0.00  0.00    +0.000 A 
ATOM     18  C   UNL     1       1.012  10.096  19.647  0.00  0.00    +0.000 A 
ATOM     19  C   UNL     1       1.070   9.621  20.954  0.00  0.00    +0.000 A 
ATOM     20  C   UNL     1       1.432   8.298  21.193  0.00  0.00    +0.000 A 
ATOM     21  C   UNL     1       1.766   7.460  20.126  0.00  0.00    +0.000 A 
ENDBRANCH  15  16
ENDBRANCH  12  15
TORSDOF 3
ENDMDL
