MODEL 1
REMARK VINA RESULT:      -6.5      0.000      0.000
REMARK  Name = 
REMARK  11 active torsions:
REMARK  status: ('A' for Active; 'I' for Inactive)
REMARK    1  A    between atoms: C_1  and  O_2
REMARK    2  A    between atoms: O_2  and  C_3
REMARK    3  A    between atoms: C_3  and  C_5
REMARK    4  A    between atoms: N_7  and  C_8
REMARK    5  A    between atoms: C_12  and  C_13
REMARK    6  A    between atoms: C_13  and  O_15
REMARK    7  A    between atoms: O_15  and  C_16
REMARK    8  A    between atoms: C_17  and  C_18
REMARK    9  A    between atoms: C_21  and  C_22
REMARK   10  A    between atoms: C_22  and  O_24
REMARK   11  A    between atoms: O_24  and  C_25
REMARK                            x       y       z     vdW  Elec       q    Type
REMARK                         _______ _______ _______ _____ _____    ______ ____
ROOT
ATOM      1  C   UNL     1       3.952   3.846  16.833  0.00  0.00    +0.000 C 
ATOM      2  C   UNL     1       4.508   3.585  15.633  0.00  0.00    +0.000 C 
ATOM      3  N   UNL     1       5.726   4.111  15.245  0.00  0.00    +0.000 N 
ATOM      4  C   UNL     1       6.385   5.016  16.054  0.00  0.00    +0.000 C 
ATOM      5  C   UNL     1       5.942   5.365  17.276  0.00  0.00    +0.000 C 
ATOM      6  C   UNL     1       4.702   4.694  17.870  0.00  0.00    +0.000 C 
ENDROOT
BRANCH   6   7
ATOM      7  C   UNL     1       3.796   5.673  18.611  0.00  0.00    +0.000 A 
ATOM      8  C   UNL     1       3.362   5.435  19.922  0.00  0.00    +0.000 A 
ATOM      9  C   UNL     1       2.532   6.359  20.561  0.00  0.00    +0.000 A 
ATOM     10  C   UNL     1       2.135   7.533  19.908  0.00  0.00    +0.000 A 
ATOM     11  C   UNL     1       2.565   7.772  18.599  0.00  0.00    +0.000 A 
ATOM     12  C   UNL     1       3.383   6.849  17.957  0.00  0.00    +0.000 A 
BRANCH  10  13
ATOM     13  C   UNL     1       1.269   8.493  20.640  0.00  0.00    +0.000 C 
ATOM     14  O   UNL     1       1.083   8.453  21.846  0.00  0.00    +0.000 OA
BRANCH  13  15
ATOM     15  O   UNL     1       0.742   9.406  19.786  0.00  0.00    +0.000 OA
ATOM     16  C   UNL     1       0.575  10.703  20.354  0.00  0.00    +0.000 C 
ENDBRANCH  13  15
ENDBRANCH  10  13
ENDBRANCH   6   7
BRANCH   3  17
ATOM     17  C   UNL     1       6.427   3.567  14.074  0.00  0.00    +0.000 C 
ATOM     18  C   UNL     1       5.794   3.459  12.712  0.00  0.00    +0.000 C 
ATOM     19  C   UNL     1       6.881   4.462  12.947  0.00  0.00    +0.000 C 
ENDBRANCH   3  17
BRANCH   1  20
ATOM     20  C   UNL     1       2.600   3.292  17.075  0.00  0.00    +0.000 C 
ATOM     21  O   UNL     1       1.563   3.901  16.851  0.00  0.00    +0.000 OA
BRANCH  20  23
ATOM     22  C   UNL     1       2.264   1.935  18.952  0.00  0.00    +0.000 C 
ATOM     23  O   UNL     1       2.674   2.041  17.586  0.00  0.00    +0.000 OA
ENDBRANCH  20  23
ENDBRANCH   1  20
BRANCH   5  24
ATOM     24  C   UNL     1       6.695   6.446  17.948  0.00  0.00    +0.000 C 
ATOM     25  O   UNL     1       7.218   6.321  19.047  0.00  0.00    +0.000 OA
BRANCH  24  26
ATOM     26  O   UNL     1       6.737   7.566  17.189  0.00  0.00    +0.000 OA
ATOM     27  C   UNL     1       7.759   8.487  17.579  0.00  0.00    +0.000 C 
ENDBRANCH  24  26
ENDBRANCH   5  24
TORSDOF 8
ENDMDL
MODEL 2
REMARK VINA RESULT:      -6.4      0.621      1.208
REMARK  Name = 
REMARK  11 active torsions:
REMARK  status: ('A' for Active; 'I' for Inactive)
REMARK    1  A    between atoms: C_1  and  O_2
REMARK    2  A    between atoms: O_2  and  C_3
REMARK    3  A    between atoms: C_3  and  C_5
REMARK    4  A    between atoms: N_7  and  C_8
REMARK    5  A    between atoms: C_12  and  C_13
REMARK    6  A    between atoms: C_13  and  O_15
REMARK    7  A    between atoms: O_15  and  C_16
REMARK    8  A    between atoms: C_17  and  C_18
REMARK    9  A    between atoms: C_21  and  C_22
REMARK   10  A    between atoms: C_22  and  O_24
REMARK   11  A    between atoms: O_24  and  C_25
REMARK                            x       y       z     vdW  Elec       q    Type
REMARK                         _______ _______ _______ _____ _____    ______ ____
ROOT
ATOM      1  C   UNL     1       4.036   3.888  16.828  0.00  0.00    +0.000 C 
ATOM      2  C   UNL     1       4.563   3.579  15.625  0.00  0.00    +0.000 C 
ATOM      3  N   UNL     1       5.724   4.158  15.149  0.00  0.00    +0.000 N 
ATOM      4  C   UNL     1       6.348   5.162  15.864  0.00  0.00    +0.000 C 
ATOM      5  C   UNL     1       5.928   5.567  17.076  0.00  0.00    +0.000 C 
ATOM      6  C   UNL     1       4.764   4.857  17.769  0.00  0.00    +0.000 C 
ENDROOT
BRANCH   6   7
ATOM      7  C   UNL     1       3.820   5.823  18.480  0.00  0.00    +0.000 A 
ATOM      8  C   UNL     1       3.352   5.582  19.778  0.00  0.00    +0.000 A 
ATOM      9  C   UNL     1       2.488   6.493  20.390  0.00  0.00    +0.000 A 
ATOM     10  C   UNL     1       2.089   7.658  19.720  0.00  0.00    +0.000 A 
ATOM     11  C   UNL     1       2.553   7.901  18.423  0.00  0.00    +0.000 A 
ATOM     12  C   UNL     1       3.405   6.990  17.809  0.00  0.00    +0.000 A 
BRANCH  10  13
ATOM     13  C   UNL     1       1.186   8.606  20.423  0.00  0.00    +0.000 C 
ATOM     14  O   UNL     1       0.544   9.476  19.857  0.00  0.00    +0.000 OA
BRANCH  13  15
ATOM     15  O   UNL     1       1.174   8.351  21.756  0.00  0.00    +0.000 OA
ATOM     16  C   UNL     1       0.635   9.411  22.544  0.00  0.00    +0.000 C 
ENDBRANCH  13  15
ENDBRANCH  10  13
ENDBRANCH   6   7
BRANCH   3  17
ATOM     17  C   UNL     1       6.416   3.580  13.989  0.00  0.00    +0.000 C 
ATOM     18  C   UNL     1       5.773   3.436  12.635  0.00  0.00    +0.000 C 
ATOM     19  C   UNL     1       6.864   4.443  12.834  0.00  0.00    +0.000 C 
ENDBRANCH   3  17
BRANCH   1  20
ATOM     20  C   UNL     1       2.738   3.261  17.166  0.00  0.00    +0.000 C 
ATOM     21  O   UNL     1       1.653   3.722  16.841  0.00  0.00    +0.000 OA
BRANCH  20  23
ATOM     22  C   UNL     1       2.088   2.031  19.049  0.00  0.00    +0.000 C 
ATOM     23  O   UNL     1       2.919   2.131  17.890  0.00  0.00    +0.000 OA
ENDBRANCH  20  23
ENDBRANCH   1  20
BRANCH   5  24
ATOM     24  C   UNL     1       6.628   6.743  17.638  0.00  0.00    +0.000 C 
ATOM     25  O   UNL     1       6.824   7.775  17.010  0.00  0.00    +0.000 OA
BRANCH  24  26
ATOM     26  O   UNL     1       7.003   6.530  18.921  0.00  0.00    +0.000 OA
ATOM     27  C   UNL     1       8.042   5.558  19.063  0.00  0.00    +0.000 C 
ENDBRANCH  24  26
ENDBRANCH   5  24
TORSDOF 8
ENDMDL
MODEL 3
REMARK VINA RESULT:      -6.4      0.481      1.241
REMARK  Name = 
REMARK  11 active torsions:
REMARK  status: ('A' for Active; 'I' for Inactive)
REMARK    1  A    between atoms: C_1  and  O_2
REMARK    2  A    between atoms: O_2  and  C_3
REMARK    3  A    between atoms: C_3  and  C_5
REMARK    4  A    between atoms: N_7  and  C_8
REMARK    5  A    between atoms: C_12  and  C_13
REMARK    6  A    between atoms: C_13  and  O_15
REMARK    7  A    between atoms: O_15  and  C_16
REMARK    8  A    between atoms: C_17  and  C_18
REMARK    9  A    between atoms: C_21  and  C_22
REMARK   10  A    between atoms: C_22  and  O_24
REMARK   11  A    between atoms: O_24  and  C_25
REMARK                            x       y       z     vdW  Elec       q    Type
REMARK                         _______ _______ _______ _____ _____    ______ ____
ROOT
ATOM      1  C   UNL     1       3.891   3.927  16.834  0.00  0.00    +0.000 C 
ATOM      2  C   UNL     1       4.455   3.633  15.645  0.00  0.00    +0.000 C 
ATOM      3  N   UNL     1       5.685   4.132  15.260  0.00  0.00    +0.000 N 
ATOM      4  C   UNL     1       6.350   5.043  16.056  0.00  0.00    +0.000 C 
ATOM      5  C   UNL     1       5.899   5.425  17.266  0.00  0.00    +0.000 C 
ATOM      6  C   UNL     1       4.644   4.785  17.860  0.00  0.00    +0.000 C 
ENDROOT
BRANCH   6   7
ATOM      7  C   UNL     1       3.745   5.793  18.572  0.00  0.00    +0.000 A 
ATOM      8  C   UNL     1       3.325   6.978  17.955  0.00  0.00    +0.000 A 
ATOM      9  C   UNL     1       2.504   7.872  18.644  0.00  0.00    +0.000 A 
ATOM     10  C   UNL     1       2.083   7.592  19.952  0.00  0.00    +0.000 A 
ATOM     11  C   UNL     1       2.503   6.411  20.572  0.00  0.00    +0.000 A 
ATOM     12  C   UNL     1       3.329   5.524  19.890  0.00  0.00    +0.000 A 
BRANCH  10  13
ATOM     13  C   UNL     1       1.193   8.566  20.634  0.00  0.00    +0.000 C 
ATOM     14  O   UNL     1       0.436   9.321  20.043  0.00  0.00    +0.000 OA
BRANCH  13  15
ATOM     15  O   UNL     1       1.336   8.480  21.980  0.00  0.00    +0.000 OA
ATOM     16  C   UNL     1       0.484   9.359  22.712  0.00  0.00    +0.000 C 
ENDBRANCH  13  15
ENDBRANCH  10  13
ENDBRANCH   6   7
BRANCH   3  17
ATOM     17  C   UNL     1       6.389   3.553  14.107  0.00  0.00    +0.000 C 
ATOM     18  C   UNL     1       5.770   3.429  12.741  0.00  0.00    +0.000 C 
ATOM     19  C   UNL     1       6.872   4.417  12.968  0.00  0.00    +0.000 C 
ENDBRANCH   3  17
BRANCH   1  20
ATOM     20  C   UNL     1       2.528   3.399  17.073  0.00  0.00    +0.000 C 
ATOM     21  O   UNL     1       1.508   4.061  16.945  0.00  0.00    +0.000 OA
BRANCH  20  23
ATOM     22  C   UNL     1       2.581   1.912  18.880  0.00  0.00    +0.000 C 
ATOM     23  O   UNL     1       2.573   2.103  17.462  0.00  0.00    +0.000 OA
ENDBRANCH  20  23
ENDBRANCH   1  20
BRANCH   5  24
ATOM     24  C   UNL     1       6.662   6.508  17.923  0.00  0.00    +0.000 C 
ATOM     25  O   UNL     1       7.183   6.394  19.024  0.00  0.00    +0.000 OA
BRANCH  24  26
ATOM     26  O   UNL     1       6.716   7.616  17.148  0.00  0.00    +0.000 OA
ATOM     27  C   UNL     1       7.722   8.550  17.548  0.00  0.00    +0.000 C 
ENDBRANCH  24  26
ENDBRANCH   5  24
TORSDOF 8
ENDMDL
MODEL 4
REMARK VINA RESULT:      -6.4      0.525      1.334
REMARK  Name = 
REMARK  11 active torsions:
REMARK  status: ('A' for Active; 'I' for Inactive)
REMARK    1  A    between atoms: C_1  and  O_2
REMARK    2  A    between atoms: O_2  and  C_3
REMARK    3  A    between atoms: C_3  and  C_5
REMARK    4  A    between atoms: N_7  and  C_8
REMARK    5  A    between atoms: C_12  and  C_13
REMARK    6  A    between atoms: C_13  and  O_15
REMARK    7  A    between atoms: O_15  and  C_16
REMARK    8  A    between atoms: C_17  and  C_18
REMARK    9  A    between atoms: C_21  and  C_22
REMARK   10  A    between atoms: C_22  and  O_24
REMARK   11  A    between atoms: O_24  and  C_25
REMARK                            x       y       z     vdW  Elec       q    Type
REMARK                         _______ _______ _______ _____ _____    ______ ____
ROOT
ATOM      1  C   UNL     1       4.068   3.932  16.778  0.00  0.00    +0.000 C 
ATOM      2  C   UNL     1       4.600   3.617  15.579  0.00  0.00    +0.000 C 
ATOM      3  N   UNL     1       5.766   4.189  15.107  0.00  0.00    +0.000 N 
ATOM      4  C   UNL     1       6.391   5.192  15.821  0.00  0.00    +0.000 C 
ATOM      5  C   UNL     1       5.967   5.604  17.030  0.00  0.00    +0.000 C 
ATOM      6  C   UNL     1       4.796   4.902  17.720  0.00  0.00    +0.000 C 
ENDROOT
BRANCH   6   7
ATOM      7  C   UNL     1       3.853   5.874  18.423  0.00  0.00    +0.000 A 
ATOM      8  C   UNL     1       3.378   7.032  17.795  0.00  0.00    +0.000 A 
ATOM      9  C   UNL     1       2.517   7.894  18.477  0.00  0.00    +0.000 A 
ATOM     10  C   UNL     1       2.111   7.607  19.787  0.00  0.00    +0.000 A 
ATOM     11  C   UNL     1       2.584   6.452  20.418  0.00  0.00    +0.000 A 
ATOM     12  C   UNL     1       3.450   5.598  19.743  0.00  0.00    +0.000 A 
BRANCH  10  13
ATOM     13  C   UNL     1       1.177   8.546  20.461  0.00  0.00    +0.000 C 
ATOM     14  O   UNL     1       0.731   8.368  21.584  0.00  0.00    +0.000 OA
BRANCH  13  15
ATOM     15  O   UNL     1       0.914   9.611  19.662  0.00  0.00    +0.000 OA
ATOM     16  C   UNL     1      -0.416  10.112  19.781  0.00  0.00    +0.000 C 
ENDBRANCH  13  15
ENDBRANCH  10  13
ENDBRANCH   6   7
BRANCH   3  17
ATOM     17  C   UNL     1       6.461   3.604  13.952  0.00  0.00    +0.000 C 
ATOM     18  C   UNL     1       5.809   3.414  12.608  0.00  0.00    +0.000 C 
ATOM     19  C   UNL     1       6.876   4.453  12.775  0.00  0.00    +0.000 C 
ENDBRANCH   3  17
BRANCH   1  20
ATOM     20  C   UNL     1       2.766   3.313  17.112  0.00  0.00    +0.000 C 
ATOM     21  O   UNL     1       1.684   3.837  16.890  0.00  0.00    +0.000 OA
BRANCH  20  23
ATOM     22  C   UNL     1       2.412   2.018  19.030  0.00  0.00    +0.000 C 
ATOM     23  O   UNL     1       2.940   2.107  17.704  0.00  0.00    +0.000 OA
ENDBRANCH  20  23
ENDBRANCH   1  20
BRANCH   5  24
ATOM     24  C   UNL     1       6.669   6.778  17.591  0.00  0.00    +0.000 C 
ATOM     25  O   UNL     1       6.854   7.815  16.968  0.00  0.00    +0.000 OA
BRANCH  24  26
ATOM     26  O   UNL     1       7.061   6.558  18.868  0.00  0.00    +0.000 OA
ATOM     27  C   UNL     1       8.039   5.522  18.999  0.00  0.00    +0.000 C 
ENDBRANCH  24  26
ENDBRANCH   5  24
TORSDOF 8
ENDMDL
MODEL 5
REMARK VINA RESULT:      -6.0      0.706      1.125
REMARK  Name = 
REMARK  11 active torsions:
REMARK  status: ('A' for Active; 'I' for Inactive)
REMARK    1  A    between atoms: C_1  and  O_2
REMARK    2  A    between atoms: O_2  and  C_3
REMARK    3  A    between atoms: C_3  and  C_5
REMARK    4  A    between atoms: N_7  and  C_8
REMARK    5  A    between atoms: C_12  and  C_13
REMARK    6  A    between atoms: C_13  and  O_15
REMARK    7  A    between atoms: O_15  and  C_16
REMARK    8  A    between atoms: C_17  and  C_18
REMARK    9  A    between atoms: C_21  and  C_22
REMARK   10  A    between atoms: C_22  and  O_24
REMARK   11  A    between atoms: O_24  and  C_25
REMARK                            x       y       z     vdW  Elec       q    Type
REMARK                         _______ _______ _______ _____ _____    ______ ____
ROOT
ATOM      1  C   UNL     1       4.397   3.754  16.740  0.00  0.00    +0.000 C 
ATOM      2  C   UNL     1       4.856   3.446  15.510  0.00  0.00    +0.000 C 
ATOM      3  N   UNL     1       5.903   4.124  14.914  0.00  0.00    +0.000 N 
ATOM      4  C   UNL     1       6.466   5.222  15.533  0.00  0.00    +0.000 C 
ATOM      5  C   UNL     1       6.103   5.638  16.760  0.00  0.00    +0.000 C 
ATOM      6  C   UNL     1       5.085   4.841  17.577  0.00  0.00    +0.000 C 
ENDROOT
BRANCH   6   7
ATOM      7  C   UNL     1       4.099   5.732  18.328  0.00  0.00    +0.000 A 
ATOM      8  C   UNL     1       3.755   5.495  19.664  0.00  0.00    +0.000 A 
ATOM      9  C   UNL     1       2.847   6.336  20.311  0.00  0.00    +0.000 A 
ATOM     10  C   UNL     1       2.281   7.428  19.638  0.00  0.00    +0.000 A 
ATOM     11  C   UNL     1       2.621   7.665  18.303  0.00  0.00    +0.000 A 
ATOM     12  C   UNL     1       3.517   6.823  17.654  0.00  0.00    +0.000 A 
BRANCH  10  13
ATOM     13  C   UNL     1       1.337   8.304  20.379  0.00  0.00    +0.000 C 
ATOM     14  O   UNL     1       0.944   8.072  21.511  0.00  0.00    +0.000 OA
BRANCH  13  15
ATOM     15  O   UNL     1       0.999   9.382  19.627  0.00  0.00    +0.000 OA
ATOM     16  C   UNL     1       0.489  10.480  20.381  0.00  0.00    +0.000 C 
ENDBRANCH  13  15
ENDBRANCH  10  13
ENDBRANCH   6   7
BRANCH   3  17
ATOM     17  C   UNL     1       6.560   3.569  13.722  0.00  0.00    +0.000 C 
ATOM     18  C   UNL     1       5.843   3.343  12.417  0.00  0.00    +0.000 C 
ATOM     19  C   UNL     1       6.867   4.432  12.523  0.00  0.00    +0.000 C 
ENDBRANCH   3  17
BRANCH   1  20
ATOM     20  C   UNL     1       3.208   3.008  17.212  0.00  0.00    +0.000 C 
ATOM     21  O   UNL     1       3.262   1.924  17.775  0.00  0.00    +0.000 OA
BRANCH  20  23
ATOM     22  C   UNL     1       1.123   3.732  17.992  0.00  0.00    +0.000 C 
ATOM     23  O   UNL     1       2.068   3.678  16.920  0.00  0.00    +0.000 OA
ENDBRANCH  20  23
ENDBRANCH   1  20
BRANCH   5  24
ATOM     24  C   UNL     1       6.710   6.908  17.213  0.00  0.00    +0.000 C 
ATOM     25  O   UNL     1       6.441   7.997  16.724  0.00  0.00    +0.000 OA
BRANCH  24  26
ATOM     26  O   UNL     1       7.578   6.706  18.233  0.00  0.00    +0.000 OA
ATOM     27  C   UNL     1       8.364   7.856  18.555  0.00  0.00    +0.000 C 
ENDBRANCH  24  26
ENDBRANCH   5  24
TORSDOF 8
ENDMDL
MODEL 6
REMARK VINA RESULT:      -5.7      4.195      9.125
REMARK  Name = 
REMARK  11 active torsions:
REMARK  status: ('A' for Active; 'I' for Inactive)
REMARK    1  A    between atoms: C_1  and  O_2
REMARK    2  A    between atoms: O_2  and  C_3
REMARK    3  A    between atoms: C_3  and  C_5
REMARK    4  A    between atoms: N_7  and  C_8
REMARK    5  A    between atoms: C_12  and  C_13
REMARK    6  A    between atoms: C_13  and  O_15
REMARK    7  A    between atoms: O_15  and  C_16
REMARK    8  A    between atoms: C_17  and  C_18
REMARK    9  A    between atoms: C_21  and  C_22
REMARK   10  A    between atoms: C_22  and  O_24
REMARK   11  A    between atoms: O_24  and  C_25
REMARK                            x       y       z     vdW  Elec       q    Type
REMARK                         _______ _______ _______ _____ _____    ______ ____
ROOT
ATOM      1  C   UNL     1      -1.695  11.253  18.606  0.00  0.00    +0.000 C 
ATOM      2  C   UNL     1      -2.555  12.057  19.265  0.00  0.00    +0.000 C 
ATOM      3  N   UNL     1      -2.133  13.089  20.083  0.00  0.00    +0.000 N 
ATOM      4  C   UNL     1      -0.788  13.277  20.332  0.00  0.00    +0.000 C 
ATOM      5  C   UNL     1       0.176  12.548  19.741  0.00  0.00    +0.000 C 
ATOM      6  C   UNL     1      -0.183  11.508  18.678  0.00  0.00    +0.000 C 
ENDROOT
BRANCH   6   7
ATOM      7  C   UNL     1       0.634  10.225  18.804  0.00  0.00    +0.000 A 
ATOM      8  C   UNL     1       0.620   9.448  19.968  0.00  0.00    +0.000 A 
ATOM      9  C   UNL     1       1.385   8.281  20.039  0.00  0.00    +0.000 A 
ATOM     10  C   UNL     1       2.163   7.871  18.948  0.00  0.00    +0.000 A 
ATOM     11  C   UNL     1       2.182   8.647  17.785  0.00  0.00    +0.000 A 
ATOM     12  C   UNL     1       1.428   9.813  17.716  0.00  0.00    +0.000 A 
BRANCH  10  13
ATOM     13  C   UNL     1       2.942   6.611  19.067  0.00  0.00    +0.000 C 
ATOM     14  O   UNL     1       2.749   5.775  19.936  0.00  0.00    +0.000 OA
BRANCH  13  15
ATOM     15  O   UNL     1       3.868   6.529  18.079  0.00  0.00    +0.000 OA
ATOM     16  C   UNL     1       4.711   5.382  18.167  0.00  0.00    +0.000 C 
ENDBRANCH  13  15
ENDBRANCH  10  13
ENDBRANCH   6   7
BRANCH   3  17
ATOM     17  C   UNL     1      -3.087  14.112  20.532  0.00  0.00    +0.000 C 
ATOM     18  C   UNL     1      -4.534  13.818  20.824  0.00  0.00    +0.000 C 
ATOM     19  C   UNL     1      -3.600  14.136  21.951  0.00  0.00    +0.000 C 
ENDBRANCH   3  17
BRANCH   1  20
ATOM     20  C   UNL     1      -2.286  10.131  17.843  0.00  0.00    +0.000 C 
ATOM     21  O   UNL     1      -3.061   9.314  18.321  0.00  0.00    +0.000 OA
BRANCH  20  23
ATOM     22  C   UNL     1      -2.781  10.626  15.609  0.00  0.00    +0.000 C 
ATOM     23  O   UNL     1      -1.841  10.127  16.564  0.00  0.00    +0.000 OA
ENDBRANCH  20  23
ENDBRANCH   1  20
BRANCH   5  24
ATOM     24  C   UNL     1       1.552  12.791  20.223  0.00  0.00    +0.000 C 
ATOM     25  O   UNL     1       1.902  12.614  21.383  0.00  0.00    +0.000 OA
BRANCH  24  26
ATOM     26  O   UNL     1       2.360  13.215  19.224  0.00  0.00    +0.000 OA
ATOM     27  C   UNL     1       3.241  14.275  19.606  0.00  0.00    +0.000 C 
ENDBRANCH  24  26
ENDBRANCH   5  24
TORSDOF 8
ENDMDL
MODEL 7
REMARK VINA RESULT:      -5.6      4.665      9.761
REMARK  Name = 
REMARK  11 active torsions:
REMARK  status: ('A' for Active; 'I' for Inactive)
REMARK    1  A    between atoms: C_1  and  O_2
REMARK    2  A    between atoms: O_2  and  C_3
REMARK    3  A    between atoms: C_3  and  C_5
REMARK    4  A    between atoms: N_7  and  C_8
REMARK    5  A    between atoms: C_12  and  C_13
REMARK    6  A    between atoms: C_13  and  O_15
REMARK    7  A    between atoms: O_15  and  C_16
REMARK    8  A    between atoms: C_17  and  C_18
REMARK    9  A    between atoms: C_21  and  C_22
REMARK   10  A    between atoms: C_22  and  O_24
REMARK   11  A    between atoms: O_24  and  C_25
REMARK                            x       y       z     vdW  Elec       q    Type
REMARK                         _______ _______ _______ _____ _____    ______ ____
ROOT
ATOM      1  C   UNL     1      -2.618  11.470  18.507  0.00  0.00    +0.000 C 
ATOM      2  C   UNL     1      -3.728  11.964  19.092  0.00  0.00    +0.000 C 
ATOM      3  N   UNL     1      -3.683  12.785  20.203  0.00  0.00    +0.000 N 
ATOM      4  C   UNL     1      -2.479  13.059  20.821  0.00  0.00    +0.000 C 
ATOM      5  C   UNL     1      -1.296  12.629  20.343  0.00  0.00    +0.000 C 
ATOM      6  C   UNL     1      -1.227  11.872  19.016  0.00  0.00    +0.000 C 
ENDROOT
BRANCH   6   7
ATOM      7  C   UNL     1      -0.242  10.707  19.049  0.00  0.00    +0.000 A 
ATOM      8  C   UNL     1      -0.220   9.784  20.101  0.00  0.00    +0.000 A 
ATOM      9  C   UNL     1       0.700   8.733  20.090  0.00  0.00    +0.000 A 
ATOM     10  C   UNL     1       1.601   8.585  19.026  0.00  0.00    +0.000 A 
ATOM     11  C   UNL     1       1.583   9.507  17.975  0.00  0.00    +0.000 A 
ATOM     12  C   UNL     1       0.674  10.559  17.989  0.00  0.00    +0.000 A 
BRANCH  10  13
ATOM     13  C   UNL     1       2.545   7.438  19.052  0.00  0.00    +0.000 C 
ATOM     14  O   UNL     1       2.560   6.593  19.933  0.00  0.00    +0.000 OA
BRANCH  13  15
ATOM     15  O   UNL     1       3.357   7.466  17.965  0.00  0.00    +0.000 OA
ATOM     16  C   UNL     1       3.935   6.203  17.640  0.00  0.00    +0.000 C 
ENDBRANCH  13  15
ENDBRANCH  10  13
ENDBRANCH   6   7
BRANCH   3  17
ATOM     17  C   UNL     1      -4.877  13.534  20.617  0.00  0.00    +0.000 C 
ATOM     18  C   UNL     1      -6.281  13.062  20.347  0.00  0.00    +0.000 C 
ATOM     19  C   UNL     1      -5.752  13.052  21.748  0.00  0.00    +0.000 C 
ENDBRANCH   3  17
BRANCH   1  20
ATOM     20  C   UNL     1      -2.822  10.527  17.384  0.00  0.00    +0.000 C 
ATOM     21  O   UNL     1      -3.241   9.386  17.518  0.00  0.00    +0.000 OA
BRANCH  20  23
ATOM     22  C   UNL     1      -2.967  10.415  15.050  0.00  0.00    +0.000 C 
ATOM     23  O   UNL     1      -2.468  11.093  16.206  0.00  0.00    +0.000 OA
ENDBRANCH  20  23
ENDBRANCH   1  20
BRANCH   5  24
ATOM     24  C   UNL     1      -0.122  12.897  21.201  0.00  0.00    +0.000 C 
ATOM     25  O   UNL     1       0.033  12.396  22.307  0.00  0.00    +0.000 OA
BRANCH  24  26
ATOM     26  O   UNL     1       0.747  13.744  20.602  0.00  0.00    +0.000 OA
ATOM     27  C   UNL     1       2.057  13.197  20.429  0.00  0.00    +0.000 C 
ENDBRANCH  24  26
ENDBRANCH   5  24
TORSDOF 8
ENDMDL
MODEL 8
REMARK VINA RESULT:      -5.6      4.605      9.243
REMARK  Name = 
REMARK  11 active torsions:
REMARK  status: ('A' for Active; 'I' for Inactive)
REMARK    1  A    between atoms: C_1  and  O_2
REMARK    2  A    between atoms: O_2  and  C_3
REMARK    3  A    between atoms: C_3  and  C_5
REMARK    4  A    between atoms: N_7  and  C_8
REMARK    5  A    between atoms: C_12  and  C_13
REMARK    6  A    between atoms: C_13  and  O_15
REMARK    7  A    between atoms: O_15  and  C_16
REMARK    8  A    between atoms: C_17  and  C_18
REMARK    9  A    between atoms: C_21  and  C_22
REMARK   10  A    between atoms: C_22  and  O_24
REMARK   11  A    between atoms: O_24  and  C_25
REMARK                            x       y       z     vdW  Elec       q    Type
REMARK                         _______ _______ _______ _____ _____    ______ ____
ROOT
ATOM      1  C   UNL     1      -1.856  11.265  18.562  0.00  0.00    +0.000 C 
ATOM      2  C   UNL     1      -2.746  12.012  19.248  0.00  0.00    +0.000 C 
ATOM      3  N   UNL     1      -2.364  13.014  20.120  0.00  0.00    +0.000 N 
ATOM      4  C   UNL     1      -1.027  13.228  20.395  0.00  0.00    +0.000 C 
ATOM      5  C   UNL     1      -0.036  12.555  19.782  0.00  0.00    +0.000 C 
ATOM      6  C   UNL     1      -0.353  11.558  18.666  0.00  0.00    +0.000 C 
ENDROOT
BRANCH   6   7
ATOM      7  C   UNL     1       0.499  10.294  18.741  0.00  0.00    +0.000 A 
ATOM      8  C   UNL     1       1.279   9.861  17.661  0.00  0.00    +0.000 A 
ATOM      9  C   UNL     1       2.043   8.697  17.774  0.00  0.00    +0.000 A 
ATOM     10  C   UNL     1       2.046   7.958  18.965  0.00  0.00    +0.000 A 
ATOM     11  C   UNL     1       1.266   8.387  20.044  0.00  0.00    +0.000 A 
ATOM     12  C   UNL     1       0.498   9.541  19.930  0.00  0.00    +0.000 A 
BRANCH  10  13
ATOM     13  C   UNL     1       2.892   6.739  19.041  0.00  0.00    +0.000 C 
ATOM     14  O   UNL     1       3.796   6.492  18.257  0.00  0.00    +0.000 OA
BRANCH  13  15
ATOM     15  O   UNL     1       2.525   5.970  20.096  0.00  0.00    +0.000 OA
ATOM     16  C   UNL     1       2.195   4.626  19.748  0.00  0.00    +0.000 C 
ENDBRANCH  13  15
ENDBRANCH  10  13
ENDBRANCH   6   7
BRANCH   3  17
ATOM     17  C   UNL     1      -3.351  13.988  20.605  0.00  0.00    +0.000 C 
ATOM     18  C   UNL     1      -4.837  13.806  20.440  0.00  0.00    +0.000 C 
ATOM     19  C   UNL     1      -4.222  13.691  21.801  0.00  0.00    +0.000 C 
ENDBRANCH   3  17
BRANCH   1  20
ATOM     20  C   UNL     1      -2.406  10.165  17.739  0.00  0.00    +0.000 C 
ATOM     21  O   UNL     1      -3.161   9.303  18.167  0.00  0.00    +0.000 OA
BRANCH  20  23
ATOM     22  C   UNL     1      -2.874  10.807  15.537  0.00  0.00    +0.000 C 
ATOM     23  O   UNL     1      -1.949  10.237  16.466  0.00  0.00    +0.000 OA
ENDBRANCH  20  23
ENDBRANCH   1  20
BRANCH   5  24
ATOM     24  C   UNL     1       1.327  12.813  20.294  0.00  0.00    +0.000 C 
ATOM     25  O   UNL     1       1.673  12.572  21.443  0.00  0.00    +0.000 OA
BRANCH  24  26
ATOM     26  O   UNL     1       2.127  13.329  19.332  0.00  0.00    +0.000 OA
ATOM     27  C   UNL     1       3.130  14.218  19.834  0.00  0.00    +0.000 C 
ENDBRANCH  24  26
ENDBRANCH   5  24
TORSDOF 8
ENDMDL
MODEL 9
REMARK VINA RESULT:      -5.5      4.670      9.417
REMARK  Name = 
REMARK  11 active torsions:
REMARK  status: ('A' for Active; 'I' for Inactive)
REMARK    1  A    between atoms: C_1  and  O_2
REMARK    2  A    between atoms: O_2  and  C_3
REMARK    3  A    between atoms: C_3  and  C_5
REMARK    4  A    between atoms: N_7  and  C_8
REMARK    5  A    between atoms: C_12  and  C_13
REMARK    6  A    between atoms: C_13  and  O_15
REMARK    7  A    between atoms: O_15  and  C_16
REMARK    8  A    between atoms: C_17  and  C_18
REMARK    9  A    between atoms: C_21  and  C_22
REMARK   10  A    between atoms: C_22  and  O_24
REMARK   11  A    between atoms: O_24  and  C_25
REMARK                            x       y       z     vdW  Elec       q    Type
REMARK                         _______ _______ _______ _____ _____    ______ ____
ROOT
ATOM      1  C   UNL     1      -2.129  11.376  18.532  0.00  0.00    +0.000 C 
ATOM      2  C   UNL     1      -3.105  12.030  19.195  0.00  0.00    +0.000 C 
ATOM      3  N   UNL     1      -2.842  12.987  20.156  0.00  0.00    +0.000 N 
ATOM      4  C   UNL     1      -1.542  13.246  20.546  0.00  0.00    +0.000 C 
ATOM      5  C   UNL     1      -0.475  12.665  19.970  0.00  0.00    +0.000 C 
ATOM      6  C   UNL     1      -0.655  11.733  18.770  0.00  0.00    +0.000 C 
ENDROOT
BRANCH   6   7
ATOM      7  C   UNL     1       0.255  10.509  18.828  0.00  0.00    +0.000 A 
ATOM      8  C   UNL     1       0.207   9.598  19.891  0.00  0.00    +0.000 A 
ATOM      9  C   UNL     1       1.059   8.492  19.903  0.00  0.00    +0.000 A 
ATOM     10  C   UNL     1       1.962   8.276  18.853  0.00  0.00    +0.000 A 
ATOM     11  C   UNL     1       2.015   9.185  17.791  0.00  0.00    +0.000 A 
ATOM     12  C   UNL     1       1.173  10.292  17.782  0.00  0.00    +0.000 A 
BRANCH  10  13
ATOM     13  C   UNL     1       2.832   7.073  18.903  0.00  0.00    +0.000 C 
ATOM     14  O   UNL     1       3.640   6.784  18.034  0.00  0.00    +0.000 OA
BRANCH  13  15
ATOM     15  O   UNL     1       2.607   6.370  20.041  0.00  0.00    +0.000 OA
ATOM     16  C   UNL     1       2.994   4.999  19.964  0.00  0.00    +0.000 C 
ENDBRANCH  13  15
ENDBRANCH  10  13
ENDBRANCH   6   7
BRANCH   3  17
ATOM     17  C   UNL     1      -3.913  13.877  20.626  0.00  0.00    +0.000 C 
ATOM     18  C   UNL     1      -5.372  13.626  20.351  0.00  0.00    +0.000 C 
ATOM     19  C   UNL     1      -4.841  13.464  21.742  0.00  0.00    +0.000 C 
ENDBRANCH   3  17
BRANCH   1  20
ATOM     20  C   UNL     1      -2.557  10.309  17.599  0.00  0.00    +0.000 C 
ATOM     21  O   UNL     1      -3.207   9.330  17.935  0.00  0.00    +0.000 OA
BRANCH  20  23
ATOM     22  C   UNL     1      -3.130  10.469  15.335  0.00  0.00    +0.000 C 
ATOM     23  O   UNL     1      -2.119  10.560  16.343  0.00  0.00    +0.000 OA
ENDBRANCH  20  23
ENDBRANCH   1  20
BRANCH   5  24
ATOM     24  C   UNL     1       0.832  12.952  20.600  0.00  0.00    +0.000 C 
ATOM     25  O   UNL     1       1.278  12.318  21.547  0.00  0.00    +0.000 OA
BRANCH  24  26
ATOM     26  O   UNL     1       1.459  13.986  19.991  0.00  0.00    +0.000 OA
ATOM     27  C   UNL     1       2.748  13.650  19.471  0.00  0.00    +0.000 C 
ENDBRANCH  24  26
ENDBRANCH   5  24
TORSDOF 8
ENDMDL
