MODEL 1
REMARK VINA RESULT:      -7.9      0.000      0.000
REMARK  Name = 
REMARK  4 active torsions:
REMARK  status: ('A' for Active; 'I' for Inactive)
REMARK    1  A    between atoms: N_4  and  C_5
REMARK    2  A    between atoms: N_17  and  C_18
REMARK    3  A    between atoms: C_18  and  C_19
REMARK    4  A    between atoms: C_22  and  O_23
REMARK                            x       y       z     vdW  Elec       q    Type
REMARK                         _______ _______ _______ _____ _____    ______ ____
ROOT
ATOM      1  O   UNL     1       0.737   9.477  21.321  0.00  0.00    +0.000 OA
ATOM      2  C   UNL     1       1.260   8.857  20.411  0.00  0.00    +0.000 A 
ATOM      3  S   UNL     1       1.749   7.172  20.552  0.00  0.00    +0.000 S 
ATOM      4  N   UNL     1       2.316   7.149  18.950  0.00  0.00    +0.000 N 
ATOM      5  C   UNL     1       2.059   8.351  18.273  0.00  0.00    +0.000 A 
ATOM      6  O   UNL     1       2.225   8.553  17.075  0.00  0.00    +0.000 OA
ATOM      7  N   UNL     1       1.517   9.287  19.141  0.00  0.00    +0.000 N 
ENDROOT
BRANCH   4   8
ATOM      8  C   UNL     1       2.732   5.961  18.303  0.00  0.00    +0.000 A 
ATOM      9  C   UNL     1       1.835   4.881  18.232  0.00  0.00    +0.000 A 
ATOM     10  C   UNL     1       2.185   3.710  17.567  0.00  0.00    +0.000 A 
ATOM     11  C   UNL     1       3.447   3.591  16.990  0.00  0.00    +0.000 A 
ATOM     12  C   UNL     1       4.379   4.637  17.075  0.00  0.00    +0.000 A 
ATOM     13  C   UNL     1       5.661   4.476  16.522  0.00  0.00    +0.000 A 
ATOM     14  C   UNL     1       6.619   5.484  16.622  0.00  0.00    +0.000 A 
ATOM     15  C   UNL     1       6.307   6.667  17.277  0.00  0.00    +0.000 A 
ATOM     16  C   UNL     1       5.036   6.843  17.826  0.00  0.00    +0.000 A 
ATOM     17  C   UNL     1       4.034   5.847  17.731  0.00  0.00    +0.000 A 
ENDBRANCH   4   8
BRANCH   7  18
ATOM     18  C   UNL     1       1.091  10.593  18.685  0.00  0.00    +0.000 C 
BRANCH  18  19
ATOM     19  C   UNL     1      -0.401  10.669  18.455  0.00  0.00    +0.000 A 
ATOM     20  C   UNL     1      -1.016   9.837  17.505  0.00  0.00    +0.000 A 
ATOM     21  C   UNL     1      -2.390   9.919  17.270  0.00  0.00    +0.000 A 
ATOM     22  C   UNL     1      -3.152  10.834  17.987  0.00  0.00    +0.000 A 
ATOM     23  C   UNL     1      -2.565  11.655  18.942  0.00  0.00    +0.000 A 
ATOM     24  C   UNL     1      -1.190  11.579  19.172  0.00  0.00    +0.000 A 
BRANCH  22  25
ATOM     25  O   UNL     1      -4.492  10.963  17.772  0.00  0.00    +0.000 OA
ATOM     26  H   UNL     1      -4.782  11.815  18.135  0.00  0.00    +0.000 HD
ENDBRANCH  22  25
ENDBRANCH  18  19
ENDBRANCH   7  18
TORSDOF 4
ENDMDL
MODEL 2
REMARK VINA RESULT:      -7.8      2.450      7.463
REMARK  Name = 
REMARK  4 active torsions:
REMARK  status: ('A' for Active; 'I' for Inactive)
REMARK    1  A    between atoms: N_4  and  C_5
REMARK    2  A    between atoms: N_17  and  C_18
REMARK    3  A    between atoms: C_18  and  C_19
REMARK    4  A    between atoms: C_22  and  O_23
REMARK                            x       y       z     vdW  Elec       q    Type
REMARK                         _______ _______ _______ _____ _____    ______ ____
ROOT
ATOM      1  O   UNL     1       3.549   7.482  17.475  0.00  0.00    +0.000 OA
ATOM      2  C   UNL     1       2.750   8.021  18.220  0.00  0.00    +0.000 A 
ATOM      3  S   UNL     1       1.801   9.429  17.756  0.00  0.00    +0.000 S 
ATOM      4  N   UNL     1       1.033   9.475  19.272  0.00  0.00    +0.000 N 
ATOM      5  C   UNL     1       1.399   8.397  20.092  0.00  0.00    +0.000 A 
ATOM      6  O   UNL     1       0.890   8.103  21.167  0.00  0.00    +0.000 OA
ATOM      7  N   UNL     1       2.394   7.645  19.483  0.00  0.00    +0.000 N 
ENDROOT
BRANCH   4   8
ATOM      8  C   UNL     1      -0.057  10.335  19.552  0.00  0.00    +0.000 A 
ATOM      9  C   UNL     1      -0.048  11.067  20.751  0.00  0.00    +0.000 A 
ATOM     10  C   UNL     1      -1.076  11.958  21.047  0.00  0.00    +0.000 A 
ATOM     11  C   UNL     1      -2.140  12.105  20.161  0.00  0.00    +0.000 A 
ATOM     12  C   UNL     1      -2.198  11.361  18.972  0.00  0.00    +0.000 A 
ATOM     13  C   UNL     1      -3.304  11.496  18.116  0.00  0.00    +0.000 A 
ATOM     14  C   UNL     1      -3.404  10.744  16.948  0.00  0.00    +0.000 A 
ATOM     15  C   UNL     1      -2.399   9.846  16.618  0.00  0.00    +0.000 A 
ATOM     16  C   UNL     1      -1.291   9.706  17.456  0.00  0.00    +0.000 A 
ATOM     17  C   UNL     1      -1.149  10.463  18.644  0.00  0.00    +0.000 A 
ENDBRANCH   4   8
BRANCH   7  18
ATOM     18  C   UNL     1       2.905   6.431  20.082  0.00  0.00    +0.000 C 
BRANCH  18  19
ATOM     19  C   UNL     1       2.163   5.198  19.620  0.00  0.00    +0.000 A 
ATOM     20  C   UNL     1       1.386   4.457  20.525  0.00  0.00    +0.000 A 
ATOM     21  C   UNL     1       0.717   3.304  20.112  0.00  0.00    +0.000 A 
ATOM     22  C   UNL     1       0.824   2.889  18.789  0.00  0.00    +0.000 A 
ATOM     23  C   UNL     1       1.576   3.617  17.874  0.00  0.00    +0.000 A 
ATOM     24  C   UNL     1       2.251   4.767  18.289  0.00  0.00    +0.000 A 
BRANCH  22  25
ATOM     25  O   UNL     1       0.207   1.756  18.349  0.00  0.00    +0.000 OA
ATOM     26  H   UNL     1       0.583   1.515  17.487  0.00  0.00    +0.000 HD
ENDBRANCH  22  25
ENDBRANCH  18  19
ENDBRANCH   7  18
TORSDOF 4
ENDMDL
MODEL 3
REMARK VINA RESULT:      -7.7      1.119      2.563
REMARK  Name = 
REMARK  4 active torsions:
REMARK  status: ('A' for Active; 'I' for Inactive)
REMARK    1  A    between atoms: N_4  and  C_5
REMARK    2  A    between atoms: N_17  and  C_18
REMARK    3  A    between atoms: C_18  and  C_19
REMARK    4  A    between atoms: C_22  and  O_23
REMARK                            x       y       z     vdW  Elec       q    Type
REMARK                         _______ _______ _______ _____ _____    ______ ____
ROOT
ATOM      1  O   UNL     1       0.092   9.953  21.393  0.00  0.00    +0.000 OA
ATOM      2  C   UNL     1       0.764   9.367  20.563  0.00  0.00    +0.000 A 
ATOM      3  S   UNL     1       1.428   7.758  20.827  0.00  0.00    +0.000 S 
ATOM      4  N   UNL     1       2.140   7.743  19.283  0.00  0.00    +0.000 N 
ATOM      5  C   UNL     1       1.810   8.880  18.529  0.00  0.00    +0.000 A 
ATOM      6  O   UNL     1       2.061   9.056  17.342  0.00  0.00    +0.000 OA
ATOM      7  N   UNL     1       1.086   9.776  19.302  0.00  0.00    +0.000 N 
ENDROOT
BRANCH   4   8
ATOM      8  C   UNL     1       2.748   6.589  18.732  0.00  0.00    +0.000 A 
ATOM      9  C   UNL     1       3.755   6.752  17.766  0.00  0.00    +0.000 A 
ATOM     10  C   UNL     1       4.411   5.648  17.230  0.00  0.00    +0.000 A 
ATOM     11  C   UNL     1       4.047   4.365  17.631  0.00  0.00    +0.000 A 
ATOM     12  C   UNL     1       3.020   4.166  18.566  0.00  0.00    +0.000 A 
ATOM     13  C   UNL     1       2.642   2.860  18.922  0.00  0.00    +0.000 A 
ATOM     14  C   UNL     1       1.602   2.632  19.821  0.00  0.00    +0.000 A 
ATOM     15  C   UNL     1       0.925   3.708  20.377  0.00  0.00    +0.000 A 
ATOM     16  C   UNL     1       1.293   5.011  20.038  0.00  0.00    +0.000 A 
ATOM     17  C   UNL     1       2.354   5.281  19.139  0.00  0.00    +0.000 A 
ENDBRANCH   4   8
BRANCH   7  18
ATOM     18  C   UNL     1       0.556  11.004  18.748  0.00  0.00    +0.000 C 
BRANCH  18  19
ATOM     19  C   UNL     1      -0.922  10.915  18.448  0.00  0.00    +0.000 A 
ATOM     20  C   UNL     1      -1.407   9.952  17.549  0.00  0.00    +0.000 A 
ATOM     21  C   UNL     1      -2.768   9.879  17.248  0.00  0.00    +0.000 A 
ATOM     22  C   UNL     1      -3.649  10.773  17.848  0.00  0.00    +0.000 A 
ATOM     23  C   UNL     1      -3.190  11.724  18.751  0.00  0.00    +0.000 A 
ATOM     24  C   UNL     1      -1.828  11.802  19.047  0.00  0.00    +0.000 A 
BRANCH  22  25
ATOM     25  O   UNL     1      -4.982  10.753  17.565  0.00  0.00    +0.000 OA
ATOM     26  H   UNL     1      -5.351   9.911  17.877  0.00  0.00    +0.000 HD
ENDBRANCH  22  25
ENDBRANCH  18  19
ENDBRANCH   7  18
TORSDOF 4
ENDMDL
MODEL 4
REMARK VINA RESULT:      -7.5      2.109      3.947
REMARK  Name = 
REMARK  4 active torsions:
REMARK  status: ('A' for Active; 'I' for Inactive)
REMARK    1  A    between atoms: N_4  and  C_5
REMARK    2  A    between atoms: N_17  and  C_18
REMARK    3  A    between atoms: C_18  and  C_19
REMARK    4  A    between atoms: C_22  and  O_23
REMARK                            x       y       z     vdW  Elec       q    Type
REMARK                         _______ _______ _______ _____ _____    ______ ____
ROOT
ATOM      1  O   UNL     1       0.456   9.122  21.475  0.00  0.00    +0.000 OA
ATOM      2  C   UNL     1       1.104   8.729  20.520  0.00  0.00    +0.000 A 
ATOM      3  S   UNL     1       1.955   7.188  20.505  0.00  0.00    +0.000 S 
ATOM      4  N   UNL     1       2.514   7.455  18.921  0.00  0.00    +0.000 N 
ATOM      5  C   UNL     1       1.997   8.633  18.361  0.00  0.00    +0.000 A 
ATOM      6  O   UNL     1       2.114   8.988  17.194  0.00  0.00    +0.000 OA
ATOM      7  N   UNL     1       1.260   9.332  19.306  0.00  0.00    +0.000 N 
ENDROOT
BRANCH   4   8
ATOM      8  C   UNL     1       3.183   6.459  18.169  0.00  0.00    +0.000 A 
ATOM      9  C   UNL     1       4.292   6.833  17.391  0.00  0.00    +0.000 A 
ATOM     10  C   UNL     1       5.007   5.881  16.671  0.00  0.00    +0.000 A 
ATOM     11  C   UNL     1       4.605   4.548  16.695  0.00  0.00    +0.000 A 
ATOM     12  C   UNL     1       3.480   4.148  17.433  0.00  0.00    +0.000 A 
ATOM     13  C   UNL     1       3.069   2.805  17.407  0.00  0.00    +0.000 A 
ATOM     14  C   UNL     1       1.935   2.386  18.100  0.00  0.00    +0.000 A 
ATOM     15  C   UNL     1       1.196   3.306  18.831  0.00  0.00    +0.000 A 
ATOM     16  C   UNL     1       1.596   4.643  18.871  0.00  0.00    +0.000 A 
ATOM     17  C   UNL     1       2.750   5.101  18.190  0.00  0.00    +0.000 A 
ENDBRANCH   4   8
BRANCH   7  18
ATOM     18  C   UNL     1       0.555  10.551  18.972  0.00  0.00    +0.000 C 
BRANCH  18  19
ATOM     19  C   UNL     1       1.381  11.789  19.229  0.00  0.00    +0.000 A 
ATOM     20  C   UNL     1       1.359  12.408  20.490  0.00  0.00    +0.000 A 
ATOM     21  C   UNL     1       2.102  13.567  20.728  0.00  0.00    +0.000 A 
ATOM     22  C   UNL     1       2.870  14.108  19.703  0.00  0.00    +0.000 A 
ATOM     23  C   UNL     1       2.916  13.502  18.453  0.00  0.00    +0.000 A 
ATOM     24  C   UNL     1       2.168  12.348  18.212  0.00  0.00    +0.000 A 
BRANCH  22  25
ATOM     25  O   UNL     1       3.591  15.251  19.885  0.00  0.00    +0.000 OA
ATOM     26  H   UNL     1       3.230  15.725  20.651  0.00  0.00    +0.000 HD
ENDBRANCH  22  25
ENDBRANCH  18  19
ENDBRANCH   7  18
TORSDOF 4
ENDMDL
MODEL 5
REMARK VINA RESULT:      -7.2      1.762      3.254
REMARK  Name = 
REMARK  4 active torsions:
REMARK  status: ('A' for Active; 'I' for Inactive)
REMARK    1  A    between atoms: N_4  and  C_5
REMARK    2  A    between atoms: N_17  and  C_18
REMARK    3  A    between atoms: C_18  and  C_19
REMARK    4  A    between atoms: C_22  and  O_23
REMARK                            x       y       z     vdW  Elec       q    Type
REMARK                         _______ _______ _______ _____ _____    ______ ____
ROOT
ATOM      1  O   UNL     1       2.111  10.292  17.465  0.00  0.00    +0.000 OA
ATOM      2  C   UNL     1       2.230   9.207  18.008  0.00  0.00    +0.000 A 
ATOM      3  S   UNL     1       3.254   7.922  17.376  0.00  0.00    +0.000 S 
ATOM      4  N   UNL     1       2.844   6.891  18.664  0.00  0.00    +0.000 N 
ATOM      5  C   UNL     1       2.029   7.522  19.617  0.00  0.00    +0.000 A 
ATOM      6  O   UNL     1       1.710   7.065  20.709  0.00  0.00    +0.000 OA
ATOM      7  N   UNL     1       1.673   8.790  19.182  0.00  0.00    +0.000 N 
ENDROOT
BRANCH   4   8
ATOM      8  C   UNL     1       3.487   5.649  18.884  0.00  0.00    +0.000 A 
ATOM      9  C   UNL     1       4.874   5.637  19.108  0.00  0.00    +0.000 A 
ATOM     10  C   UNL     1       5.540   4.445  19.373  0.00  0.00    +0.000 A 
ATOM     11  C   UNL     1       4.833   3.245  19.388  0.00  0.00    +0.000 A 
ATOM     12  C   UNL     1       3.454   3.218  19.132  0.00  0.00    +0.000 A 
ATOM     13  C   UNL     1       2.771   1.990  19.111  0.00  0.00    +0.000 A 
ATOM     14  C   UNL     1       1.409   1.930  18.824  0.00  0.00    +0.000 A 
ATOM     15  C   UNL     1       0.709   3.098  18.556  0.00  0.00    +0.000 A 
ATOM     16  C   UNL     1       1.373   4.326  18.580  0.00  0.00    +0.000 A 
ATOM     17  C   UNL     1       2.753   4.427  18.880  0.00  0.00    +0.000 A 
ENDBRANCH   4   8
BRANCH   7  18
ATOM     18  C   UNL     1       0.892   9.687  20.007  0.00  0.00    +0.000 C 
BRANCH  18  19
ATOM     19  C   UNL     1      -0.257  10.316  19.255  0.00  0.00    +0.000 A 
ATOM     20  C   UNL     1      -0.453  11.706  19.291  0.00  0.00    +0.000 A 
ATOM     21  C   UNL     1      -1.527  12.293  18.618  0.00  0.00    +0.000 A 
ATOM     22  C   UNL     1      -2.408  11.487  17.905  0.00  0.00    +0.000 A 
ATOM     23  C   UNL     1      -2.222  10.111  17.844  0.00  0.00    +0.000 A 
ATOM     24  C   UNL     1      -1.153   9.523  18.523  0.00  0.00    +0.000 A 
BRANCH  22  25
ATOM     25  O   UNL     1      -3.482  12.015  17.253  0.00  0.00    +0.000 OA
ATOM     26  H   UNL     1      -3.300  12.005  16.299  0.00  0.00    +0.000 HD
ENDBRANCH  22  25
ENDBRANCH  18  19
ENDBRANCH   7  18
TORSDOF 4
ENDMDL
MODEL 6
REMARK VINA RESULT:      -7.1      2.013      7.670
REMARK  Name = 
REMARK  4 active torsions:
REMARK  status: ('A' for Active; 'I' for Inactive)
REMARK    1  A    between atoms: N_4  and  C_5
REMARK    2  A    between atoms: N_17  and  C_18
REMARK    3  A    between atoms: C_18  and  C_19
REMARK    4  A    between atoms: C_22  and  O_23
REMARK                            x       y       z     vdW  Elec       q    Type
REMARK                         _______ _______ _______ _____ _____    ______ ____
ROOT
ATOM      1  O   UNL     1       2.621   6.338  20.698  0.00  0.00    +0.000 OA
ATOM      2  C   UNL     1       2.140   7.282  20.096  0.00  0.00    +0.000 A 
ATOM      3  S   UNL     1       1.029   8.429  20.836  0.00  0.00    +0.000 S 
ATOM      4  N   UNL     1       0.905   9.319  19.393  0.00  0.00    +0.000 N 
ATOM      5  C   UNL     1       1.756   8.834  18.389  0.00  0.00    +0.000 A 
ATOM      6  O   UNL     1       1.978   9.371  17.310  0.00  0.00    +0.000 OA
ATOM      7  N   UNL     1       2.384   7.670  18.811  0.00  0.00    +0.000 N 
ENDROOT
BRANCH   4   8
ATOM      8  C   UNL     1       0.240  10.567  19.318  0.00  0.00    +0.000 A 
ATOM      9  C   UNL     1       0.868  11.700  19.861  0.00  0.00    +0.000 A 
ATOM     10  C   UNL     1       0.271  12.955  19.770  0.00  0.00    +0.000 A 
ATOM     11  C   UNL     1      -0.975  13.086  19.163  0.00  0.00    +0.000 A 
ATOM     12  C   UNL     1      -1.646  11.968  18.645  0.00  0.00    +0.000 A 
ATOM     13  C   UNL     1      -2.922  12.121  18.076  0.00  0.00    +0.000 A 
ATOM     14  C   UNL     1      -3.627  11.023  17.586  0.00  0.00    +0.000 A 
ATOM     15  C   UNL     1      -3.065   9.756  17.657  0.00  0.00    +0.000 A 
ATOM     16  C   UNL     1      -1.795   9.590  18.214  0.00  0.00    +0.000 A 
ATOM     17  C   UNL     1      -1.045  10.684  18.710  0.00  0.00    +0.000 A 
ENDBRANCH   4   8
BRANCH   7  18
ATOM     18  C   UNL     1       3.373   6.999  17.994  0.00  0.00    +0.000 C 
BRANCH  18  19
ATOM     19  C   UNL     1       3.183   5.501  17.967  0.00  0.00    +0.000 A 
ATOM     20  C   UNL     1       1.906   4.950  17.771  0.00  0.00    +0.000 A 
ATOM     21  C   UNL     1       1.719   3.566  17.769  0.00  0.00    +0.000 A 
ATOM     22  C   UNL     1       2.812   2.729  17.963  0.00  0.00    +0.000 A 
ATOM     23  C   UNL     1       4.086   3.254  18.144  0.00  0.00    +0.000 A 
ATOM     24  C   UNL     1       4.273   4.638  18.153  0.00  0.00    +0.000 A 
BRANCH  22  25
ATOM     25  O   UNL     1       2.671   1.374  17.992  0.00  0.00    +0.000 OA
ATOM     26  H   UNL     1       3.460   0.973  17.593  0.00  0.00    +0.000 HD
ENDBRANCH  22  25
ENDBRANCH  18  19
ENDBRANCH   7  18
TORSDOF 4
ENDMDL
MODEL 7
REMARK VINA RESULT:      -7.1      1.197      1.727
REMARK  Name = 
REMARK  4 active torsions:
REMARK  status: ('A' for Active; 'I' for Inactive)
REMARK    1  A    between atoms: N_4  and  C_5
REMARK    2  A    between atoms: N_17  and  C_18
REMARK    3  A    between atoms: C_18  and  C_19
REMARK    4  A    between atoms: C_22  and  O_23
REMARK                            x       y       z     vdW  Elec       q    Type
REMARK                         _______ _______ _______ _____ _____    ______ ____
ROOT
ATOM      1  O   UNL     1       0.601  11.010  21.547  0.00  0.00    +0.000 OA
ATOM      2  C   UNL     1       0.980  10.092  20.840  0.00  0.00    +0.000 A 
ATOM      3  S   UNL     1       1.490   8.534  21.481  0.00  0.00    +0.000 S 
ATOM      4  N   UNL     1       1.804   7.938  19.920  0.00  0.00    +0.000 N 
ATOM      5  C   UNL     1       1.443   8.848  18.915  0.00  0.00    +0.000 A 
ATOM      6  O   UNL     1       1.421   8.622  17.711  0.00  0.00    +0.000 OA
ATOM      7  N   UNL     1       1.037  10.050  19.477  0.00  0.00    +0.000 N 
ENDROOT
BRANCH   4   8
ATOM      8  C   UNL     1       2.119   6.581  19.668  0.00  0.00    +0.000 A 
ATOM      9  C   UNL     1       1.495   5.588  20.443  0.00  0.00    +0.000 A 
ATOM     10  C   UNL     1       1.741   4.239  20.201  0.00  0.00    +0.000 A 
ATOM     11  C   UNL     1       2.636   3.867  19.202  0.00  0.00    +0.000 A 
ATOM     12  C   UNL     1       3.305   4.835  18.435  0.00  0.00    +0.000 A 
ATOM     13  C   UNL     1       4.236   4.434  17.462  0.00  0.00    +0.000 A 
ATOM     14  C   UNL     1       4.940   5.374  16.712  0.00  0.00    +0.000 A 
ATOM     15  C   UNL     1       4.722   6.727  16.923  0.00  0.00    +0.000 A 
ATOM     16  C   UNL     1       3.795   7.140  17.882  0.00  0.00    +0.000 A 
ATOM     17  C   UNL     1       3.052   6.214  18.654  0.00  0.00    +0.000 A 
ENDBRANCH   4   8
BRANCH   7  18
ATOM     18  C   UNL     1       0.542  11.142  18.667  0.00  0.00    +0.000 C 
BRANCH  18  19
ATOM     19  C   UNL     1      -0.950  11.065  18.438  0.00  0.00    +0.000 A 
ATOM     20  C   UNL     1      -1.817  11.940  19.113  0.00  0.00    +0.000 A 
ATOM     21  C   UNL     1      -3.198  11.859  18.925  0.00  0.00    +0.000 A 
ATOM     22  C   UNL     1      -3.715  10.901  18.060  0.00  0.00    +0.000 A 
ATOM     23  C   UNL     1      -2.873  10.035  17.373  0.00  0.00    +0.000 A 
ATOM     24  C   UNL     1      -1.492  10.111  17.565  0.00  0.00    +0.000 A 
BRANCH  22  25
ATOM     25  O   UNL     1      -5.058  10.772  17.866  0.00  0.00    +0.000 OA
ATOM     26  H   UNL     1      -5.246   9.855  17.608  0.00  0.00    +0.000 HD
ENDBRANCH  22  25
ENDBRANCH  18  19
ENDBRANCH   7  18
TORSDOF 4
ENDMDL
MODEL 8
REMARK VINA RESULT:      -7.1      2.025      3.281
REMARK  Name = 
REMARK  4 active torsions:
REMARK  status: ('A' for Active; 'I' for Inactive)
REMARK    1  A    between atoms: N_4  and  C_5
REMARK    2  A    between atoms: N_17  and  C_18
REMARK    3  A    between atoms: C_18  and  C_19
REMARK    4  A    between atoms: C_22  and  O_23
REMARK                            x       y       z     vdW  Elec       q    Type
REMARK                         _______ _______ _______ _____ _____    ______ ____
ROOT
ATOM      1  O   UNL     1       0.676   9.485  21.457  0.00  0.00    +0.000 OA
ATOM      2  C   UNL     1       1.182   8.913  20.507  0.00  0.00    +0.000 A 
ATOM      3  S   UNL     1       1.874   7.298  20.615  0.00  0.00    +0.000 S 
ATOM      4  N   UNL     1       2.292   7.312  18.967  0.00  0.00    +0.000 N 
ATOM      5  C   UNL     1       1.836   8.464  18.307  0.00  0.00    +0.000 A 
ATOM      6  O   UNL     1       1.867   8.662  17.098  0.00  0.00    +0.000 OA
ATOM      7  N   UNL     1       1.271   9.347  19.216  0.00  0.00    +0.000 N 
ENDROOT
BRANCH   4   8
ATOM      8  C   UNL     1       2.782   6.167  18.293  0.00  0.00    +0.000 A 
ATOM      9  C   UNL     1       1.958   5.033  18.201  0.00  0.00    +0.000 A 
ATOM     10  C   UNL     1       2.381   3.902  17.509  0.00  0.00    +0.000 A 
ATOM     11  C   UNL     1       3.645   3.879  16.927  0.00  0.00    +0.000 A 
ATOM     12  C   UNL     1       4.508   4.982  17.031  0.00  0.00    +0.000 A 
ATOM     13  C   UNL     1       5.795   4.918  16.471  0.00  0.00    +0.000 A 
ATOM     14  C   UNL     1       6.684   5.984  16.591  0.00  0.00    +0.000 A 
ATOM     15  C   UNL     1       6.299   7.129  17.273  0.00  0.00    +0.000 A 
ATOM     16  C   UNL     1       5.021   7.210  17.829  0.00  0.00    +0.000 A 
ATOM     17  C   UNL     1       4.086   6.152  17.715  0.00  0.00    +0.000 A 
ENDBRANCH   4   8
BRANCH   7  18
ATOM     18  C   UNL     1       0.656  10.586  18.791  0.00  0.00    +0.000 C 
BRANCH  18  19
ATOM     19  C   UNL     1       1.541  11.786  19.033  0.00  0.00    +0.000 A 
ATOM     20  C   UNL     1       1.474  12.484  20.250  0.00  0.00    +0.000 A 
ATOM     21  C   UNL     1       2.272  13.609  20.471  0.00  0.00    +0.000 A 
ATOM     22  C   UNL     1       3.140  14.037  19.473  0.00  0.00    +0.000 A 
ATOM     23  C   UNL     1       3.232  13.351  18.268  0.00  0.00    +0.000 A 
ATOM     24  C   UNL     1       2.429  12.231  18.044  0.00  0.00    +0.000 A 
BRANCH  22  25
ATOM     25  O   UNL     1       3.919  15.143  19.639  0.00  0.00    +0.000 OA
ATOM     26  H   UNL     1       3.536  15.870  19.122  0.00  0.00    +0.000 HD
ENDBRANCH  22  25
ENDBRANCH  18  19
ENDBRANCH   7  18
TORSDOF 4
ENDMDL
MODEL 9
REMARK VINA RESULT:      -7.0      1.952      3.632
REMARK  Name = 
REMARK  4 active torsions:
REMARK  status: ('A' for Active; 'I' for Inactive)
REMARK    1  A    between atoms: N_4  and  C_5
REMARK    2  A    between atoms: N_17  and  C_18
REMARK    3  A    between atoms: C_18  and  C_19
REMARK    4  A    between atoms: C_22  and  O_23
REMARK                            x       y       z     vdW  Elec       q    Type
REMARK                         _______ _______ _______ _____ _____    ______ ____
ROOT
ATOM      1  O   UNL     1       0.226   8.925  21.586  0.00  0.00    +0.000 OA
ATOM      2  C   UNL     1       0.906   8.652  20.612  0.00  0.00    +0.000 A 
ATOM      3  S   UNL     1       1.923   7.218  20.521  0.00  0.00    +0.000 S 
ATOM      4  N   UNL     1       2.437   7.620  18.951  0.00  0.00    +0.000 N 
ATOM      5  C   UNL     1       1.788   8.759  18.449  0.00  0.00    +0.000 A 
ATOM      6  O   UNL     1       1.856   9.180  17.300  0.00  0.00    +0.000 OA
ATOM      7  N   UNL     1       0.985   9.326  19.428  0.00  0.00    +0.000 N 
ENDROOT
BRANCH   4   8
ATOM      8  C   UNL     1       3.207   6.743  18.150  0.00  0.00    +0.000 A 
ATOM      9  C   UNL     1       4.311   7.260  17.451  0.00  0.00    +0.000 A 
ATOM     10  C   UNL     1       5.122   6.426  16.687  0.00  0.00    +0.000 A 
ATOM     11  C   UNL     1       4.824   5.070  16.589  0.00  0.00    +0.000 A 
ATOM     12  C   UNL     1       3.707   4.528  17.245  0.00  0.00    +0.000 A 
ATOM     13  C   UNL     1       3.402   3.165  17.095  0.00  0.00    +0.000 A 
ATOM     14  C   UNL     1       2.280   2.608  17.705  0.00  0.00    +0.000 A 
ATOM     15  C   UNL     1       1.447   3.407  18.476  0.00  0.00    +0.000 A 
ATOM     16  C   UNL     1       1.741   4.762  18.639  0.00  0.00    +0.000 A 
ATOM     17  C   UNL     1       2.880   5.359  18.044  0.00  0.00    +0.000 A 
ENDBRANCH   4   8
BRANCH   7  18
ATOM     18  C   UNL     1       0.146  10.473  19.155  0.00  0.00    +0.000 C 
BRANCH  18  19
ATOM     19  C   UNL     1       0.521  11.678  19.986  0.00  0.00    +0.000 A 
ATOM     20  C   UNL     1       1.767  12.303  19.808  0.00  0.00    +0.000 A 
ATOM     21  C   UNL     1       2.130  13.402  20.589  0.00  0.00    +0.000 A 
ATOM     22  C   UNL     1       1.246  13.879  21.551  0.00  0.00    +0.000 A 
ATOM     23  C   UNL     1       0.003  13.284  21.731  0.00  0.00    +0.000 A 
ATOM     24  C   UNL     1      -0.358  12.180  20.955  0.00  0.00    +0.000 A 
BRANCH  22  25
ATOM     25  O   UNL     1       1.570  14.934  22.350  0.00  0.00    +0.000 OA
ATOM     26  H   UNL     1       0.808  15.534  22.393  0.00  0.00    +0.000 HD
ENDBRANCH  22  25
ENDBRANCH  18  19
ENDBRANCH   7  18
TORSDOF 4
ENDMDL
