MODEL 1
REMARK VINA RESULT:      -7.2      0.000      0.000
REMARK  Name = 
REMARK  10 active torsions:
REMARK  status: ('A' for Active; 'I' for Inactive)
REMARK    1  A    between atoms: C_1  and  O_2
REMARK    2  A    between atoms: O_2  and  C_3
REMARK    3  A    between atoms: C_7  and  O_8
REMARK    4  A    between atoms: O_8  and  C_9
REMARK    5  A    between atoms: C_10  and  C_11
REMARK    6  A    between atoms: N_17  and  C_18
REMARK    7  A    between atoms: C_18  and  C_19
REMARK    8  A    between atoms: C_18  and  C_20
REMARK    9  A    between atoms: C_23  and  O_24
REMARK   10  A    between atoms: O_24  and  C_25
REMARK                            x       y       z     vdW  Elec       q    Type
REMARK                         _______ _______ _______ _____ _____    ______ ____
ROOT
ATOM      1  C   UNL     1       0.627  12.667  21.156  0.00  0.00    +0.000 C 
ATOM      2  C   UNL     1       1.242  14.041  21.454  0.00  0.00    +0.000 C 
ATOM      3  C   UNL     1       2.706  14.003  21.062  0.00  0.00    +0.000 C 
ATOM      4  C   UNL     1       2.783  13.798  19.571  0.00  0.00    +0.000 C 
ATOM      5  C   UNL     1       2.002  12.604  19.052  0.00  0.00    +0.000 C 
ATOM      6  O   UNL     1       2.337  12.165  17.950  0.00  0.00    +0.000 OA
ATOM      7  N   UNL     1       0.911  12.127  19.788  0.00  0.00    +0.000 N 
ENDROOT
BRANCH   1  13
ATOM      8  C   UNL     1      -1.155  11.756  22.750  0.00  0.00    +0.000 A 
ATOM      9  C   UNL     1      -2.415  11.832  23.348  0.00  0.00    +0.000 A 
ATOM     10  C   UNL     1      -3.375  12.705  22.873  0.00  0.00    +0.000 A 
ATOM     11  C   UNL     1      -3.076  13.531  21.795  0.00  0.00    +0.000 A 
ATOM     12  C   UNL     1      -1.802  13.521  21.210  0.00  0.00    +0.000 A 
ATOM     13  C   UNL     1      -0.814  12.626  21.680  0.00  0.00    +0.000 A 
BRANCH   8  15
ATOM     14  C   UNL     1      -0.540   9.501  23.154  0.00  0.00    +0.000 C 
ATOM     15  O   UNL     1      -0.192  10.886  23.211  0.00  0.00    +0.000 OA
ENDBRANCH   8  15
BRANCH  12  16
ATOM     16  O   UNL     1      -1.453  14.341  20.167  0.00  0.00    +0.000 OA
ATOM     17  C   UNL     1      -1.765  15.721  20.310  0.00  0.00    +0.000 C 
ENDBRANCH  12  16
ENDBRANCH   1  13
BRANCH   7  18
ATOM     18  C   UNL     1       0.228  10.857  19.337  0.00  0.00    +0.000 C 
ATOM     19  C   UNL     1      -0.711  11.065  18.117  0.00  0.00    +0.000 C 
BRANCH  18  20
ATOM     20  C   UNL     1       1.122   9.596  19.193  0.00  0.00    +0.000 A 
ATOM     21  C   UNL     1       1.385   8.728  20.261  0.00  0.00    +0.000 A 
ATOM     22  C   UNL     1       2.002   7.482  20.092  0.00  0.00    +0.000 A 
ATOM     23  C   UNL     1       2.379   7.048  18.841  0.00  0.00    +0.000 A 
ATOM     24  C   UNL     1       2.218   7.907  17.762  0.00  0.00    +0.000 A 
ATOM     25  C   UNL     1       1.580   9.152  17.937  0.00  0.00    +0.000 A 
BRANCH  23  26
ATOM     26  O   UNL     1       2.946   5.813  18.805  0.00  0.00    +0.000 OA
BRANCH  26  27
ATOM     27  C   UNL     1       2.103   4.686  18.610  0.00  0.00    +0.000 C 
ATOM     28  F   UNL     1       1.230   4.458  19.613  0.00  0.00    +0.000 F 
ATOM     29  F   UNL     1       1.409   4.856  17.465  0.00  0.00    +0.000 F 
ATOM     30  F   UNL     1       2.876   3.585  18.473  0.00  0.00    +0.000 F 
ENDBRANCH  26  27
ENDBRANCH  23  26
ENDBRANCH  18  20
ENDBRANCH   7  18
TORSDOF 7
ENDMDL
MODEL 2
REMARK VINA RESULT:      -7.0      0.198      2.365
REMARK  Name = 
REMARK  10 active torsions:
REMARK  status: ('A' for Active; 'I' for Inactive)
REMARK    1  A    between atoms: C_1  and  O_2
REMARK    2  A    between atoms: O_2  and  C_3
REMARK    3  A    between atoms: C_7  and  O_8
REMARK    4  A    between atoms: O_8  and  C_9
REMARK    5  A    between atoms: C_10  and  C_11
REMARK    6  A    between atoms: N_17  and  C_18
REMARK    7  A    between atoms: C_18  and  C_19
REMARK    8  A    between atoms: C_18  and  C_20
REMARK    9  A    between atoms: C_23  and  O_24
REMARK   10  A    between atoms: O_24  and  C_25
REMARK                            x       y       z     vdW  Elec       q    Type
REMARK                         _______ _______ _______ _____ _____    ______ ____
ROOT
ATOM      1  C   UNL     1       0.831  12.733  21.082  0.00  0.00    +0.000 C 
ATOM      2  C   UNL     1       1.476  14.106  21.323  0.00  0.00    +0.000 C 
ATOM      3  C   UNL     1       2.919  14.039  20.864  0.00  0.00    +0.000 C 
ATOM      4  C   UNL     1       2.924  13.802  19.377  0.00  0.00    +0.000 C 
ATOM      5  C   UNL     1       2.106  12.608  18.919  0.00  0.00    +0.000 C 
ATOM      6  O   UNL     1       2.384  12.142  17.813  0.00  0.00    +0.000 OA
ATOM      7  N   UNL     1       1.044  12.162  19.715  0.00  0.00    +0.000 N 
ENDROOT
BRANCH   1  13
ATOM      8  C   UNL     1      -1.571  13.610  21.163  0.00  0.00    +0.000 A 
ATOM      9  C   UNL     1      -2.903  13.494  21.570  0.00  0.00    +0.000 A 
ATOM     10  C   UNL     1      -3.277  12.564  22.520  0.00  0.00    +0.000 A 
ATOM     11  C   UNL     1      -2.317  11.720  23.066  0.00  0.00    +0.000 A 
ATOM     12  C   UNL     1      -0.983  11.770  22.637  0.00  0.00    +0.000 A 
ATOM     13  C   UNL     1      -0.586  12.723  21.673  0.00  0.00    +0.000 A 
BRANCH   8  15
ATOM     14  C   UNL     1      -1.673  15.865  20.433  0.00  0.00    +0.000 C 
ATOM     15  O   UNL     1      -1.186  14.538  20.220  0.00  0.00    +0.000 OA
ENDBRANCH   8  15
BRANCH  12  16
ATOM     16  O   UNL     1      -0.010  10.935  23.124  0.00  0.00    +0.000 OA
ATOM     17  C   UNL     1      -0.383   9.579  23.338  0.00  0.00    +0.000 C 
ENDBRANCH  12  16
ENDBRANCH   1  13
BRANCH   7  18
ATOM     18  C   UNL     1       0.325  10.892  19.323  0.00  0.00    +0.000 C 
ATOM     19  C   UNL     1      -0.637  11.079  18.118  0.00  0.00    +0.000 C 
BRANCH  18  20
ATOM     20  C   UNL     1       1.189   9.608  19.201  0.00  0.00    +0.000 A 
ATOM     21  C   UNL     1       1.400   8.733  20.275  0.00  0.00    +0.000 A 
ATOM     22  C   UNL     1       1.989   7.472  20.122  0.00  0.00    +0.000 A 
ATOM     23  C   UNL     1       2.389   7.029  18.881  0.00  0.00    +0.000 A 
ATOM     24  C   UNL     1       2.280   7.892  17.799  0.00  0.00    +0.000 A 
ATOM     25  C   UNL     1       1.671   9.153  17.958  0.00  0.00    +0.000 A 
BRANCH  23  26
ATOM     26  O   UNL     1       2.924   5.779  18.859  0.00  0.00    +0.000 OA
BRANCH  26  27
ATOM     27  C   UNL     1       2.061   4.676  18.624  0.00  0.00    +0.000 C 
ATOM     28  F   UNL     1       1.173   4.439  19.613  0.00  0.00    +0.000 F 
ATOM     29  F   UNL     1       1.382   4.892  17.478  0.00  0.00    +0.000 F 
ATOM     30  F   UNL     1       2.812   3.563  18.464  0.00  0.00    +0.000 F 
ENDBRANCH  26  27
ENDBRANCH  23  26
ENDBRANCH  18  20
ENDBRANCH   7  18
TORSDOF 7
ENDMDL
MODEL 3
REMARK VINA RESULT:      -6.9      0.561      1.070
REMARK  Name = 
REMARK  10 active torsions:
REMARK  status: ('A' for Active; 'I' for Inactive)
REMARK    1  A    between atoms: C_1  and  O_2
REMARK    2  A    between atoms: O_2  and  C_3
REMARK    3  A    between atoms: C_7  and  O_8
REMARK    4  A    between atoms: O_8  and  C_9
REMARK    5  A    between atoms: C_10  and  C_11
REMARK    6  A    between atoms: N_17  and  C_18
REMARK    7  A    between atoms: C_18  and  C_19
REMARK    8  A    between atoms: C_18  and  C_20
REMARK    9  A    between atoms: C_23  and  O_24
REMARK   10  A    between atoms: O_24  and  C_25
REMARK                            x       y       z     vdW  Elec       q    Type
REMARK                         _______ _______ _______ _____ _____    ______ ____
ROOT
ATOM      1  C   UNL     1       0.549  12.673  21.141  0.00  0.00    +0.000 C 
ATOM      2  C   UNL     1       1.260  13.984  21.505  0.00  0.00    +0.000 C 
ATOM      3  C   UNL     1       2.711  13.872  21.081  0.00  0.00    +0.000 C 
ATOM      4  C   UNL     1       2.749  13.749  19.580  0.00  0.00    +0.000 C 
ATOM      5  C   UNL     1       1.881  12.642  19.009  0.00  0.00    +0.000 C 
ATOM      6  O   UNL     1       2.168  12.248  17.877  0.00  0.00    +0.000 OA
ATOM      7  N   UNL     1       0.773  12.197  19.739  0.00  0.00    +0.000 N 
ENDROOT
BRANCH   1  13
ATOM      8  C   UNL     1      -1.241  11.848  22.772  0.00  0.00    +0.000 A 
ATOM      9  C   UNL     1      -2.487  11.981  23.392  0.00  0.00    +0.000 A 
ATOM     10  C   UNL     1      -3.416  12.892  22.929  0.00  0.00    +0.000 A 
ATOM     11  C   UNL     1      -3.102  13.699  21.841  0.00  0.00    +0.000 A 
ATOM     12  C   UNL     1      -1.840  13.631  21.233  0.00  0.00    +0.000 A 
ATOM     13  C   UNL     1      -0.884  12.697  21.691  0.00  0.00    +0.000 A 
BRANCH   8  15
ATOM     14  C   UNL     1      -0.710   9.569  23.160  0.00  0.00    +0.000 C 
ATOM     15  O   UNL     1      -0.308  10.939  23.221  0.00  0.00    +0.000 OA
ENDBRANCH   8  15
BRANCH  12  16
ATOM     16  O   UNL     1      -1.475  14.430  20.179  0.00  0.00    +0.000 OA
ATOM     17  C   UNL     1      -1.745  15.820  20.311  0.00  0.00    +0.000 C 
ENDBRANCH  12  16
ENDBRANCH   1  13
BRANCH   7  18
ATOM     18  C   UNL     1      -0.002  11.003  19.229  0.00  0.00    +0.000 C 
ATOM     19  C   UNL     1      -0.845  11.315  17.963  0.00  0.00    +0.000 C 
BRANCH  18  20
ATOM     20  C   UNL     1       0.775   9.664  19.113  0.00  0.00    +0.000 A 
ATOM     21  C   UNL     1       1.401   9.253  17.929  0.00  0.00    +0.000 A 
ATOM     22  C   UNL     1       2.280   8.164  17.874  0.00  0.00    +0.000 A 
ATOM     23  C   UNL     1       2.575   7.441  19.008  0.00  0.00    +0.000 A 
ATOM     24  C   UNL     1       1.916   7.755  20.188  0.00  0.00    +0.000 A 
ATOM     25  C   UNL     1       1.045   8.863  20.240  0.00  0.00    +0.000 A 
BRANCH  23  26
ATOM     26  O   UNL     1       3.460   6.425  18.830  0.00  0.00    +0.000 OA
BRANCH  26  27
ATOM     27  C   UNL     1       3.000   5.221  18.231  0.00  0.00    +0.000 C 
ATOM     28  F   UNL     1       1.659   5.139  18.097  0.00  0.00    +0.000 F 
ATOM     29  F   UNL     1       3.563   5.101  17.010  0.00  0.00    +0.000 F 
ATOM     30  F   UNL     1       3.408   4.176  18.986  0.00  0.00    +0.000 F 
ENDBRANCH  26  27
ENDBRANCH  23  26
ENDBRANCH  18  20
ENDBRANCH   7  18
TORSDOF 7
ENDMDL
MODEL 4
REMARK VINA RESULT:      -6.9      0.544      2.564
REMARK  Name = 
REMARK  10 active torsions:
REMARK  status: ('A' for Active; 'I' for Inactive)
REMARK    1  A    between atoms: C_1  and  O_2
REMARK    2  A    between atoms: O_2  and  C_3
REMARK    3  A    between atoms: C_7  and  O_8
REMARK    4  A    between atoms: O_8  and  C_9
REMARK    5  A    between atoms: C_10  and  C_11
REMARK    6  A    between atoms: N_17  and  C_18
REMARK    7  A    between atoms: C_18  and  C_19
REMARK    8  A    between atoms: C_18  and  C_20
REMARK    9  A    between atoms: C_23  and  O_24
REMARK   10  A    between atoms: O_24  and  C_25
REMARK                            x       y       z     vdW  Elec       q    Type
REMARK                         _______ _______ _______ _____ _____    ______ ____
ROOT
ATOM      1  C   UNL     1       0.598  12.814  21.236  0.00  0.00    +0.000 C 
ATOM      2  C   UNL     1       1.354  14.103  21.590  0.00  0.00    +0.000 C 
ATOM      3  C   UNL     1       2.785  13.962  21.110  0.00  0.00    +0.000 C 
ATOM      4  C   UNL     1       2.764  13.860  19.608  0.00  0.00    +0.000 C 
ATOM      5  C   UNL     1       1.849  12.782  19.055  0.00  0.00    +0.000 C 
ATOM      6  O   UNL     1       2.083  12.398  17.908  0.00  0.00    +0.000 OA
ATOM      7  N   UNL     1       0.758  12.353  19.820  0.00  0.00    +0.000 N 
ENDROOT
BRANCH   1  13
ATOM      8  C   UNL     1      -1.757  13.805  21.351  0.00  0.00    +0.000 A 
ATOM      9  C   UNL     1      -3.089  13.749  21.771  0.00  0.00    +0.000 A 
ATOM     10  C   UNL     1      -3.499  12.824  22.711  0.00  0.00    +0.000 A 
ATOM     11  C   UNL     1      -2.577  11.927  23.237  0.00  0.00    +0.000 A 
ATOM     12  C   UNL     1      -1.246  11.919  22.795  0.00  0.00    +0.000 A 
ATOM     13  C   UNL     1      -0.811  12.865  21.840  0.00  0.00    +0.000 A 
BRANCH   8  15
ATOM     14  C   UNL     1      -1.769  16.070  20.644  0.00  0.00    +0.000 C 
ATOM     15  O   UNL     1      -1.336  14.726  20.418  0.00  0.00    +0.000 OA
ENDBRANCH   8  15
BRANCH  12  16
ATOM     16  O   UNL     1      -0.310  11.031  23.261  0.00  0.00    +0.000 OA
ATOM     17  C   UNL     1      -0.664   9.653  23.222  0.00  0.00    +0.000 C 
ENDBRANCH  12  16
ENDBRANCH   1  13
BRANCH   7  18
ATOM     18  C   UNL     1      -0.064  11.185  19.325  0.00  0.00    +0.000 C 
ATOM     19  C   UNL     1      -0.981  11.547  18.124  0.00  0.00    +0.000 C 
BRANCH  18  20
ATOM     20  C   UNL     1       0.685   9.841  19.119  0.00  0.00    +0.000 A 
ATOM     21  C   UNL     1       1.200   9.444  17.878  0.00  0.00    +0.000 A 
ATOM     22  C   UNL     1       2.060   8.348  17.729  0.00  0.00    +0.000 A 
ATOM     23  C   UNL     1       2.445   7.604  18.820  0.00  0.00    +0.000 A 
ATOM     24  C   UNL     1       1.895   7.904  20.059  0.00  0.00    +0.000 A 
ATOM     25  C   UNL     1       1.044   9.018  20.204  0.00  0.00    +0.000 A 
BRANCH  23  26
ATOM     26  O   UNL     1       3.300   6.582  18.549  0.00  0.00    +0.000 OA
BRANCH  26  27
ATOM     27  C   UNL     1       2.779   5.261  18.482  0.00  0.00    +0.000 C 
ATOM     28  F   UNL     1       2.584   4.674  19.681  0.00  0.00    +0.000 F 
ATOM     29  F   UNL     1       1.603   5.292  17.821  0.00  0.00    +0.000 F 
ATOM     30  F   UNL     1       3.638   4.491  17.776  0.00  0.00    +0.000 F 
ENDBRANCH  26  27
ENDBRANCH  23  26
ENDBRANCH  18  20
ENDBRANCH   7  18
TORSDOF 7
ENDMDL
MODEL 5
REMARK VINA RESULT:      -6.7      6.483      9.637
REMARK  Name = 
REMARK  10 active torsions:
REMARK  status: ('A' for Active; 'I' for Inactive)
REMARK    1  A    between atoms: C_1  and  O_2
REMARK    2  A    between atoms: O_2  and  C_3
REMARK    3  A    between atoms: C_7  and  O_8
REMARK    4  A    between atoms: O_8  and  C_9
REMARK    5  A    between atoms: C_10  and  C_11
REMARK    6  A    between atoms: N_17  and  C_18
REMARK    7  A    between atoms: C_18  and  C_19
REMARK    8  A    between atoms: C_18  and  C_20
REMARK    9  A    between atoms: C_23  and  O_24
REMARK   10  A    between atoms: O_24  and  C_25
REMARK                            x       y       z     vdW  Elec       q    Type
REMARK                         _______ _______ _______ _____ _____    ______ ____
ROOT
ATOM      1  C   UNL     1       4.831   5.366  17.332  0.00  0.00    +0.000 C 
ATOM      2  C   UNL     1       4.211   4.454  16.264  0.00  0.00    +0.000 C 
ATOM      3  C   UNL     1       5.092   4.497  15.032  0.00  0.00    +0.000 C 
ATOM      4  C   UNL     1       6.429   3.906  15.396  0.00  0.00    +0.000 C 
ATOM      5  C   UNL     1       7.089   4.527  16.614  0.00  0.00    +0.000 C 
ATOM      6  O   UNL     1       8.308   4.373  16.717  0.00  0.00    +0.000 OA
ATOM      7  N   UNL     1       6.292   5.151  17.581  0.00  0.00    +0.000 N 
ENDROOT
BRANCH   1  13
ATOM      8  C   UNL     1       3.169   6.663  18.781  0.00  0.00    +0.000 A 
ATOM      9  C   UNL     1       2.181   6.708  19.768  0.00  0.00    +0.000 A 
ATOM     10  C   UNL     1       1.923   5.610  20.565  0.00  0.00    +0.000 A 
ATOM     11  C   UNL     1       2.647   4.439  20.372  0.00  0.00    +0.000 A 
ATOM     12  C   UNL     1       3.605   4.343  19.352  0.00  0.00    +0.000 A 
ATOM     13  C   UNL     1       3.885   5.461  18.536  0.00  0.00    +0.000 A 
BRANCH   8  15
ATOM     14  C   UNL     1       2.331   8.624  17.740  0.00  0.00    +0.000 C 
ATOM     15  O   UNL     1       3.439   7.754  17.984  0.00  0.00    +0.000 OA
ENDBRANCH   8  15
BRANCH  12  16
ATOM     16  O   UNL     1       4.319   3.198  19.105  0.00  0.00    +0.000 OA
ATOM     17  C   UNL     1       4.481   2.300  20.197  0.00  0.00    +0.000 C 
ENDBRANCH  12  16
ENDBRANCH   1  13
BRANCH   7  18
ATOM     18  C   UNL     1       6.966   5.886  18.716  0.00  0.00    +0.000 C 
ATOM     19  C   UNL     1       7.934   4.990  19.537  0.00  0.00    +0.000 C 
BRANCH  18  20
ATOM     20  C   UNL     1       7.576   7.275  18.385  0.00  0.00    +0.000 A 
ATOM     21  C   UNL     1       7.035   8.127  17.413  0.00  0.00    +0.000 A 
ATOM     22  C   UNL     1       7.440   9.459  17.262  0.00  0.00    +0.000 A 
ATOM     23  C   UNL     1       8.404   9.998  18.084  0.00  0.00    +0.000 A 
ATOM     24  C   UNL     1       9.030   9.172  19.006  0.00  0.00    +0.000 A 
ATOM     25  C   UNL     1       8.606   7.837  19.164  0.00  0.00    +0.000 A 
BRANCH  23  26
ATOM     26  O   UNL     1       8.692  11.307  17.853  0.00  0.00    +0.000 OA
BRANCH  26  27
ATOM     27  C   UNL     1      10.051  11.720  17.900  0.00  0.00    +0.000 C 
ATOM     28  F   UNL     1      10.558  11.840  19.145  0.00  0.00    +0.000 F 
ATOM     29  F   UNL     1      10.799  10.831  17.214  0.00  0.00    +0.000 F 
ATOM     30  F   UNL     1      10.160  12.921  17.288  0.00  0.00    +0.000 F 
ENDBRANCH  26  27
ENDBRANCH  23  26
ENDBRANCH  18  20
ENDBRANCH   7  18
TORSDOF 7
ENDMDL
MODEL 6
REMARK VINA RESULT:      -6.6      1.124      1.283
REMARK  Name = 
REMARK  10 active torsions:
REMARK  status: ('A' for Active; 'I' for Inactive)
REMARK    1  A    between atoms: C_1  and  O_2
REMARK    2  A    between atoms: O_2  and  C_3
REMARK    3  A    between atoms: C_7  and  O_8
REMARK    4  A    between atoms: O_8  and  C_9
REMARK    5  A    between atoms: C_10  and  C_11
REMARK    6  A    between atoms: N_17  and  C_18
REMARK    7  A    between atoms: C_18  and  C_19
REMARK    8  A    between atoms: C_18  and  C_20
REMARK    9  A    between atoms: C_23  and  O_24
REMARK   10  A    between atoms: O_24  and  C_25
REMARK                            x       y       z     vdW  Elec       q    Type
REMARK                         _______ _______ _______ _____ _____    ______ ____
ROOT
ATOM      1  C   UNL     1       0.477  12.858  21.298  0.00  0.00    +0.000 C 
ATOM      2  C   UNL     1       1.080  14.222  21.660  0.00  0.00    +0.000 C 
ATOM      3  C   UNL     1       2.546  14.212  21.273  0.00  0.00    +0.000 C 
ATOM      4  C   UNL     1       2.630  14.073  19.775  0.00  0.00    +0.000 C 
ATOM      5  C   UNL     1       1.861  12.898  19.200  0.00  0.00    +0.000 C 
ATOM      6  O   UNL     1       2.205  12.511  18.081  0.00  0.00    +0.000 OA
ATOM      7  N   UNL     1       0.771  12.381  19.909  0.00  0.00    +0.000 N 
ENDROOT
BRANCH   1  13
ATOM      8  C   UNL     1      -1.299  11.883  22.860  0.00  0.00    +0.000 A 
ATOM      9  C   UNL     1      -2.564  11.925  23.452  0.00  0.00    +0.000 A 
ATOM     10  C   UNL     1      -3.534  12.795  22.994  0.00  0.00    +0.000 A 
ATOM     11  C   UNL     1      -3.242  13.651  21.938  0.00  0.00    +0.000 A 
ATOM     12  C   UNL     1      -1.964  13.674  21.360  0.00  0.00    +0.000 A 
ATOM     13  C   UNL     1      -0.967  12.783  21.813  0.00  0.00    +0.000 A 
BRANCH   8  15
ATOM     14  C   UNL     1      -0.621   9.626  23.138  0.00  0.00    +0.000 C 
ATOM     15  O   UNL     1      -0.326  11.015  23.305  0.00  0.00    +0.000 OA
ENDBRANCH   8  15
BRANCH  12  16
ATOM     16  O   UNL     1      -1.623  14.525  20.339  0.00  0.00    +0.000 OA
ATOM     17  C   UNL     1      -1.951  15.897  20.517  0.00  0.00    +0.000 C 
ENDBRANCH  12  16
ENDBRANCH   1  13
BRANCH   7  18
ATOM     18  C   UNL     1       0.100  11.127  19.400  0.00  0.00    +0.000 C 
ATOM     19  C   UNL     1      -0.838  11.383  18.188  0.00  0.00    +0.000 C 
BRANCH  18  20
ATOM     20  C   UNL     1       1.004   9.881  19.200  0.00  0.00    +0.000 A 
ATOM     21  C   UNL     1       1.347   9.018  20.250  0.00  0.00    +0.000 A 
ATOM     22  C   UNL     1       1.974   7.784  20.044  0.00  0.00    +0.000 A 
ATOM     23  C   UNL     1       2.282   7.356  18.772  0.00  0.00    +0.000 A 
ATOM     24  C   UNL     1       2.040   8.210  17.705  0.00  0.00    +0.000 A 
ATOM     25  C   UNL     1       1.393   9.444  17.919  0.00  0.00    +0.000 A 
BRANCH  23  26
ATOM     26  O   UNL     1       2.866   6.130  18.701  0.00  0.00    +0.000 OA
BRANCH  26  27
ATOM     27  C   UNL     1       4.144   6.022  18.089  0.00  0.00    +0.000 C 
ATOM     28  F   UNL     1       5.103   5.498  18.881  0.00  0.00    +0.000 F 
ATOM     29  F   UNL     1       4.032   5.256  16.983  0.00  0.00    +0.000 F 
ATOM     30  F   UNL     1       4.547   7.254  17.706  0.00  0.00    +0.000 F 
ENDBRANCH  26  27
ENDBRANCH  23  26
ENDBRANCH  18  20
ENDBRANCH   7  18
TORSDOF 7
ENDMDL
MODEL 7
REMARK VINA RESULT:      -6.5      6.463      9.374
REMARK  Name = 
REMARK  10 active torsions:
REMARK  status: ('A' for Active; 'I' for Inactive)
REMARK    1  A    between atoms: C_1  and  O_2
REMARK    2  A    between atoms: O_2  and  C_3
REMARK    3  A    between atoms: C_7  and  O_8
REMARK    4  A    between atoms: O_8  and  C_9
REMARK    5  A    between atoms: C_10  and  C_11
REMARK    6  A    between atoms: N_17  and  C_18
REMARK    7  A    between atoms: C_18  and  C_19
REMARK    8  A    between atoms: C_18  and  C_20
REMARK    9  A    between atoms: C_23  and  O_24
REMARK   10  A    between atoms: O_24  and  C_25
REMARK                            x       y       z     vdW  Elec       q    Type
REMARK                         _______ _______ _______ _____ _____    ______ ____
ROOT
ATOM      1  C   UNL     1       4.803   5.398  17.108  0.00  0.00    +0.000 C 
ATOM      2  C   UNL     1       4.274   4.475  16.001  0.00  0.00    +0.000 C 
ATOM      3  C   UNL     1       5.240   4.531  14.834  0.00  0.00    +0.000 C 
ATOM      4  C   UNL     1       6.557   3.963  15.293  0.00  0.00    +0.000 C 
ATOM      5  C   UNL     1       7.119   4.595  16.553  0.00  0.00    +0.000 C 
ATOM      6  O   UNL     1       8.330   4.461  16.743  0.00  0.00    +0.000 OA
ATOM      7  N   UNL     1       6.246   5.207  17.460  0.00  0.00    +0.000 N 
ENDROOT
BRANCH   1  13
ATOM      8  C   UNL     1       3.574   4.364  19.100  0.00  0.00    +0.000 A 
ATOM      9  C   UNL     1       2.768   4.481  20.235  0.00  0.00    +0.000 A 
ATOM     10  C   UNL     1       2.099   5.657  20.514  0.00  0.00    +0.000 A 
ATOM     11  C   UNL     1       2.243   6.744  19.659  0.00  0.00    +0.000 A 
ATOM     12  C   UNL     1       3.090   6.678  18.543  0.00  0.00    +0.000 A 
ATOM     13  C   UNL     1       3.772   5.479  18.243  0.00  0.00    +0.000 A 
BRANCH   8  15
ATOM     14  C   UNL     1       4.311   2.247  19.878  0.00  0.00    +0.000 C 
ATOM     15  O   UNL     1       4.242   3.194  18.810  0.00  0.00    +0.000 OA
ENDBRANCH   8  15
BRANCH  12  16
ATOM     16  O   UNL     1       3.286   7.737  17.692  0.00  0.00    +0.000 OA
ATOM     17  C   UNL     1       2.275   8.736  17.675  0.00  0.00    +0.000 C 
ENDBRANCH  12  16
ENDBRANCH   1  13
BRANCH   7  18
ATOM     18  C   UNL     1       6.825   5.954  18.639  0.00  0.00    +0.000 C 
ATOM     19  C   UNL     1       7.688   5.057  19.568  0.00  0.00    +0.000 C 
BRANCH  18  20
ATOM     20  C   UNL     1       7.498   7.321  18.338  0.00  0.00    +0.000 A 
ATOM     21  C   UNL     1       6.975   8.235  17.414  0.00  0.00    +0.000 A 
ATOM     22  C   UNL     1       7.445   9.549  17.297  0.00  0.00    +0.000 A 
ATOM     23  C   UNL     1       8.460  10.006  18.107  0.00  0.00    +0.000 A 
ATOM     24  C   UNL     1       9.069   9.115  18.979  0.00  0.00    +0.000 A 
ATOM     25  C   UNL     1       8.579   7.799  19.104  0.00  0.00    +0.000 A 
BRANCH  23  26
ATOM     26  O   UNL     1       8.811  11.306  17.914  0.00  0.00    +0.000 OA
BRANCH  26  27
ATOM     27  C   UNL     1      10.192  11.640  17.892  0.00  0.00    +0.000 C 
ATOM     28  F   UNL     1      10.466  12.856  17.377  0.00  0.00    +0.000 F 
ATOM     29  F   UNL     1      10.670  11.589  19.153  0.00  0.00    +0.000 F 
ATOM     30  F   UNL     1      10.850  10.717  17.156  0.00  0.00    +0.000 F 
ENDBRANCH  26  27
ENDBRANCH  23  26
ENDBRANCH  18  20
ENDBRANCH   7  18
TORSDOF 7
ENDMDL
MODEL 8
REMARK VINA RESULT:      -6.5      1.003      2.616
REMARK  Name = 
REMARK  10 active torsions:
REMARK  status: ('A' for Active; 'I' for Inactive)
REMARK    1  A    between atoms: C_1  and  O_2
REMARK    2  A    between atoms: O_2  and  C_3
REMARK    3  A    between atoms: C_7  and  O_8
REMARK    4  A    between atoms: O_8  and  C_9
REMARK    5  A    between atoms: C_10  and  C_11
REMARK    6  A    between atoms: N_17  and  C_18
REMARK    7  A    between atoms: C_18  and  C_19
REMARK    8  A    between atoms: C_18  and  C_20
REMARK    9  A    between atoms: C_23  and  O_24
REMARK   10  A    between atoms: O_24  and  C_25
REMARK                            x       y       z     vdW  Elec       q    Type
REMARK                         _______ _______ _______ _____ _____    ______ ____
ROOT
ATOM      1  C   UNL     1       0.784  12.674  21.136  0.00  0.00    +0.000 C 
ATOM      2  C   UNL     1       1.432  14.046  21.370  0.00  0.00    +0.000 C 
ATOM      3  C   UNL     1       2.875  13.975  20.915  0.00  0.00    +0.000 C 
ATOM      4  C   UNL     1       2.883  13.730  19.429  0.00  0.00    +0.000 C 
ATOM      5  C   UNL     1       2.063  12.536  18.976  0.00  0.00    +0.000 C 
ATOM      6  O   UNL     1       2.343  12.064  17.872  0.00  0.00    +0.000 OA
ATOM      7  N   UNL     1       0.999  12.095  19.771  0.00  0.00    +0.000 N 
ENDROOT
BRANCH   1  13
ATOM      8  C   UNL     1      -1.624  13.536  21.188  0.00  0.00    +0.000 A 
ATOM      9  C   UNL     1      -2.956  13.422  21.596  0.00  0.00    +0.000 A 
ATOM     10  C   UNL     1      -3.326  12.513  22.568  0.00  0.00    +0.000 A 
ATOM     11  C   UNL     1      -2.361  11.690  23.138  0.00  0.00    +0.000 A 
ATOM     12  C   UNL     1      -1.027  11.738  22.710  0.00  0.00    +0.000 A 
ATOM     13  C   UNL     1      -0.634  12.669  21.723  0.00  0.00    +0.000 A 
BRANCH   8  15
ATOM     14  C   UNL     1      -1.677  15.787  20.440  0.00  0.00    +0.000 C 
ATOM     15  O   UNL     1      -1.243  14.442  20.223  0.00  0.00    +0.000 OA
ENDBRANCH   8  15
BRANCH  12  16
ATOM     16  O   UNL     1      -0.049  10.923  23.221  0.00  0.00    +0.000 OA
ATOM     17  C   UNL     1      -0.349   9.534  23.287  0.00  0.00    +0.000 C 
ENDBRANCH  12  16
ENDBRANCH   1  13
BRANCH   7  18
ATOM     18  C   UNL     1       0.278  10.825  19.384  0.00  0.00    +0.000 C 
ATOM     19  C   UNL     1      -0.703  11.015  18.195  0.00  0.00    +0.000 C 
BRANCH  18  20
ATOM     20  C   UNL     1       1.145   9.545  19.242  0.00  0.00    +0.000 A 
ATOM     21  C   UNL     1       1.434   8.702  20.324  0.00  0.00    +0.000 A 
ATOM     22  C   UNL     1       2.023   7.442  20.168  0.00  0.00    +0.000 A 
ATOM     23  C   UNL     1       2.346   6.967  18.917  0.00  0.00    +0.000 A 
ATOM     24  C   UNL     1       2.159   7.798  17.821  0.00  0.00    +0.000 A 
ATOM     25  C   UNL     1       1.549   9.058  17.984  0.00  0.00    +0.000 A 
BRANCH  23  26
ATOM     26  O   UNL     1       2.891   5.721  18.895  0.00  0.00    +0.000 OA
BRANCH  26  27
ATOM     27  C   UNL     1       4.113   5.527  18.197  0.00  0.00    +0.000 C 
ATOM     28  F   UNL     1       4.667   4.308  18.365  0.00  0.00    +0.000 F 
ATOM     29  F   UNL     1       3.897   5.724  16.880  0.00  0.00    +0.000 F 
ATOM     30  F   UNL     1       5.005   6.452  18.619  0.00  0.00    +0.000 F 
ENDBRANCH  26  27
ENDBRANCH  23  26
ENDBRANCH  18  20
ENDBRANCH   7  18
TORSDOF 7
ENDMDL
MODEL 9
REMARK VINA RESULT:      -6.4      3.904      9.215
REMARK  Name = 
REMARK  10 active torsions:
REMARK  status: ('A' for Active; 'I' for Inactive)
REMARK    1  A    between atoms: C_1  and  O_2
REMARK    2  A    between atoms: O_2  and  C_3
REMARK    3  A    between atoms: C_7  and  O_8
REMARK    4  A    between atoms: O_8  and  C_9
REMARK    5  A    between atoms: C_10  and  C_11
REMARK    6  A    between atoms: N_17  and  C_18
REMARK    7  A    between atoms: C_18  and  C_19
REMARK    8  A    between atoms: C_18  and  C_20
REMARK    9  A    between atoms: C_23  and  O_24
REMARK   10  A    between atoms: O_24  and  C_25
REMARK                            x       y       z     vdW  Elec       q    Type
REMARK                         _______ _______ _______ _____ _____    ______ ____
ROOT
ATOM      1  C   UNL     1       3.830   4.402  19.657  0.00  0.00    +0.000 C 
ATOM      2  C   UNL     1       3.655   2.941  20.094  0.00  0.00    +0.000 C 
ATOM      3  C   UNL     1       2.886   2.924  21.400  0.00  0.00    +0.000 C 
ATOM      4  C   UNL     1       1.509   3.476  21.136  0.00  0.00    +0.000 C 
ATOM      5  C   UNL     1       1.486   4.833  20.456  0.00  0.00    +0.000 C 
ATOM      6  O   UNL     1       0.449   5.489  20.574  0.00  0.00    +0.000 OA
ATOM      7  N   UNL     1       2.580   5.225  19.675  0.00  0.00    +0.000 N 
ENDROOT
BRANCH   1  13
ATOM      8  C   UNL     1       6.081   4.890  18.543  0.00  0.00    +0.000 A 
ATOM      9  C   UNL     1       6.959   4.786  17.460  0.00  0.00    +0.000 A 
ATOM     10  C   UNL     1       6.522   4.325  16.233  0.00  0.00    +0.000 A 
ATOM     11  C   UNL     1       5.194   3.945  16.079  0.00  0.00    +0.000 A 
ATOM     12  C   UNL     1       4.301   3.982  17.160  0.00  0.00    +0.000 A 
ATOM     13  C   UNL     1       4.733   4.460  18.417  0.00  0.00    +0.000 A 
BRANCH   8  15
ATOM     14  C   UNL     1       7.901   5.642  19.866  0.00  0.00    +0.000 C 
ATOM     15  O   UNL     1       6.504   5.354  19.769  0.00  0.00    +0.000 OA
ENDBRANCH   8  15
BRANCH  12  16
ATOM     16  O   UNL     1       2.992   3.586  17.061  0.00  0.00    +0.000 OA
ATOM     17  C   UNL     1       2.735   2.194  17.207  0.00  0.00    +0.000 C 
ENDBRANCH  12  16
ENDBRANCH   1  13
BRANCH   7  18
ATOM     18  C   UNL     1       2.610   6.629  19.118  0.00  0.00    +0.000 C 
ATOM     19  C   UNL     1       2.259   6.696  17.606  0.00  0.00    +0.000 C 
BRANCH  18  20
ATOM     20  C   UNL     1       1.887   7.726  19.946  0.00  0.00    +0.000 A 
ATOM     21  C   UNL     1       1.926   7.766  21.346  0.00  0.00    +0.000 A 
ATOM     22  C   UNL     1       1.467   8.862  22.087  0.00  0.00    +0.000 A 
ATOM     23  C   UNL     1       0.953   9.972  21.455  0.00  0.00    +0.000 A 
ATOM     24  C   UNL     1       0.815   9.947  20.074  0.00  0.00    +0.000 A 
ATOM     25  C   UNL     1       1.294   8.848  19.334  0.00  0.00    +0.000 A 
BRANCH  23  26
ATOM     26  O   UNL     1       0.565  10.979  22.282  0.00  0.00    +0.000 OA
BRANCH  26  27
ATOM     27  C   UNL     1      -0.817  11.116  22.580  0.00  0.00    +0.000 C 
ATOM     28  F   UNL     1      -1.625  11.139  21.499  0.00  0.00    +0.000 F 
ATOM     29  F   UNL     1      -1.193  10.093  23.377  0.00  0.00    +0.000 F 
ATOM     30  F   UNL     1      -1.002  12.269  23.262  0.00  0.00    +0.000 F 
ENDBRANCH  26  27
ENDBRANCH  23  26
ENDBRANCH  18  20
ENDBRANCH   7  18
TORSDOF 7
ENDMDL
