MODEL 1
REMARK VINA RESULT:      -8.1      0.000      0.000
REMARK  Name = 
REMARK  6 active torsions:
REMARK  status: ('A' for Active; 'I' for Inactive)
REMARK    1  A    between atoms: C_1  and  C_2
REMARK    2  A    between atoms: C_2  and  C_3
REMARK    3  A    between atoms: C_4  and  C_5
REMARK    4  A    between atoms: N_7  and  C_8
REMARK    5  A    between atoms: C_13  and  C_14
REMARK    6  A    between atoms: C_15  and  C_16
REMARK                            x       y       z     vdW  Elec       q    Type
REMARK                         _______ _______ _______ _____ _____    ______ ____
ROOT
ATOM      1  C   UNL     1       3.419   5.887  19.284  0.00  0.00    +0.000 C 
ATOM      2  C   UNL     1       2.594   7.170  19.045  0.00  0.00    +0.000 C 
ATOM      3  C   UNL     1       2.787   7.931  17.939  0.00  0.00    +0.000 C 
ATOM      4  C   UNL     1       2.192   9.294  17.682  0.00  0.00    +0.000 C 
ATOM      5  N   UNL     1       3.668   7.508  16.952  0.00  0.00    +0.000 N 
ATOM      6  C   UNL     1       4.476   6.392  17.052  0.00  0.00    +0.000 C 
ATOM      7  C   UNL     1       4.382   5.594  18.134  0.00  0.00    +0.000 C 
ATOM      8  C   UNL     1       5.286   4.412  18.208  0.00  0.00    +0.000 C 
ATOM      9  O   UNL     1       5.552   3.870  19.276  0.00  0.00    +0.000 OA
ATOM     10  C   UNL     1       5.827   3.891  16.898  0.00  0.00    +0.000 C 
ATOM     11  C   UNL     1       6.461   5.046  16.149  0.00  0.00    +0.000 C 
ATOM     12  C   UNL     1       5.451   6.169  15.913  0.00  0.00    +0.000 C 
ATOM     13  H   UNL     1       3.886   8.168  16.211  0.00  0.00    +0.000 HD
ENDROOT
BRANCH   2  14
ATOM     14  C   UNL     1       1.713   7.582  20.189  0.00  0.00    +0.000 C 
ATOM     15  O   UNL     1       1.277   6.719  20.945  0.00  0.00    +0.000 OA
ATOM     16  N   UNL     1       1.346   8.915  20.195  0.00  0.00    +0.000 N 
ATOM     17  H   UNL     1       1.562   9.465  19.374  0.00  0.00    +0.000 HD
BRANCH  16  18
ATOM     18  C   UNL     1       0.519   9.520  21.177  0.00  0.00    +0.000 A 
ATOM     19  C   UNL     1       0.612   9.162  22.529  0.00  0.00    +0.000 A 
ATOM     20  C   UNL     1      -0.192   9.772  23.495  0.00  0.00    +0.000 A 
ATOM     21  C   UNL     1      -1.106  10.751  23.128  0.00  0.00    +0.000 A 
ATOM     22  C   UNL     1      -1.211  11.121  21.783  0.00  0.00    +0.000 A 
ATOM     23  C   UNL     1      -0.408  10.514  20.801  0.00  0.00    +0.000 A 
ATOM     24  C   UNL     1      -0.621  10.905  19.365  0.00  0.00    +0.000 C 
ENDBRANCH  16  18
ENDBRANCH   2  14
BRANCH   1  26
ATOM     25  C   UNL     1       1.646   4.137  18.529  0.00  0.00    +0.000 C 
ATOM     26  C   UNL     1       2.548   4.653  19.641  0.00  0.00    +0.000 C 
ENDBRANCH   1  26
TORSDOF 3
ENDMDL
MODEL 2
REMARK VINA RESULT:      -8.1      1.750      2.812
REMARK  Name = 
REMARK  6 active torsions:
REMARK  status: ('A' for Active; 'I' for Inactive)
REMARK    1  A    between atoms: C_1  and  C_2
REMARK    2  A    between atoms: C_2  and  C_3
REMARK    3  A    between atoms: C_4  and  C_5
REMARK    4  A    between atoms: N_7  and  C_8
REMARK    5  A    between atoms: C_13  and  C_14
REMARK    6  A    between atoms: C_15  and  C_16
REMARK                            x       y       z     vdW  Elec       q    Type
REMARK                         _______ _______ _______ _____ _____    ______ ____
ROOT
ATOM      1  C   UNL     1       4.642   6.067  17.984  0.00  0.00    +0.000 C 
ATOM      2  C   UNL     1       3.286   5.456  18.399  0.00  0.00    +0.000 C 
ATOM      3  C   UNL     1       2.748   4.416  17.714  0.00  0.00    +0.000 C 
ATOM      4  C   UNL     1       1.358   3.858  17.893  0.00  0.00    +0.000 C 
ATOM      5  N   UNL     1       3.464   3.820  16.683  0.00  0.00    +0.000 N 
ATOM      6  C   UNL     1       4.675   4.282  16.205  0.00  0.00    +0.000 C 
ATOM      7  C   UNL     1       5.271   5.335  16.798  0.00  0.00    +0.000 C 
ATOM      8  C   UNL     1       6.567   5.810  16.237  0.00  0.00    +0.000 C 
ATOM      9  O   UNL     1       6.978   6.949  16.438  0.00  0.00    +0.000 OA
ATOM     10  C   UNL     1       7.368   4.806  15.442  0.00  0.00    +0.000 C 
ATOM     11  C   UNL     1       6.468   4.215  14.375  0.00  0.00    +0.000 C 
ATOM     12  C   UNL     1       5.236   3.558  14.997  0.00  0.00    +0.000 C 
ATOM     13  H   UNL     1       2.972   3.141  16.109  0.00  0.00    +0.000 HD
ENDROOT
BRANCH   2  14
ATOM     14  C   UNL     1       2.559   6.200  19.482  0.00  0.00    +0.000 C 
ATOM     15  O   UNL     1       2.193   5.589  20.481  0.00  0.00    +0.000 OA
ATOM     16  N   UNL     1       2.231   7.507  19.174  0.00  0.00    +0.000 N 
ATOM     17  H   UNL     1       2.362   7.812  18.218  0.00  0.00    +0.000 HD
BRANCH  16  18
ATOM     18  C   UNL     1       1.543   8.392  20.043  0.00  0.00    +0.000 A 
ATOM     19  C   UNL     1       1.542   8.196  21.431  0.00  0.00    +0.000 A 
ATOM     20  C   UNL     1       0.877   9.080  22.286  0.00  0.00    +0.000 A 
ATOM     21  C   UNL     1       0.198  10.175  21.769  0.00  0.00    +0.000 A 
ATOM     22  C   UNL     1       0.190  10.387  20.386  0.00  0.00    +0.000 A 
ATOM     23  C   UNL     1       0.855   9.505  19.516  0.00  0.00    +0.000 A 
ATOM     24  C   UNL     1       0.746   9.747  18.036  0.00  0.00    +0.000 C 
ENDBRANCH  16  18
ENDBRANCH   2  14
BRANCH   1  26
ATOM     25  C   UNL     1       6.565   5.036  19.404  0.00  0.00    +0.000 C 
ATOM     26  C   UNL     1       5.637   6.219  19.166  0.00  0.00    +0.000 C 
ENDBRANCH   1  26
TORSDOF 3
ENDMDL
MODEL 3
REMARK VINA RESULT:      -7.8      1.845      7.630
REMARK  Name = 
REMARK  6 active torsions:
REMARK  status: ('A' for Active; 'I' for Inactive)
REMARK    1  A    between atoms: C_1  and  C_2
REMARK    2  A    between atoms: C_2  and  C_3
REMARK    3  A    between atoms: C_4  and  C_5
REMARK    4  A    between atoms: N_7  and  C_8
REMARK    5  A    between atoms: C_13  and  C_14
REMARK    6  A    between atoms: C_15  and  C_16
REMARK                            x       y       z     vdW  Elec       q    Type
REMARK                         _______ _______ _______ _____ _____    ______ ____
ROOT
ATOM      1  C   UNL     1       1.741   9.283  19.366  0.00  0.00    +0.000 C 
ATOM      2  C   UNL     1       2.051   7.772  19.303  0.00  0.00    +0.000 C 
ATOM      3  C   UNL     1       1.609   6.926  20.268  0.00  0.00    +0.000 C 
ATOM      4  C   UNL     1       2.000   5.477  20.427  0.00  0.00    +0.000 C 
ATOM      5  N   UNL     1       0.783   7.399  21.280  0.00  0.00    +0.000 N 
ATOM      6  C   UNL     1       0.449   8.727  21.458  0.00  0.00    +0.000 C 
ATOM      7  C   UNL     1       0.873   9.648  20.570  0.00  0.00    +0.000 C 
ATOM      8  C   UNL     1       0.502  11.071  20.812  0.00  0.00    +0.000 C 
ATOM      9  O   UNL     1       1.137  11.996  20.313  0.00  0.00    +0.000 OA
ATOM     10  C   UNL     1      -0.715  11.317  21.670  0.00  0.00    +0.000 C 
ATOM     11  C   UNL     1      -0.553  10.543  22.964  0.00  0.00    +0.000 C 
ATOM     12  C   UNL     1      -0.370   9.050  22.691  0.00  0.00    +0.000 C 
ATOM     13  H   UNL     1       0.590   6.769  22.053  0.00  0.00    +0.000 HD
ENDROOT
BRANCH   2  14
ATOM     14  C   UNL     1       2.997   7.361  18.212  0.00  0.00    +0.000 C 
ATOM     15  O   UNL     1       2.884   7.874  17.103  0.00  0.00    +0.000 OA
ATOM     16  N   UNL     1       3.834   6.308  18.530  0.00  0.00    +0.000 N 
ATOM     17  H   UNL     1       3.651   5.805  19.388  0.00  0.00    +0.000 HD
BRANCH  16  18
ATOM     18  C   UNL     1       4.803   5.755  17.653  0.00  0.00    +0.000 A 
ATOM     19  C   UNL     1       6.018   6.408  17.406  0.00  0.00    +0.000 A 
ATOM     20  C   UNL     1       6.978   5.852  16.556  0.00  0.00    +0.000 A 
ATOM     21  C   UNL     1       6.740   4.634  15.933  0.00  0.00    +0.000 A 
ATOM     22  C   UNL     1       5.532   3.968  16.170  0.00  0.00    +0.000 A 
ATOM     23  C   UNL     1       4.559   4.517  17.024  0.00  0.00    +0.000 A 
ATOM     24  C   UNL     1       3.253   3.787  17.178  0.00  0.00    +0.000 C 
ENDBRANCH  16  18
ENDBRANCH   2  14
BRANCH   1  26
ATOM     25  C   UNL     1      -0.337   9.687  17.852  0.00  0.00    +0.000 C 
ATOM     26  C   UNL     1       1.165   9.849  18.041  0.00  0.00    +0.000 C 
ENDBRANCH   1  26
TORSDOF 3
ENDMDL
MODEL 4
REMARK VINA RESULT:      -7.8      1.810      7.545
REMARK  Name = 
REMARK  6 active torsions:
REMARK  status: ('A' for Active; 'I' for Inactive)
REMARK    1  A    between atoms: C_1  and  C_2
REMARK    2  A    between atoms: C_2  and  C_3
REMARK    3  A    between atoms: C_4  and  C_5
REMARK    4  A    between atoms: N_7  and  C_8
REMARK    5  A    between atoms: C_13  and  C_14
REMARK    6  A    between atoms: C_15  and  C_16
REMARK                            x       y       z     vdW  Elec       q    Type
REMARK                         _______ _______ _______ _____ _____    ______ ____
ROOT
ATOM      1  C   UNL     1       1.923   8.597  18.926  0.00  0.00    +0.000 C 
ATOM      2  C   UNL     1       2.073   7.096  19.260  0.00  0.00    +0.000 C 
ATOM      3  C   UNL     1       1.626   6.593  20.438  0.00  0.00    +0.000 C 
ATOM      4  C   UNL     1       1.880   5.202  20.964  0.00  0.00    +0.000 C 
ATOM      5  N   UNL     1       0.934   7.411  21.322  0.00  0.00    +0.000 N 
ATOM      6  C   UNL     1       0.750   8.769  21.150  0.00  0.00    +0.000 C 
ATOM      7  C   UNL     1       1.193   9.366  20.026  0.00  0.00    +0.000 C 
ATOM      8  C   UNL     1       0.988  10.836  19.891  0.00  0.00    +0.000 C 
ATOM      9  O   UNL     1       1.672  11.514  19.130  0.00  0.00    +0.000 OA
ATOM     10  C   UNL     1      -0.127  11.442  20.709  0.00  0.00    +0.000 C 
ATOM     11  C   UNL     1       0.057  11.023  22.154  0.00  0.00    +0.000 C 
ATOM     12  C   UNL     1       0.067   9.501  22.288  0.00  0.00    +0.000 C 
ATOM     13  H   UNL     1       0.740   7.035  22.246  0.00  0.00    +0.000 HD
ENDROOT
BRANCH   2  14
ATOM     14  C   UNL     1       2.884   6.304  18.276  0.00  0.00    +0.000 C 
ATOM     15  O   UNL     1       2.377   5.325  17.738  0.00  0.00    +0.000 OA
ATOM     16  N   UNL     1       4.212   6.677  18.179  0.00  0.00    +0.000 N 
ATOM     17  H   UNL     1       4.568   7.330  18.864  0.00  0.00    +0.000 HD
BRANCH  16  18
ATOM     18  C   UNL     1       5.161   6.066  17.318  0.00  0.00    +0.000 A 
ATOM     19  C   UNL     1       5.006   6.098  15.925  0.00  0.00    +0.000 A 
ATOM     20  C   UNL     1       5.951   5.511  15.079  0.00  0.00    +0.000 A 
ATOM     21  C   UNL     1       7.067   4.877  15.610  0.00  0.00    +0.000 A 
ATOM     22  C   UNL     1       7.238   4.838  16.998  0.00  0.00    +0.000 A 
ATOM     23  C   UNL     1       6.294   5.425  17.860  0.00  0.00    +0.000 A 
ATOM     24  C   UNL     1       6.498   5.284  19.343  0.00  0.00    +0.000 C 
ENDBRANCH  16  18
ENDBRANCH   2  14
BRANCH   1  26
ATOM     25  C   UNL     1      -0.184   9.174  17.511  0.00  0.00    +0.000 C 
ATOM     26  C   UNL     1       1.304   8.856  17.526  0.00  0.00    +0.000 C 
ENDBRANCH   1  26
TORSDOF 3
ENDMDL
MODEL 5
REMARK VINA RESULT:      -7.8      2.325      3.812
REMARK  Name = 
REMARK  6 active torsions:
REMARK  status: ('A' for Active; 'I' for Inactive)
REMARK    1  A    between atoms: C_1  and  C_2
REMARK    2  A    between atoms: C_2  and  C_3
REMARK    3  A    between atoms: C_4  and  C_5
REMARK    4  A    between atoms: N_7  and  C_8
REMARK    5  A    between atoms: C_13  and  C_14
REMARK    6  A    between atoms: C_15  and  C_16
REMARK                            x       y       z     vdW  Elec       q    Type
REMARK                         _______ _______ _______ _____ _____    ______ ____
ROOT
ATOM      1  C   UNL     1       2.559   6.462  18.147  0.00  0.00    +0.000 C 
ATOM      2  C   UNL     1       2.094   7.555  19.134  0.00  0.00    +0.000 C 
ATOM      3  C   UNL     1       1.848   7.263  20.436  0.00  0.00    +0.000 C 
ATOM      4  C   UNL     1       1.211   8.183  21.447  0.00  0.00    +0.000 C 
ATOM      5  N   UNL     1       2.108   5.988  20.921  0.00  0.00    +0.000 N 
ATOM      6  C   UNL     1       2.508   4.921  20.140  0.00  0.00    +0.000 C 
ATOM      7  C   UNL     1       2.742   5.105  18.826  0.00  0.00    +0.000 C 
ATOM      8  C   UNL     1       3.154   3.922  18.019  0.00  0.00    +0.000 C 
ATOM      9  O   UNL     1       3.012   3.893  16.800  0.00  0.00    +0.000 OA
ATOM     10  C   UNL     1       3.789   2.778  18.772  0.00  0.00    +0.000 C 
ATOM     11  C   UNL     1       2.875   2.394  19.919  0.00  0.00    +0.000 C 
ATOM     12  C   UNL     1       2.626   3.585  20.845  0.00  0.00    +0.000 C 
ATOM     13  H   UNL     1       1.782   5.774  21.859  0.00  0.00    +0.000 HD
ENDROOT
BRANCH   2  14
ATOM     14  C   UNL     1       1.782   8.884  18.510  0.00  0.00    +0.000 C 
ATOM     15  O   UNL     1       2.207   9.128  17.385  0.00  0.00    +0.000 OA
ATOM     16  N   UNL     1       1.151   9.788  19.344  0.00  0.00    +0.000 N 
ATOM     17  H   UNL     1       1.086   9.554  20.327  0.00  0.00    +0.000 HD
BRANCH  16  18
ATOM     18  C   UNL     1       0.765  11.101  18.968  0.00  0.00    +0.000 A 
ATOM     19  C   UNL     1       1.681  12.161  18.981  0.00  0.00    +0.000 A 
ATOM     20  C   UNL     1       1.302  13.449  18.592  0.00  0.00    +0.000 A 
ATOM     21  C   UNL     1      -0.002  13.702  18.187  0.00  0.00    +0.000 A 
ATOM     22  C   UNL     1      -0.929  12.654  18.167  0.00  0.00    +0.000 A 
ATOM     23  C   UNL     1      -0.559  11.354  18.556  0.00  0.00    +0.000 A 
ATOM     24  C   UNL     1      -1.621  10.290  18.582  0.00  0.00    +0.000 C 
ENDBRANCH  16  18
ENDBRANCH   2  14
BRANCH   1  26
ATOM     25  C   UNL     1       5.153   6.507  17.933  0.00  0.00    +0.000 C 
ATOM     26  C   UNL     1       3.808   6.871  17.320  0.00  0.00    +0.000 C 
ENDBRANCH   1  26
TORSDOF 3
ENDMDL
MODEL 6
REMARK VINA RESULT:      -7.7      3.661      9.232
REMARK  Name = 
REMARK  6 active torsions:
REMARK  status: ('A' for Active; 'I' for Inactive)
REMARK    1  A    between atoms: C_1  and  C_2
REMARK    2  A    between atoms: C_2  and  C_3
REMARK    3  A    between atoms: C_4  and  C_5
REMARK    4  A    between atoms: N_7  and  C_8
REMARK    5  A    between atoms: C_13  and  C_14
REMARK    6  A    between atoms: C_15  and  C_16
REMARK                            x       y       z     vdW  Elec       q    Type
REMARK                         _______ _______ _______ _____ _____    ______ ____
ROOT
ATOM      1  C   UNL     1      -1.792  12.537  21.559  0.00  0.00    +0.000 C 
ATOM      2  C   UNL     1      -0.668  12.933  20.576  0.00  0.00    +0.000 C 
ATOM      3  C   UNL     1      -0.749  14.072  19.843  0.00  0.00    +0.000 C 
ATOM      4  C   UNL     1       0.175  14.473  18.720  0.00  0.00    +0.000 C 
ATOM      5  N   UNL     1      -1.806  14.951  20.043  0.00  0.00    +0.000 N 
ATOM      6  C   UNL     1      -2.880  14.706  20.875  0.00  0.00    +0.000 C 
ATOM      7  C   UNL     1      -2.907  13.580  21.617  0.00  0.00    +0.000 C 
ATOM      8  C   UNL     1      -4.094  13.349  22.488  0.00  0.00    +0.000 C 
ATOM      9  O   UNL     1      -4.394  12.226  22.882  0.00  0.00    +0.000 OA
ATOM     10  C   UNL     1      -4.885  14.569  22.892  0.00  0.00    +0.000 C 
ATOM     11  C   UNL     1      -5.242  15.345  21.639  0.00  0.00    +0.000 C 
ATOM     12  C   UNL     1      -3.986  15.742  20.863  0.00  0.00    +0.000 C 
ATOM     13  H   UNL     1      -1.903  15.717  19.381  0.00  0.00    +0.000 HD
ENDROOT
BRANCH   2  14
ATOM     14  C   UNL     1       0.401  11.897  20.382  0.00  0.00    +0.000 C 
ATOM     15  O   UNL     1       1.530  12.121  20.806  0.00  0.00    +0.000 OA
ATOM     16  N   UNL     1       0.037  10.823  19.592  0.00  0.00    +0.000 N 
ATOM     17  H   UNL     1      -0.841  10.883  19.091  0.00  0.00    +0.000 HD
BRANCH  16  18
ATOM     18  C   UNL     1       0.885   9.731  19.273  0.00  0.00    +0.000 A 
ATOM     19  C   UNL     1       1.530   9.647  18.032  0.00  0.00    +0.000 A 
ATOM     20  C   UNL     1       2.379   8.580  17.728  0.00  0.00    +0.000 A 
ATOM     21  C   UNL     1       2.597   7.573  18.660  0.00  0.00    +0.000 A 
ATOM     22  C   UNL     1       1.963   7.641  19.905  0.00  0.00    +0.000 A 
ATOM     23  C   UNL     1       1.106   8.711  20.222  0.00  0.00    +0.000 A 
ATOM     24  C   UNL     1       0.398   8.687  21.548  0.00  0.00    +0.000 C 
ENDBRANCH  16  18
ENDBRANCH   2  14
BRANCH   1  26
ATOM     25  C   UNL     1      -1.281  10.680  23.310  0.00  0.00    +0.000 C 
ATOM     26  C   UNL     1      -1.270  12.164  22.973  0.00  0.00    +0.000 C 
ENDBRANCH   1  26
TORSDOF 3
ENDMDL
MODEL 7
REMARK VINA RESULT:      -7.7      2.016      7.788
REMARK  Name = 
REMARK  6 active torsions:
REMARK  status: ('A' for Active; 'I' for Inactive)
REMARK    1  A    between atoms: C_1  and  C_2
REMARK    2  A    between atoms: C_2  and  C_3
REMARK    3  A    between atoms: C_4  and  C_5
REMARK    4  A    between atoms: N_7  and  C_8
REMARK    5  A    between atoms: C_13  and  C_14
REMARK    6  A    between atoms: C_15  and  C_16
REMARK                            x       y       z     vdW  Elec       q    Type
REMARK                         _______ _______ _______ _____ _____    ______ ____
ROOT
ATOM      1  C   UNL     1       0.861  10.238  19.379  0.00  0.00    +0.000 C 
ATOM      2  C   UNL     1       1.311   8.773  19.563  0.00  0.00    +0.000 C 
ATOM      3  C   UNL     1       1.061   8.103  20.716  0.00  0.00    +0.000 C 
ATOM      4  C   UNL     1       1.609   6.749  21.095  0.00  0.00    +0.000 C 
ATOM      5  N   UNL     1       0.305   8.702  21.716  0.00  0.00    +0.000 N 
ATOM      6  C   UNL     1      -0.140  10.009  21.681  0.00  0.00    +0.000 C 
ATOM      7  C   UNL     1       0.094  10.766  20.591  0.00  0.00    +0.000 C 
ATOM      8  C   UNL     1      -0.389  12.176  20.605  0.00  0.00    +0.000 C 
ATOM      9  O   UNL     1       0.094  13.030  19.867  0.00  0.00    +0.000 OA
ATOM     10  C   UNL     1      -1.527  12.492  21.546  0.00  0.00    +0.000 C 
ATOM     11  C   UNL     1      -1.152  12.005  22.932  0.00  0.00    +0.000 C 
ATOM     12  C   UNL     1      -0.851  10.506  22.924  0.00  0.00    +0.000 C 
ATOM     13  H   UNL     1       0.259   8.225  22.612  0.00  0.00    +0.000 HD
ENDROOT
BRANCH   2  14
ATOM     14  C   UNL     1       2.172   8.229  18.460  0.00  0.00    +0.000 C 
ATOM     15  O   UNL     1       2.214   8.825  17.389  0.00  0.00    +0.000 OA
ATOM     16  N   UNL     1       2.737   6.992  18.714  0.00  0.00    +0.000 N 
ATOM     17  H   UNL     1       2.417   6.489  19.532  0.00  0.00    +0.000 HD
BRANCH  16  18
ATOM     18  C   UNL     1       3.581   6.290  17.815  0.00  0.00    +0.000 A 
ATOM     19  C   UNL     1       4.672   6.919  17.200  0.00  0.00    +0.000 A 
ATOM     20  C   UNL     1       5.512   6.220  16.329  0.00  0.00    +0.000 A 
ATOM     21  C   UNL     1       5.274   4.879  16.053  0.00  0.00    +0.000 A 
ATOM     22  C   UNL     1       4.190   4.237  16.660  0.00  0.00    +0.000 A 
ATOM     23  C   UNL     1       3.338   4.929  17.538  0.00  0.00    +0.000 A 
ATOM     24  C   UNL     1       2.148   4.201  18.099  0.00  0.00    +0.000 C 
ENDBRANCH  16  18
ENDBRANCH   2  14
BRANCH   1  26
ATOM     25  C   UNL     1      -1.368  10.059  18.047  0.00  0.00    +0.000 C 
ATOM     26  C   UNL     1       0.093  10.484  18.053  0.00  0.00    +0.000 C 
ENDBRANCH   1  26
TORSDOF 3
ENDMDL
MODEL 8
REMARK VINA RESULT:      -7.6      1.247      1.436
REMARK  Name = 
REMARK  6 active torsions:
REMARK  status: ('A' for Active; 'I' for Inactive)
REMARK    1  A    between atoms: C_1  and  C_2
REMARK    2  A    between atoms: C_2  and  C_3
REMARK    3  A    between atoms: C_4  and  C_5
REMARK    4  A    between atoms: N_7  and  C_8
REMARK    5  A    between atoms: C_13  and  C_14
REMARK    6  A    between atoms: C_15  and  C_16
REMARK                            x       y       z     vdW  Elec       q    Type
REMARK                         _______ _______ _______ _____ _____    ______ ____
ROOT
ATOM      1  C   UNL     1       2.616   5.792  20.109  0.00  0.00    +0.000 C 
ATOM      2  C   UNL     1       2.210   7.194  19.606  0.00  0.00    +0.000 C 
ATOM      3  C   UNL     1       2.489   7.592  18.339  0.00  0.00    +0.000 C 
ATOM      4  C   UNL     1       2.322   8.986  17.788  0.00  0.00    +0.000 C 
ATOM      5  N   UNL     1       3.062   6.698  17.443  0.00  0.00    +0.000 N 
ATOM      6  C   UNL     1       3.488   5.426  17.773  0.00  0.00    +0.000 C 
ATOM      7  C   UNL     1       3.287   4.956  19.020  0.00  0.00    +0.000 C 
ATOM      8  C   UNL     1       3.779   3.585  19.335  0.00  0.00    +0.000 C 
ATOM      9  O   UNL     1       3.995   3.228  20.489  0.00  0.00    +0.000 OA
ATOM     10  C   UNL     1       3.961   2.646  18.167  0.00  0.00    +0.000 C 
ATOM     11  C   UNL     1       4.824   3.336  17.129  0.00  0.00    +0.000 C 
ATOM     12  C   UNL     1       4.193   4.653  16.677  0.00  0.00    +0.000 C 
ATOM     13  H   UNL     1       3.381   7.073  16.554  0.00  0.00    +0.000 HD
ENDROOT
BRANCH   2  14
ATOM     14  C   UNL     1       1.653   8.110  20.657  0.00  0.00    +0.000 C 
ATOM     15  O   UNL     1       2.136   8.086  21.784  0.00  0.00    +0.000 OA
ATOM     16  N   UNL     1       0.519   8.808  20.283  0.00  0.00    +0.000 N 
ATOM     17  H   UNL     1       0.070   8.545  19.415  0.00  0.00    +0.000 HD
BRANCH  16  18
ATOM     18  C   UNL     1      -0.175   9.725  21.115  0.00  0.00    +0.000 A 
ATOM     19  C   UNL     1      -0.391   9.456  22.473  0.00  0.00    +0.000 A 
ATOM     20  C   UNL     1      -1.060  10.369  23.293  0.00  0.00    +0.000 A 
ATOM     21  C   UNL     1      -1.529  11.567  22.769  0.00  0.00    +0.000 A 
ATOM     22  C   UNL     1      -1.321  11.851  21.415  0.00  0.00    +0.000 A 
ATOM     23  C   UNL     1      -0.649  10.941  20.580  0.00  0.00    +0.000 A 
ATOM     24  C   UNL     1      -0.523  11.273  19.119  0.00  0.00    +0.000 C 
ENDBRANCH  16  18
ENDBRANCH   2  14
BRANCH   1  26
ATOM     25  C   UNL     1       0.740   3.997  19.935  0.00  0.00    +0.000 C 
ATOM     26  C   UNL     1       1.456   5.026  20.799  0.00  0.00    +0.000 C 
ENDBRANCH   1  26
TORSDOF 3
ENDMDL
MODEL 9
REMARK VINA RESULT:      -7.5      3.352      8.375
REMARK  Name = 
REMARK  6 active torsions:
REMARK  status: ('A' for Active; 'I' for Inactive)
REMARK    1  A    between atoms: C_1  and  C_2
REMARK    2  A    between atoms: C_2  and  C_3
REMARK    3  A    between atoms: C_4  and  C_5
REMARK    4  A    between atoms: N_7  and  C_8
REMARK    5  A    between atoms: C_13  and  C_14
REMARK    6  A    between atoms: C_15  and  C_16
REMARK                            x       y       z     vdW  Elec       q    Type
REMARK                         _______ _______ _______ _____ _____    ______ ____
ROOT
ATOM      1  C   UNL     1       3.496   3.755  17.531  0.00  0.00    +0.000 C 
ATOM      2  C   UNL     1       4.753   4.571  17.159  0.00  0.00    +0.000 C 
ATOM      3  C   UNL     1       5.001   5.775  17.734  0.00  0.00    +0.000 C 
ATOM      4  C   UNL     1       6.076   6.751  17.324  0.00  0.00    +0.000 C 
ATOM      5  N   UNL     1       4.170   6.245  18.743  0.00  0.00    +0.000 N 
ATOM      6  C   UNL     1       3.009   5.621  19.153  0.00  0.00    +0.000 C 
ATOM      7  C   UNL     1       2.659   4.437  18.612  0.00  0.00    +0.000 C 
ATOM      8  C   UNL     1       1.388   3.809  19.072  0.00  0.00    +0.000 C 
ATOM      9  O   UNL     1       0.802   2.971  18.393  0.00  0.00    +0.000 OA
ATOM     10  C   UNL     1       0.881   4.226  20.431  0.00  0.00    +0.000 C 
ATOM     11  C   UNL     1       0.815   5.740  20.474  0.00  0.00    +0.000 C 
ATOM     12  C   UNL     1       2.184   6.357  20.190  0.00  0.00    +0.000 C 
ATOM     13  H   UNL     1       4.308   7.205  19.048  0.00  0.00    +0.000 HD
ENDROOT
BRANCH   2  14
ATOM     14  C   UNL     1       5.557   4.017  16.019  0.00  0.00    +0.000 C 
ATOM     15  O   UNL     1       6.606   3.428  16.262  0.00  0.00    +0.000 OA
ATOM     16  N   UNL     1       5.101   4.361  14.760  0.00  0.00    +0.000 N 
ATOM     17  H   UNL     1       4.376   5.064  14.698  0.00  0.00    +0.000 HD
BRANCH  16  18
ATOM     18  C   UNL     1       5.706   3.952  13.543  0.00  0.00    +0.000 A 
ATOM     19  C   UNL     1       5.126   2.962  12.738  0.00  0.00    +0.000 A 
ATOM     20  C   UNL     1       5.716   2.574  11.532  0.00  0.00    +0.000 A 
ATOM     21  C   UNL     1       6.898   3.166  11.109  0.00  0.00    +0.000 A 
ATOM     22  C   UNL     1       7.490   4.158  11.899  0.00  0.00    +0.000 A 
ATOM     23  C   UNL     1       6.906   4.557  13.115  0.00  0.00    +0.000 A 
ATOM     24  C   UNL     1       7.631   5.574  13.953  0.00  0.00    +0.000 C 
ENDBRANCH  16  18
ENDBRANCH   2  14
BRANCH   1  26
ATOM     25  C   UNL     1       4.275   2.019  19.307  0.00  0.00    +0.000 C 
ATOM     26  C   UNL     1       3.806   2.275  17.882  0.00  0.00    +0.000 C 
ENDBRANCH   1  26
TORSDOF 3
ENDMDL
