MODEL 1
REMARK VINA RESULT:      -8.5      0.000      0.000
REMARK  Name = 
REMARK  6 active torsions:
REMARK  status: ('A' for Active; 'I' for Inactive)
REMARK    1  A    between atoms: C_1  and  C_2
REMARK    2  A    between atoms: C_2  and  C_3
REMARK    3  A    between atoms: C_3  and  N_4
REMARK    4  A    between atoms: C_12  and  P_13
REMARK    5  A    between atoms: P_13  and  N_15
REMARK    6  A    between atoms: P_13  and  N_21
REMARK                            x       y       z     vdW  Elec       q    Type
REMARK                         _______ _______ _______ _____ _____    ______ ____
ROOT
ATOM      1  P   UNL     1       4.148   3.864  16.964  0.00  0.00    +0.000 P 
ATOM      2  N   UNL     1       5.123   2.969  17.717  0.00  0.00    +0.000 NA
ATOM      3  H   UNL     1       6.012   3.437  17.902  0.00  0.00    +0.000 HD
ENDROOT
BRANCH   1  12
ATOM      4  N   UNL     1       6.801   4.775  16.344  0.00  0.00    +0.000 N 
ATOM      5  N   UNL     1       7.583   5.404  15.451  0.00  0.00    +0.000 NA
ATOM      6  C   UNL     1       7.152   4.939  14.293  0.00  0.00    +0.000 A 
ATOM      7  C   UNL     1       7.769   5.139  13.037  0.00  0.00    +0.000 A 
ATOM      8  C   UNL     1       7.133   4.522  11.967  0.00  0.00    +0.000 A 
ATOM      9  C   UNL     1       6.019   3.671  12.162  0.00  0.00    +0.000 A 
ATOM     10  C   UNL     1       5.448   3.340  13.434  0.00  0.00    +0.000 A 
ATOM     11  C   UNL     1       5.958   4.104  14.501  0.00  0.00    +0.000 A 
ATOM     12  C   UNL     1       5.527   4.298  15.843  0.00  0.00    +0.000 A 
BRANCH   4  13
ATOM     13  C   UNL     1       7.347   4.710  17.701  0.00  0.00    +0.000 C 
BRANCH  13  15
ATOM     14  C   UNL     1       8.110   5.835  19.804  0.00  0.00    +0.000 C 
ATOM     15  C   UNL     1       7.725   6.048  18.347  0.00  0.00    +0.000 C 
ENDBRANCH  13  15
ENDBRANCH   4  13
ENDBRANCH   1  12
BRANCH   1  16
ATOM     16  N   UNL     1       4.234   5.287  17.890  0.00  0.00    +0.000 NA
ATOM     17  C   UNL     1       4.430   5.281  19.338  0.00  0.00    +0.000 C 
ATOM     18  C   UNL     1       3.125   5.689  20.002  0.00  0.00    +0.000 C 
ATOM     19  O   UNL     1       2.613   6.957  19.577  0.00  0.00    +0.000 OA
ATOM     20  C   UNL     1       2.549   7.043  18.135  0.00  0.00    +0.000 C 
ATOM     21  C   UNL     1       3.879   6.655  17.498  0.00  0.00    +0.000 C 
ENDBRANCH   1  16
BRANCH   1  22
ATOM     22  N   UNL     1       2.805   3.443  18.054  0.00  0.00    +0.000 NA
ATOM     23  C   UNL     1       1.420   3.862  18.004  0.00  0.00    +0.000 C 
ATOM     24  C   UNL     1       0.889   4.042  19.456  0.00  0.00    +0.000 C 
ATOM     25  O   UNL     1       1.092   2.904  20.324  0.00  0.00    +0.000 OA
ATOM     26  C   UNL     1       2.477   2.518  20.298  0.00  0.00    +0.000 C 
ATOM     27  C   UNL     1       2.879   2.195  18.862  0.00  0.00    +0.000 C 
ENDBRANCH   1  22
TORSDOF 5
ENDMDL
MODEL 2
REMARK VINA RESULT:      -8.0      0.854      1.174
REMARK  Name = 
REMARK  6 active torsions:
REMARK  status: ('A' for Active; 'I' for Inactive)
REMARK    1  A    between atoms: C_1  and  C_2
REMARK    2  A    between atoms: C_2  and  C_3
REMARK    3  A    between atoms: C_3  and  N_4
REMARK    4  A    between atoms: C_12  and  P_13
REMARK    5  A    between atoms: P_13  and  N_15
REMARK    6  A    between atoms: P_13  and  N_21
REMARK                            x       y       z     vdW  Elec       q    Type
REMARK                         _______ _______ _______ _____ _____    ______ ____
ROOT
ATOM      1  P   UNL     1       4.517   3.393  17.154  0.00  0.00    +0.000 P 
ATOM      2  N   UNL     1       5.531   3.656  18.260  0.00  0.00    +0.000 NA
ATOM      3  H   UNL     1       5.962   4.578  18.176  0.00  0.00    +0.000 HD
ENDROOT
BRANCH   1  12
ATOM      4  N   UNL     1       6.977   4.675  16.408  0.00  0.00    +0.000 N 
ATOM      5  N   UNL     1       7.611   5.420  15.487  0.00  0.00    +0.000 NA
ATOM      6  C   UNL     1       7.183   4.914  14.345  0.00  0.00    +0.000 A 
ATOM      7  C   UNL     1       7.693   5.216  13.062  0.00  0.00    +0.000 A 
ATOM      8  C   UNL     1       7.089   4.530  12.015  0.00  0.00    +0.000 A 
ATOM      9  C   UNL     1       6.117   3.529  12.253  0.00  0.00    +0.000 A 
ATOM     10  C   UNL     1       5.673   3.104  13.547  0.00  0.00    +0.000 A 
ATOM     11  C   UNL     1       6.131   3.918  14.600  0.00  0.00    +0.000 A 
ATOM     12  C   UNL     1       5.755   4.031  15.968  0.00  0.00    +0.000 A 
BRANCH   4  13
ATOM     13  C   UNL     1       7.604   4.670  17.731  0.00  0.00    +0.000 C 
BRANCH  13  15
ATOM     14  C   UNL     1       8.093   5.846  19.886  0.00  0.00    +0.000 C 
ATOM     15  C   UNL     1       7.771   6.034  18.411  0.00  0.00    +0.000 C 
ENDBRANCH  13  15
ENDBRANCH   4  13
ENDBRANCH   1  12
BRANCH   1  16
ATOM     16  N   UNL     1       3.595   4.820  17.214  0.00  0.00    +0.000 NA
ATOM     17  C   UNL     1       4.063   6.091  16.665  0.00  0.00    +0.000 C 
ATOM     18  C   UNL     1       4.401   7.019  17.821  0.00  0.00    +0.000 C 
ATOM     19  O   UNL     1       3.323   7.242  18.737  0.00  0.00    +0.000 OA
ATOM     20  C   UNL     1       2.744   5.995  19.182  0.00  0.00    +0.000 C 
ATOM     21  C   UNL     1       2.390   5.096  18.002  0.00  0.00    +0.000 C 
ENDBRANCH   1  16
BRANCH   1  22
ATOM     22  N   UNL     1       3.311   2.771  18.307  0.00  0.00    +0.000 NA
ATOM     23  C   UNL     1       2.010   2.192  18.046  0.00  0.00    +0.000 C 
ATOM     24  C   UNL     1       1.026   2.621  19.174  0.00  0.00    +0.000 C 
ATOM     25  O   UNL     1       1.490   2.360  20.518  0.00  0.00    +0.000 OA
ATOM     26  C   UNL     1       2.798   2.928  20.697  0.00  0.00    +0.000 C 
ATOM     27  C   UNL     1       3.747   2.333  19.660  0.00  0.00    +0.000 C 
ENDBRANCH   1  22
TORSDOF 5
ENDMDL
MODEL 3
REMARK VINA RESULT:      -7.5      7.757     11.029
REMARK  Name = 
REMARK  6 active torsions:
REMARK  status: ('A' for Active; 'I' for Inactive)
REMARK    1  A    between atoms: C_1  and  C_2
REMARK    2  A    between atoms: C_2  and  C_3
REMARK    3  A    between atoms: C_3  and  N_4
REMARK    4  A    between atoms: C_12  and  P_13
REMARK    5  A    between atoms: P_13  and  N_15
REMARK    6  A    between atoms: P_13  and  N_21
REMARK                            x       y       z     vdW  Elec       q    Type
REMARK                         _______ _______ _______ _____ _____    ______ ____
ROOT
ATOM      1  P   UNL     1       0.436  13.159  19.147  0.00  0.00    +0.000 P 
ATOM      2  N   UNL     1      -0.592  14.170  18.655  0.00  0.00    +0.000 NA
ATOM      3  H   UNL     1      -1.533  13.956  18.989  0.00  0.00    +0.000 HD
ENDROOT
BRANCH   1  12
ATOM      4  N   UNL     1      -0.307  10.470  18.463  0.00  0.00    +0.000 N 
ATOM      5  N   UNL     1      -1.146   9.690  17.761  0.00  0.00    +0.000 NA
ATOM      6  C   UNL     1      -2.312  10.290  17.913  0.00  0.00    +0.000 A 
ATOM      7  C   UNL     1      -3.569   9.769  17.529  0.00  0.00    +0.000 A 
ATOM      8  C   UNL     1      -4.656  10.584  17.820  0.00  0.00    +0.000 A 
ATOM      9  C   UNL     1      -4.499  11.789  18.548  0.00  0.00    +0.000 A 
ATOM     10  C   UNL     1      -3.258  12.282  19.067  0.00  0.00    +0.000 A 
ATOM     11  C   UNL     1      -2.131  11.569  18.617  0.00  0.00    +0.000 A 
ATOM     12  C   UNL     1      -0.735  11.841  18.660  0.00  0.00    +0.000 A 
BRANCH   4  13
ATOM     13  C   UNL     1       0.934   9.816  18.882  0.00  0.00    +0.000 C 
BRANCH  13  15
ATOM     14  C   UNL     1       2.561   8.192  17.890  0.00  0.00    +0.000 C 
ATOM     15  C   UNL     1       1.991   9.599  17.792  0.00  0.00    +0.000 C 
ENDBRANCH  13  15
ENDBRANCH   4  13
ENDBRANCH   1  12
BRANCH   1  16
ATOM     16  N   UNL     1       0.067  13.104  20.805  0.00  0.00    +0.000 NA
ATOM     17  C   UNL     1       0.335  11.934  21.640  0.00  0.00    +0.000 C 
ATOM     18  C   UNL     1      -0.990  11.268  21.975  0.00  0.00    +0.000 C 
ATOM     19  O   UNL     1      -1.940  12.127  22.616  0.00  0.00    +0.000 OA
ATOM     20  C   UNL     1      -2.112  13.362  21.885  0.00  0.00    +0.000 C 
ATOM     21  C   UNL     1      -0.769  14.021  21.586  0.00  0.00    +0.000 C 
ENDBRANCH   1  16
BRANCH   1  22
ATOM     22  N   UNL     1       1.577  14.441  19.621  0.00  0.00    +0.000 NA
ATOM     23  C   UNL     1       2.926  14.322  20.134  0.00  0.00    +0.000 C 
ATOM     24  C   UNL     1       3.174  15.445  21.183  0.00  0.00    +0.000 C 
ATOM     25  O   UNL     1       2.872  16.783  20.724  0.00  0.00    +0.000 OA
ATOM     26  C   UNL     1       1.536  16.822  20.195  0.00  0.00    +0.000 C 
ATOM     27  C   UNL     1       1.418  15.810  19.059  0.00  0.00    +0.000 C 
ENDBRANCH   1  22
TORSDOF 5
ENDMDL
MODEL 4
REMARK VINA RESULT:      -7.4      0.680      1.172
REMARK  Name = 
REMARK  6 active torsions:
REMARK  status: ('A' for Active; 'I' for Inactive)
REMARK    1  A    between atoms: C_1  and  C_2
REMARK    2  A    between atoms: C_2  and  C_3
REMARK    3  A    between atoms: C_3  and  N_4
REMARK    4  A    between atoms: C_12  and  P_13
REMARK    5  A    between atoms: P_13  and  N_15
REMARK    6  A    between atoms: P_13  and  N_21
REMARK                            x       y       z     vdW  Elec       q    Type
REMARK                         _______ _______ _______ _____ _____    ______ ____
ROOT
ATOM      1  P   UNL     1       4.258   4.069  17.345  0.00  0.00    +0.000 P 
ATOM      2  N   UNL     1       5.322   3.415  18.217  0.00  0.00    +0.000 NA
ATOM      3  H   UNL     1       6.164   3.989  18.292  0.00  0.00    +0.000 HD
ENDROOT
BRANCH   1  12
ATOM      4  N   UNL     1       6.882   4.909  16.531  0.00  0.00    +0.000 N 
ATOM      5  N   UNL     1       7.620   5.478  15.564  0.00  0.00    +0.000 NA
ATOM      6  C   UNL     1       7.120   4.957  14.459  0.00  0.00    +0.000 A 
ATOM      7  C   UNL     1       7.669   5.081  13.162  0.00  0.00    +0.000 A 
ATOM      8  C   UNL     1       6.968   4.416  12.163  0.00  0.00    +0.000 A 
ATOM      9  C   UNL     1       5.857   3.593  12.465  0.00  0.00    +0.000 A 
ATOM     10  C   UNL     1       5.355   3.338  13.783  0.00  0.00    +0.000 A 
ATOM     11  C   UNL     1       5.931   4.151  14.777  0.00  0.00    +0.000 A 
ATOM     12  C   UNL     1       5.577   4.423  16.128  0.00  0.00    +0.000 A 
BRANCH   4  13
ATOM     13  C   UNL     1       7.502   4.909  17.858  0.00  0.00    +0.000 C 
BRANCH  13  15
ATOM     14  C   UNL     1       7.499   7.387  17.496  0.00  0.00    +0.000 C 
ATOM     15  C   UNL     1       7.687   6.279  18.522  0.00  0.00    +0.000 C 
ENDBRANCH  13  15
ENDBRANCH   4  13
ENDBRANCH   1  12
BRANCH   1  16
ATOM     16  N   UNL     1       4.216   5.635  18.004  0.00  0.00    +0.000 NA
ATOM     17  C   UNL     1       4.185   5.890  19.443  0.00  0.00    +0.000 C 
ATOM     18  C   UNL     1       2.798   6.388  19.813  0.00  0.00    +0.000 C 
ATOM     19  O   UNL     1       2.374   7.552  19.095  0.00  0.00    +0.000 OA
ATOM     20  C   UNL     1       2.535   7.379  17.669  0.00  0.00    +0.000 C 
ATOM     21  C   UNL     1       3.943   6.905  17.324  0.00  0.00    +0.000 C 
ENDBRANCH   1  16
BRANCH   1  22
ATOM     22  N   UNL     1       2.973   3.724  18.528  0.00  0.00    +0.000 NA
ATOM     23  C   UNL     1       3.064   3.605  19.969  0.00  0.00    +0.000 C 
ATOM     24  C   UNL     1       2.077   2.502  20.452  0.00  0.00    +0.000 C 
ATOM     25  O   UNL     1       0.715   2.662  19.994  0.00  0.00    +0.000 OA
ATOM     26  C   UNL     1       0.700   2.812  18.565  0.00  0.00    +0.000 C 
ATOM     27  C   UNL     1       1.556   4.015  18.180  0.00  0.00    +0.000 C 
ENDBRANCH   1  22
TORSDOF 5
ENDMDL
MODEL 5
REMARK VINA RESULT:      -7.4      9.744     12.540
REMARK  Name = 
REMARK  6 active torsions:
REMARK  status: ('A' for Active; 'I' for Inactive)
REMARK    1  A    between atoms: C_1  and  C_2
REMARK    2  A    between atoms: C_2  and  C_3
REMARK    3  A    between atoms: C_3  and  N_4
REMARK    4  A    between atoms: C_12  and  P_13
REMARK    5  A    between atoms: P_13  and  N_15
REMARK    6  A    between atoms: P_13  and  N_21
REMARK                            x       y       z     vdW  Elec       q    Type
REMARK                         _______ _______ _______ _____ _____    ______ ____
ROOT
ATOM      1  P   UNL     1      -0.693  13.644  19.239  0.00  0.00    +0.000 P 
ATOM      2  N   UNL     1      -1.260  14.968  19.736  0.00  0.00    +0.000 NA
ATOM      3  H   UNL     1      -1.831  14.852  20.575  0.00  0.00    +0.000 HD
ENDROOT
BRANCH   1  12
ATOM      4  N   UNL     1      -2.799  11.758  18.727  0.00  0.00    +0.000 N 
ATOM      5  N   UNL     1      -4.126  11.554  18.685  0.00  0.00    +0.000 NA
ATOM      6  C   UNL     1      -4.565  12.207  19.744  0.00  0.00    +0.000 A 
ATOM      7  C   UNL     1      -5.877  12.152  20.268  0.00  0.00    +0.000 A 
ATOM      8  C   UNL     1      -6.084  12.913  21.412  0.00  0.00    +0.000 A 
ATOM      9  C   UNL     1      -5.018  13.592  22.048  0.00  0.00    +0.000 A 
ATOM     10  C   UNL     1      -3.650  13.562  21.621  0.00  0.00    +0.000 A 
ATOM     11  C   UNL     1      -3.462  12.957  20.364  0.00  0.00    +0.000 A 
ATOM     12  C   UNL     1      -2.363  12.930  19.460  0.00  0.00    +0.000 A 
BRANCH   4  13
ATOM     13  C   UNL     1      -2.003  10.780  17.984  0.00  0.00    +0.000 C 
BRANCH  13  15
ATOM     14  C   UNL     1      -2.702  10.045  15.694  0.00  0.00    +0.000 C 
ATOM     15  C   UNL     1      -2.786   9.734  17.181  0.00  0.00    +0.000 C 
ENDBRANCH  13  15
ENDBRANCH   4  13
ENDBRANCH   1  12
BRANCH   1  16
ATOM     16  N   UNL     1      -0.050  13.007  20.678  0.00  0.00    +0.000 NA
ATOM     17  C   UNL     1       0.166  11.577  20.887  0.00  0.00    +0.000 C 
ATOM     18  C   UNL     1      -0.870  11.073  21.879  0.00  0.00    +0.000 C 
ATOM     19  O   UNL     1      -0.873  11.762  23.134  0.00  0.00    +0.000 OA
ATOM     20  C   UNL     1      -0.936  13.194  22.950  0.00  0.00    +0.000 C 
ATOM     21  C   UNL     1       0.131  13.674  21.971  0.00  0.00    +0.000 C 
ENDBRANCH   1  16
BRANCH   1  22
ATOM     22  N   UNL     1       0.932  14.337  19.023  0.00  0.00    +0.000 NA
ATOM     23  C   UNL     1       2.120  13.727  18.464  0.00  0.00    +0.000 C 
ATOM     24  C   UNL     1       3.370  14.240  19.238  0.00  0.00    +0.000 C 
ATOM     25  O   UNL     1       3.478  15.679  19.333  0.00  0.00    +0.000 OA
ATOM     26  C   UNL     1       2.255  16.222  19.858  0.00  0.00    +0.000 C 
ATOM     27  C   UNL     1       1.097  15.814  18.952  0.00  0.00    +0.000 C 
ENDBRANCH   1  22
TORSDOF 5
ENDMDL
MODEL 6
REMARK VINA RESULT:      -7.3      1.342      2.472
REMARK  Name = 
REMARK  6 active torsions:
REMARK  status: ('A' for Active; 'I' for Inactive)
REMARK    1  A    between atoms: C_1  and  C_2
REMARK    2  A    between atoms: C_2  and  C_3
REMARK    3  A    between atoms: C_3  and  N_4
REMARK    4  A    between atoms: C_12  and  P_13
REMARK    5  A    between atoms: P_13  and  N_15
REMARK    6  A    between atoms: P_13  and  N_21
REMARK                            x       y       z     vdW  Elec       q    Type
REMARK                         _______ _______ _______ _____ _____    ______ ____
ROOT
ATOM      1  P   UNL     1       4.124   4.964  17.321  0.00  0.00    +0.000 P 
ATOM      2  N   UNL     1       3.251   4.330  16.246  0.00  0.00    +0.000 NA
ATOM      3  H   UNL     1       3.724   3.560  15.770  0.00  0.00    +0.000 HD
ENDROOT
BRANCH   1  12
ATOM      4  N   UNL     1       6.841   5.352  16.471  0.00  0.00    +0.000 N 
ATOM      5  N   UNL     1       7.654   5.674  15.452  0.00  0.00    +0.000 NA
ATOM      6  C   UNL     1       7.108   5.053  14.424  0.00  0.00    +0.000 A 
ATOM      7  C   UNL     1       7.683   4.911  13.140  0.00  0.00    +0.000 A 
ATOM      8  C   UNL     1       6.919   4.189  12.232  0.00  0.00    +0.000 A 
ATOM      9  C   UNL     1       5.712   3.559  12.621  0.00  0.00    +0.000 A 
ATOM     10  C   UNL     1       5.166   3.571  13.946  0.00  0.00    +0.000 A 
ATOM     11  C   UNL     1       5.826   4.453  14.823  0.00  0.00    +0.000 A 
ATOM     12  C   UNL     1       5.491   4.968  16.106  0.00  0.00    +0.000 A 
BRANCH   4  13
ATOM     13  C   UNL     1       7.440   5.482  17.801  0.00  0.00    +0.000 C 
BRANCH  13  15
ATOM     14  C   UNL     1       7.058   7.932  17.456  0.00  0.00    +0.000 C 
ATOM     15  C   UNL     1       7.867   6.894  18.220  0.00  0.00    +0.000 C 
ENDBRANCH  13  15
ENDBRANCH   4  13
ENDBRANCH   1  12
BRANCH   1  16
ATOM     16  N   UNL     1       4.654   3.585  18.162  0.00  0.00    +0.000 NA
ATOM     17  C   UNL     1       4.519   2.230  17.630  0.00  0.00    +0.000 C 
ATOM     18  C   UNL     1       3.437   1.510  18.418  0.00  0.00    +0.000 C 
ATOM     19  O   UNL     1       3.662   1.467  19.832  0.00  0.00    +0.000 OA
ATOM     20  C   UNL     1       3.947   2.782  20.360  0.00  0.00    +0.000 C 
ATOM     21  C   UNL     1       5.054   3.469  19.568  0.00  0.00    +0.000 C 
ENDBRANCH   1  16
BRANCH   1  22
ATOM     22  N   UNL     1       2.794   4.961  18.505  0.00  0.00    +0.000 NA
ATOM     23  C   UNL     1       2.596   5.810  19.661  0.00  0.00    +0.000 C 
ATOM     24  C   UNL     1       1.944   4.975  20.802  0.00  0.00    +0.000 C 
ATOM     25  O   UNL     1       0.744   4.263  20.425  0.00  0.00    +0.000 OA
ATOM     26  C   UNL     1       0.999   3.471  19.252  0.00  0.00    +0.000 C 
ATOM     27  C   UNL     1       1.475   4.385  18.127  0.00  0.00    +0.000 C 
ENDBRANCH   1  22
TORSDOF 5
ENDMDL
MODEL 7
REMARK VINA RESULT:      -7.3      7.736     10.977
REMARK  Name = 
REMARK  6 active torsions:
REMARK  status: ('A' for Active; 'I' for Inactive)
REMARK    1  A    between atoms: C_1  and  C_2
REMARK    2  A    between atoms: C_2  and  C_3
REMARK    3  A    between atoms: C_3  and  N_4
REMARK    4  A    between atoms: C_12  and  P_13
REMARK    5  A    between atoms: P_13  and  N_15
REMARK    6  A    between atoms: P_13  and  N_21
REMARK                            x       y       z     vdW  Elec       q    Type
REMARK                         _______ _______ _______ _____ _____    ______ ____
ROOT
ATOM      1  P   UNL     1       0.428  13.359  19.102  0.00  0.00    +0.000 P 
ATOM      2  N   UNL     1      -0.681  14.305  18.657  0.00  0.00    +0.000 NA
ATOM      3  H   UNL     1      -1.597  14.011  18.999  0.00  0.00    +0.000 HD
ENDROOT
BRANCH   1  12
ATOM      4  N   UNL     1      -0.126  10.644  18.347  0.00  0.00    +0.000 N 
ATOM      5  N   UNL     1      -0.917   9.824  17.635  0.00  0.00    +0.000 NA
ATOM      6  C   UNL     1      -2.122  10.330  17.823  0.00  0.00    +0.000 A 
ATOM      7  C   UNL     1      -3.343   9.728  17.444  0.00  0.00    +0.000 A 
ATOM      8  C   UNL     1      -4.482  10.451  17.778  0.00  0.00    +0.000 A 
ATOM      9  C   UNL     1      -4.402  11.641  18.540  0.00  0.00    +0.000 A 
ATOM     10  C   UNL     1      -3.192  12.210  19.055  0.00  0.00    +0.000 A 
ATOM     11  C   UNL     1      -2.023  11.598  18.564  0.00  0.00    +0.000 A 
ATOM     12  C   UNL     1      -0.651  11.972  18.593  0.00  0.00    +0.000 A 
BRANCH   4  13
ATOM     13  C   UNL     1       1.168  10.072  18.725  0.00  0.00    +0.000 C 
BRANCH  13  15
ATOM     14  C   UNL     1       2.302   7.846  18.560  0.00  0.00    +0.000 C 
ATOM     15  C   UNL     1       1.755   9.026  17.770  0.00  0.00    +0.000 C 
ENDBRANCH  13  15
ENDBRANCH   4  13
ENDBRANCH   1  12
BRANCH   1  16
ATOM     16  N   UNL     1       0.093  13.228  20.764  0.00  0.00    +0.000 NA
ATOM     17  C   UNL     1       0.456  12.055  21.557  0.00  0.00    +0.000 C 
ATOM     18  C   UNL     1      -0.814  11.289  21.891  0.00  0.00    +0.000 C 
ATOM     19  O   UNL     1      -1.809  12.059  22.574  0.00  0.00    +0.000 OA
ATOM     20  C   UNL     1      -2.080  13.300  21.884  0.00  0.00    +0.000 C 
ATOM     21  C   UNL     1      -0.792  14.060  21.585  0.00  0.00    +0.000 C 
ENDBRANCH   1  16
BRANCH   1  22
ATOM     22  N   UNL     1       1.479  14.708  19.598  0.00  0.00    +0.000 NA
ATOM     23  C   UNL     1       1.147  16.105  19.785  0.00  0.00    +0.000 C 
ATOM     24  C   UNL     1       2.350  16.981  19.329  0.00  0.00    +0.000 C 
ATOM     25  O   UNL     1       3.620  16.628  19.924  0.00  0.00    +0.000 OA
ATOM     26  C   UNL     1       3.869  15.225  19.735  0.00  0.00    +0.000 C 
ATOM     27  C   UNL     1       2.727  14.426  20.357  0.00  0.00    +0.000 C 
ENDBRANCH   1  22
TORSDOF 5
ENDMDL
MODEL 8
REMARK VINA RESULT:      -7.3      1.586      2.694
REMARK  Name = 
REMARK  6 active torsions:
REMARK  status: ('A' for Active; 'I' for Inactive)
REMARK    1  A    between atoms: C_1  and  C_2
REMARK    2  A    between atoms: C_2  and  C_3
REMARK    3  A    between atoms: C_3  and  N_4
REMARK    4  A    between atoms: C_12  and  P_13
REMARK    5  A    between atoms: P_13  and  N_15
REMARK    6  A    between atoms: P_13  and  N_21
REMARK                            x       y       z     vdW  Elec       q    Type
REMARK                         _______ _______ _______ _____ _____    ______ ____
ROOT
ATOM      1  P   UNL     1       4.785   4.338  18.539  0.00  0.00    +0.000 P 
ATOM      2  N   UNL     1       4.256   5.762  18.425  0.00  0.00    +0.000 NA
ATOM      3  H   UNL     1       4.017   6.009  17.463  0.00  0.00    +0.000 HD
ENDROOT
BRANCH   1  12
ATOM      4  N   UNL     1       7.093   5.430  17.223  0.00  0.00    +0.000 N 
ATOM      5  N   UNL     1       7.587   5.949  16.086  0.00  0.00    +0.000 NA
ATOM      6  C   UNL     1       7.042   5.195  15.150  0.00  0.00    +0.000 A 
ATOM      7  C   UNL     1       7.384   5.199  13.779  0.00  0.00    +0.000 A 
ATOM      8  C   UNL     1       6.682   4.289  12.997  0.00  0.00    +0.000 A 
ATOM      9  C   UNL     1       5.780   3.364  13.573  0.00  0.00    +0.000 A 
ATOM     10  C   UNL     1       5.508   3.242  14.975  0.00  0.00    +0.000 A 
ATOM     11  C   UNL     1       6.062   4.277  15.752  0.00  0.00    +0.000 A 
ATOM     12  C   UNL     1       5.849   4.696  17.095  0.00  0.00    +0.000 A 
BRANCH   4  13
ATOM     13  C   UNL     1       7.874   5.730  18.424  0.00  0.00    +0.000 C 
BRANCH  13  15
ATOM     14  C   UNL     1       7.487   8.081  17.655  0.00  0.00    +0.000 C 
ATOM     15  C   UNL     1       8.211   7.206  18.668  0.00  0.00    +0.000 C 
ENDBRANCH  13  15
ENDBRANCH   4  13
ENDBRANCH   1  12
BRANCH   1  16
ATOM     16  N   UNL     1       3.603   3.484  17.665  0.00  0.00    +0.000 NA
ATOM     17  C   UNL     1       2.471   4.139  17.011  0.00  0.00    +0.000 C 
ATOM     18  C   UNL     1       1.210   3.815  17.795  0.00  0.00    +0.000 C 
ATOM     19  O   UNL     1       0.950   2.415  17.950  0.00  0.00    +0.000 OA
ATOM     20  C   UNL     1       2.110   1.717  18.458  0.00  0.00    +0.000 C 
ATOM     21  C   UNL     1       3.354   2.039  17.637  0.00  0.00    +0.000 C 
ENDBRANCH   1  16
BRANCH   1  22
ATOM     22  N   UNL     1       3.749   3.989  19.944  0.00  0.00    +0.000 NA
ATOM     23  C   UNL     1       3.865   2.930  20.925  0.00  0.00    +0.000 C 
ATOM     24  C   UNL     1       2.440   2.458  21.337  0.00  0.00    +0.000 C 
ATOM     25  O   UNL     1       1.550   3.514  21.764  0.00  0.00    +0.000 OA
ATOM     26  C   UNL     1       1.510   4.547  20.765  0.00  0.00    +0.000 C 
ATOM     27  C   UNL     1       2.923   5.076  20.536  0.00  0.00    +0.000 C 
ENDBRANCH   1  22
TORSDOF 5
ENDMDL
MODEL 9
REMARK VINA RESULT:      -7.3      8.467     11.850
REMARK  Name = 
REMARK  6 active torsions:
REMARK  status: ('A' for Active; 'I' for Inactive)
REMARK    1  A    between atoms: C_1  and  C_2
REMARK    2  A    between atoms: C_2  and  C_3
REMARK    3  A    between atoms: C_3  and  N_4
REMARK    4  A    between atoms: C_12  and  P_13
REMARK    5  A    between atoms: P_13  and  N_15
REMARK    6  A    between atoms: P_13  and  N_21
REMARK                            x       y       z     vdW  Elec       q    Type
REMARK                         _______ _______ _______ _____ _____    ______ ____
ROOT
ATOM      1  P   UNL     1       0.463  13.919  20.983  0.00  0.00    +0.000 P 
ATOM      2  N   UNL     1       1.662  13.398  20.202  0.00  0.00    +0.000 NA
ATOM      3  H   UNL     1       1.447  12.538  19.695  0.00  0.00    +0.000 HD
ENDROOT
BRANCH   1  12
ATOM      4  N   UNL     1      -0.684  11.913  22.690  0.00  0.00    +0.000 N 
ATOM      5  N   UNL     1      -0.514  10.714  23.270  0.00  0.00    +0.000 NA
ATOM      6  C   UNL     1       0.064  10.001  22.322  0.00  0.00    +0.000 A 
ATOM      7  C   UNL     1       0.286   8.605  22.353  0.00  0.00    +0.000 A 
ATOM      8  C   UNL     1       0.891   8.082  21.217  0.00  0.00    +0.000 A 
ATOM      9  C   UNL     1       1.152   8.888  20.083  0.00  0.00    +0.000 A 
ATOM     10  C   UNL     1       0.820  10.277  19.967  0.00  0.00    +0.000 A 
ATOM     11  C   UNL     1       0.385  10.860  21.172  0.00  0.00    +0.000 A 
ATOM     12  C   UNL     1       0.202  12.210  21.581  0.00  0.00    +0.000 A 
BRANCH   4  13
ATOM     13  C   UNL     1      -1.716  12.752  23.304  0.00  0.00    +0.000 C 
BRANCH  13  15
ATOM     14  C   UNL     1      -4.023  13.066  24.224  0.00  0.00    +0.000 C 
ATOM     15  C   UNL     1      -3.088  12.099  23.513  0.00  0.00    +0.000 C 
ENDBRANCH  13  15
ENDBRANCH   4  13
ENDBRANCH   1  12
BRANCH   1  16
ATOM     16  N   UNL     1      -0.747  13.864  19.791  0.00  0.00    +0.000 NA
ATOM     17  C   UNL     1      -2.174  13.853  20.107  0.00  0.00    +0.000 C 
ATOM     18  C   UNL     1      -2.721  12.464  19.819  0.00  0.00    +0.000 C 
ATOM     19  O   UNL     1      -2.508  12.009  18.478  0.00  0.00    +0.000 OA
ATOM     20  C   UNL     1      -1.123  12.149  18.088  0.00  0.00    +0.000 C 
ATOM     21  C   UNL     1      -0.610  13.559  18.363  0.00  0.00    +0.000 C 
ENDBRANCH   1  16
BRANCH   1  22
ATOM     22  N   UNL     1       0.717  15.583  20.402  0.00  0.00    +0.000 NA
ATOM     23  C   UNL     1       0.064  16.807  20.818  0.00  0.00    +0.000 C 
ATOM     24  C   UNL     1      -0.112  17.736  19.581  0.00  0.00    +0.000 C 
ATOM     25  O   UNL     1       1.096  17.981  18.827  0.00  0.00    +0.000 OA
ATOM     26  C   UNL     1       1.711  16.729  18.479  0.00  0.00    +0.000 C 
ATOM     27  C   UNL     1       2.007  15.946  19.755  0.00  0.00    +0.000 C 
ENDBRANCH   1  22
TORSDOF 5
ENDMDL
