MODEL 1
REMARK VINA RESULT:      -8.3      0.000      0.000
REMARK  Name = 
REMARK  7 active torsions:
REMARK  status: ('A' for Active; 'I' for Inactive)
REMARK    1  A    between atoms: C_1  and  O_2
REMARK    2  A    between atoms: O_2  and  C_3
REMARK    3  A    between atoms: C_6  and  C_7
REMARK    4  A    between atoms: C_9  and  C_10
REMARK    5  A    between atoms: C_12  and  N_13
REMARK    6  A    between atoms: N_13  and  C_14
REMARK    7  A    between atoms: C_14  and  C_15
REMARK                            x       y       z     vdW  Elec       q    Type
REMARK                         _______ _______ _______ _____ _____    ______ ____
ROOT
ATOM      1  C   UNL     1       3.692   6.571  17.798  0.00  0.00    +0.000 A 
ATOM      2  N   UNL     1       4.686   6.807  16.961  0.00  0.00    +0.000 NA
ATOM      3  C   UNL     1       5.249   5.563  16.775  0.00  0.00    +0.000 A 
ATOM      4  C   UNL     1       4.563   4.603  17.488  0.00  0.00    +0.000 A 
ATOM      5  O   UNL     1       3.551   5.250  18.143  0.00  0.00    +0.000 OA
ENDROOT
BRANCH   1   9
ATOM      6  C   UNL     1       0.976   9.376  19.570  0.00  0.00    +0.000 A 
ATOM      7  C   UNL     1       1.464   9.572  18.278  0.00  0.00    +0.000 A 
ATOM      8  C   UNL     1       2.339   8.647  17.699  0.00  0.00    +0.000 A 
ATOM      9  C   UNL     1       2.759   7.516  18.412  0.00  0.00    +0.000 A 
ATOM     10  C   UNL     1       2.278   7.340  19.719  0.00  0.00    +0.000 A 
ATOM     11  C   UNL     1       1.395   8.263  20.295  0.00  0.00    +0.000 A 
BRANCH   6  13
ATOM     12  C   UNL     1      -0.947  10.691  19.169  0.00  0.00    +0.000 C 
ATOM     13  O   UNL     1       0.133  10.351  20.029  0.00  0.00    +0.000 OA
ENDBRANCH   6  13
ENDBRANCH   1   9
BRANCH   3  14
ATOM     14  C   UNL     1       6.386   5.367  15.942  0.00  0.00    +0.000 C 
ATOM     15  N   UNL     1       7.318   5.232  15.263  0.00  0.00    +0.000 NA
ENDBRANCH   3  14
BRANCH   4  16
ATOM     16  N   UNL     1       4.712   3.275  17.686  0.00  0.00    +0.000 N 
ATOM     17  H   UNL     1       5.546   2.815  17.323  0.00  0.00    +0.000 HD
BRANCH  16  18
ATOM     18  C   UNL     1       3.557   2.391  17.730  0.00  0.00    +0.000 C 
BRANCH  18  19
ATOM     19  C   UNL     1       2.788   2.635  19.007  0.00  0.00    +0.000 A 
ATOM     20  C   UNL     1       1.476   3.136  18.918  0.00  0.00    +0.000 A 
ATOM     21  C   UNL     1       0.728   3.402  20.067  0.00  0.00    +0.000 A 
ATOM     22  C   UNL     1       1.281   3.181  21.323  0.00  0.00    +0.000 A 
ATOM     23  C   UNL     1       2.583   2.693  21.433  0.00  0.00    +0.000 A 
ATOM     24  C   UNL     1       3.334   2.422  20.282  0.00  0.00    +0.000 A 
ATOM     25 CL   UNL     1       4.945   1.838  20.499  0.00  0.00    +0.000 Cl
ENDBRANCH  18  19
ENDBRANCH  16  18
ENDBRANCH   4  16
TORSDOF 6
ENDMDL
MODEL 2
REMARK VINA RESULT:      -8.3      0.462      1.085
REMARK  Name = 
REMARK  7 active torsions:
REMARK  status: ('A' for Active; 'I' for Inactive)
REMARK    1  A    between atoms: C_1  and  O_2
REMARK    2  A    between atoms: O_2  and  C_3
REMARK    3  A    between atoms: C_6  and  C_7
REMARK    4  A    between atoms: C_9  and  C_10
REMARK    5  A    between atoms: C_12  and  N_13
REMARK    6  A    between atoms: N_13  and  C_14
REMARK    7  A    between atoms: C_14  and  C_15
REMARK                            x       y       z     vdW  Elec       q    Type
REMARK                         _______ _______ _______ _____ _____    ______ ____
ROOT
ATOM      1  C   UNL     1       3.703   6.596  17.742  0.00  0.00    +0.000 A 
ATOM      2  N   UNL     1       4.684   6.823  16.887  0.00  0.00    +0.000 NA
ATOM      3  C   UNL     1       5.236   5.575  16.697  0.00  0.00    +0.000 A 
ATOM      4  C   UNL     1       4.558   4.622  17.426  0.00  0.00    +0.000 A 
ATOM      5  O   UNL     1       3.561   5.277  18.095  0.00  0.00    +0.000 OA
ENDROOT
BRANCH   1   9
ATOM      6  C   UNL     1       0.993   9.350  19.601  0.00  0.00    +0.000 A 
ATOM      7  C   UNL     1       1.437   8.215  20.280  0.00  0.00    +0.000 A 
ATOM      8  C   UNL     1       2.332   7.327  19.674  0.00  0.00    +0.000 A 
ATOM      9  C   UNL     1       2.785   7.548  18.367  0.00  0.00    +0.000 A 
ATOM     10  C   UNL     1       2.315   8.682  17.686  0.00  0.00    +0.000 A 
ATOM     11  C   UNL     1       1.425   9.576  18.296  0.00  0.00    +0.000 A 
BRANCH   6  13
ATOM     12  C   UNL     1       0.569  11.452  20.595  0.00  0.00    +0.000 C 
ATOM     13  O   UNL     1       0.116  10.138  20.294  0.00  0.00    +0.000 OA
ENDBRANCH   6  13
ENDBRANCH   1   9
BRANCH   3  14
ATOM     14  C   UNL     1       6.358   5.369  15.846  0.00  0.00    +0.000 C 
ATOM     15  N   UNL     1       7.262   5.215  15.133  0.00  0.00    +0.000 NA
ENDBRANCH   3  14
BRANCH   4  16
ATOM     16  N   UNL     1       4.704   3.294  17.628  0.00  0.00    +0.000 N 
ATOM     17  H   UNL     1       5.537   2.831  17.267  0.00  0.00    +0.000 HD
BRANCH  16  18
ATOM     18  C   UNL     1       3.547   2.413  17.673  0.00  0.00    +0.000 C 
BRANCH  18  19
ATOM     19  C   UNL     1       2.781   2.657  18.952  0.00  0.00    +0.000 A 
ATOM     20  C   UNL     1       1.473   3.169  18.866  0.00  0.00    +0.000 A 
ATOM     21  C   UNL     1       0.728   3.436  20.017  0.00  0.00    +0.000 A 
ATOM     22  C   UNL     1       1.280   3.205  21.272  0.00  0.00    +0.000 A 
ATOM     23  C   UNL     1       2.578   2.707  21.378  0.00  0.00    +0.000 A 
ATOM     24  C   UNL     1       3.326   2.435  20.226  0.00  0.00    +0.000 A 
ATOM     25 CL   UNL     1       4.933   1.837  20.439  0.00  0.00    +0.000 Cl
ENDBRANCH  18  19
ENDBRANCH  16  18
ENDBRANCH   4  16
TORSDOF 6
ENDMDL
MODEL 3
REMARK VINA RESULT:      -8.2      2.716      4.905
REMARK  Name = 
REMARK  7 active torsions:
REMARK  status: ('A' for Active; 'I' for Inactive)
REMARK    1  A    between atoms: C_1  and  O_2
REMARK    2  A    between atoms: O_2  and  C_3
REMARK    3  A    between atoms: C_6  and  C_7
REMARK    4  A    between atoms: C_9  and  C_10
REMARK    5  A    between atoms: C_12  and  N_13
REMARK    6  A    between atoms: N_13  and  C_14
REMARK    7  A    between atoms: C_14  and  C_15
REMARK                            x       y       z     vdW  Elec       q    Type
REMARK                         _______ _______ _______ _____ _____    ______ ____
ROOT
ATOM      1  C   UNL     1       2.240   6.609  19.920  0.00  0.00    +0.000 A 
ATOM      2  N   UNL     1       1.650   5.778  20.761  0.00  0.00    +0.000 NA
ATOM      3  C   UNL     1       2.408   4.633  20.662  0.00  0.00    +0.000 A 
ATOM      4  C   UNL     1       3.452   4.810  19.780  0.00  0.00    +0.000 A 
ATOM      5  O   UNL     1       3.352   6.089  19.306  0.00  0.00    +0.000 OA
ENDROOT
BRANCH   1   9
ATOM      6  C   UNL     1       1.080  10.598  18.858  0.00  0.00    +0.000 A 
ATOM      7  C   UNL     1       0.771  10.074  20.114  0.00  0.00    +0.000 A 
ATOM      8  C   UNL     1       1.164   8.777  20.460  0.00  0.00    +0.000 A 
ATOM      9  C   UNL     1       1.857   7.971  19.548  0.00  0.00    +0.000 A 
ATOM     10  C   UNL     1       2.144   8.501  18.280  0.00  0.00    +0.000 A 
ATOM     11  C   UNL     1       1.757   9.804  17.936  0.00  0.00    +0.000 A 
BRANCH   6  13
ATOM     12  C   UNL     1       1.649  12.868  18.529  0.00  0.00    +0.000 C 
ATOM     13  O   UNL     1       0.639  11.873  18.634  0.00  0.00    +0.000 OA
ENDBRANCH   6  13
ENDBRANCH   1   9
BRANCH   3  14
ATOM     14  C   UNL     1       2.098   3.457  21.403  0.00  0.00    +0.000 C 
ATOM     15  N   UNL     1       1.827   2.512  22.019  0.00  0.00    +0.000 NA
ENDBRANCH   3  14
BRANCH   4  16
ATOM     16  N   UNL     1       4.439   4.021  19.300  0.00  0.00    +0.000 N 
ATOM     17  H   UNL     1       5.122   3.638  19.951  0.00  0.00    +0.000 HD
BRANCH  16  18
ATOM     18  C   UNL     1       4.989   4.237  17.970  0.00  0.00    +0.000 C 
BRANCH  18  19
ATOM     19  C   UNL     1       6.059   5.301  18.038  0.00  0.00    +0.000 A 
ATOM     20  C   UNL     1       7.043   5.203  19.040  0.00  0.00    +0.000 A 
ATOM     21  C   UNL     1       8.043   6.171  19.164  0.00  0.00    +0.000 A 
ATOM     22  C   UNL     1       8.070   7.257  18.296  0.00  0.00    +0.000 A 
ATOM     23  C   UNL     1       7.099   7.377  17.303  0.00  0.00    +0.000 A 
ATOM     24  C   UNL     1       6.098   6.406  17.174  0.00  0.00    +0.000 A 
ATOM     25 CL   UNL     1       4.920   6.634  15.932  0.00  0.00    +0.000 Cl
ENDBRANCH  18  19
ENDBRANCH  16  18
ENDBRANCH   4  16
TORSDOF 6
ENDMDL
MODEL 4
REMARK VINA RESULT:      -8.2      1.266      1.890
REMARK  Name = 
REMARK  7 active torsions:
REMARK  status: ('A' for Active; 'I' for Inactive)
REMARK    1  A    between atoms: C_1  and  O_2
REMARK    2  A    between atoms: O_2  and  C_3
REMARK    3  A    between atoms: C_6  and  C_7
REMARK    4  A    between atoms: C_9  and  C_10
REMARK    5  A    between atoms: C_12  and  N_13
REMARK    6  A    between atoms: N_13  and  C_14
REMARK    7  A    between atoms: C_14  and  C_15
REMARK                            x       y       z     vdW  Elec       q    Type
REMARK                         _______ _______ _______ _____ _____    ______ ____
ROOT
ATOM      1  C   UNL     1       3.610   6.308  18.235  0.00  0.00    +0.000 A 
ATOM      2  N   UNL     1       4.143   6.042  17.056  0.00  0.00    +0.000 NA
ATOM      3  C   UNL     1       4.918   4.930  17.300  0.00  0.00    +0.000 A 
ATOM      4  C   UNL     1       4.814   4.539  18.618  0.00  0.00    +0.000 A 
ATOM      5  O   UNL     1       3.963   5.422  19.223  0.00  0.00    +0.000 OA
ENDROOT
BRANCH   1   9
ATOM      6  C   UNL     1       1.017   9.517  19.404  0.00  0.00    +0.000 A 
ATOM      7  C   UNL     1       1.321   8.484  20.291  0.00  0.00    +0.000 A 
ATOM      8  C   UNL     1       2.178   7.447  19.909  0.00  0.00    +0.000 A 
ATOM      9  C   UNL     1       2.734   7.413  18.623  0.00  0.00    +0.000 A 
ATOM     10  C   UNL     1       2.405   8.447  17.732  0.00  0.00    +0.000 A 
ATOM     11  C   UNL     1       1.552   9.491  18.118  0.00  0.00    +0.000 A 
BRANCH   6  13
ATOM     12  C   UNL     1       0.148  10.625  21.302  0.00  0.00    +0.000 C 
ATOM     13  O   UNL     1       0.164  10.470  19.888  0.00  0.00    +0.000 OA
ENDBRANCH   6  13
ENDBRANCH   1   9
BRANCH   3  14
ATOM     14  C   UNL     1       5.698   4.315  16.280  0.00  0.00    +0.000 C 
ATOM     15  N   UNL     1       6.352   3.809  15.466  0.00  0.00    +0.000 NA
ENDBRANCH   3  14
BRANCH   4  16
ATOM     16  N   UNL     1       5.377   3.569  19.372  0.00  0.00    +0.000 N 
ATOM     17  H   UNL     1       6.392   3.482  19.383  0.00  0.00    +0.000 HD
BRANCH  16  18
ATOM     18  C   UNL     1       4.701   2.297  19.579  0.00  0.00    +0.000 C 
BRANCH  18  19
ATOM     19  C   UNL     1       3.242   2.547  19.878  0.00  0.00    +0.000 A 
ATOM     20  C   UNL     1       2.865   2.822  21.206  0.00  0.00    +0.000 A 
ATOM     21  C   UNL     1       1.527   3.039  21.543  0.00  0.00    +0.000 A 
ATOM     22  C   UNL     1       0.543   2.975  20.562  0.00  0.00    +0.000 A 
ATOM     23  C   UNL     1       0.896   2.694  19.243  0.00  0.00    +0.000 A 
ATOM     24  C   UNL     1       2.237   2.480  18.901  0.00  0.00    +0.000 A 
ATOM     25 CL   UNL     1       2.592   2.120  17.250  0.00  0.00    +0.000 Cl
ENDBRANCH  18  19
ENDBRANCH  16  18
ENDBRANCH   4  16
TORSDOF 6
ENDMDL
MODEL 5
REMARK VINA RESULT:      -8.1      1.225      1.581
REMARK  Name = 
REMARK  7 active torsions:
REMARK  status: ('A' for Active; 'I' for Inactive)
REMARK    1  A    between atoms: C_1  and  O_2
REMARK    2  A    between atoms: O_2  and  C_3
REMARK    3  A    between atoms: C_6  and  C_7
REMARK    4  A    between atoms: C_9  and  C_10
REMARK    5  A    between atoms: C_12  and  N_13
REMARK    6  A    between atoms: N_13  and  C_14
REMARK    7  A    between atoms: C_14  and  C_15
REMARK                            x       y       z     vdW  Elec       q    Type
REMARK                         _______ _______ _______ _____ _____    ______ ____
ROOT
ATOM      1  C   UNL     1       3.586   6.293  18.292  0.00  0.00    +0.000 A 
ATOM      2  N   UNL     1       4.108   6.053  17.102  0.00  0.00    +0.000 NA
ATOM      3  C   UNL     1       4.896   4.944  17.317  0.00  0.00    +0.000 A 
ATOM      4  C   UNL     1       4.812   4.528  18.629  0.00  0.00    +0.000 A 
ATOM      5  O   UNL     1       3.959   5.392  19.259  0.00  0.00    +0.000 OA
ENDROOT
BRANCH   1   9
ATOM      6  C   UNL     1       1.024   9.516  19.488  0.00  0.00    +0.000 A 
ATOM      7  C   UNL     1       1.613   9.502  18.223  0.00  0.00    +0.000 A 
ATOM      8  C   UNL     1       2.437   8.441  17.833  0.00  0.00    +0.000 A 
ATOM      9  C   UNL     1       2.704   7.381  18.710  0.00  0.00    +0.000 A 
ATOM     10  C   UNL     1       2.123   7.417  19.987  0.00  0.00    +0.000 A 
ATOM     11  C   UNL     1       1.291   8.476  20.375  0.00  0.00    +0.000 A 
BRANCH   6  13
ATOM     12  C   UNL     1       0.311  11.664  18.807  0.00  0.00    +0.000 C 
ATOM     13  O   UNL     1       0.245  10.607  19.756  0.00  0.00    +0.000 OA
ENDBRANCH   6  13
ENDBRANCH   1   9
BRANCH   3  14
ATOM     14  C   UNL     1       5.670   4.356  16.277  0.00  0.00    +0.000 C 
ATOM     15  N   UNL     1       6.311   3.859  15.446  0.00  0.00    +0.000 NA
ENDBRANCH   3  14
BRANCH   4  16
ATOM     16  N   UNL     1       5.392   3.550  19.358  0.00  0.00    +0.000 N 
ATOM     17  H   UNL     1       6.406   3.456  19.334  0.00  0.00    +0.000 HD
BRANCH  16  18
ATOM     18  C   UNL     1       4.715   2.282  19.581  0.00  0.00    +0.000 C 
BRANCH  18  19
ATOM     19  C   UNL     1       3.259   2.539  19.892  0.00  0.00    +0.000 A 
ATOM     20  C   UNL     1       2.893   2.811  21.223  0.00  0.00    +0.000 A 
ATOM     21  C   UNL     1       1.559   3.033  21.571  0.00  0.00    +0.000 A 
ATOM     22  C   UNL     1       0.567   2.979  20.597  0.00  0.00    +0.000 A 
ATOM     23  C   UNL     1       0.909   2.702  19.273  0.00  0.00    +0.000 A 
ATOM     24  C   UNL     1       2.247   2.482  18.922  0.00  0.00    +0.000 A 
ATOM     25 CL   UNL     1       2.588   2.127  17.266  0.00  0.00    +0.000 Cl
ENDBRANCH  18  19
ENDBRANCH  16  18
ENDBRANCH   4  16
TORSDOF 6
ENDMDL
MODEL 6
REMARK VINA RESULT:      -8.1      3.223      7.009
REMARK  Name = 
REMARK  7 active torsions:
REMARK  status: ('A' for Active; 'I' for Inactive)
REMARK    1  A    between atoms: C_1  and  O_2
REMARK    2  A    between atoms: O_2  and  C_3
REMARK    3  A    between atoms: C_6  and  C_7
REMARK    4  A    between atoms: C_9  and  C_10
REMARK    5  A    between atoms: C_12  and  N_13
REMARK    6  A    between atoms: N_13  and  C_14
REMARK    7  A    between atoms: C_14  and  C_15
REMARK                            x       y       z     vdW  Elec       q    Type
REMARK                         _______ _______ _______ _____ _____    ______ ____
ROOT
ATOM      1  C   UNL     1       4.076   4.894  18.782  0.00  0.00    +0.000 A 
ATOM      2  N   UNL     1       3.702   3.855  19.508  0.00  0.00    +0.000 NA
ATOM      3  C   UNL     1       2.768   4.387  20.368  0.00  0.00    +0.000 A 
ATOM      4  C   UNL     1       2.583   5.731  20.124  0.00  0.00    +0.000 A 
ATOM      5  O   UNL     1       3.420   6.060  19.093  0.00  0.00    +0.000 OA
ENDROOT
BRANCH   1   9
ATOM      6  C   UNL     1       7.016   5.105  15.668  0.00  0.00    +0.000 A 
ATOM      7  C   UNL     1       5.686   5.447  15.420  0.00  0.00    +0.000 A 
ATOM      8  C   UNL     1       4.734   5.390  16.443  0.00  0.00    +0.000 A 
ATOM      9  C   UNL     1       5.091   4.969  17.732  0.00  0.00    +0.000 A 
ATOM     10  C   UNL     1       6.427   4.607  17.964  0.00  0.00    +0.000 A 
ATOM     11  C   UNL     1       7.383   4.673  16.940  0.00  0.00    +0.000 A 
BRANCH   6  13
ATOM     12  C   UNL     1       7.263   4.917  13.325  0.00  0.00    +0.000 C 
ATOM     13  O   UNL     1       7.852   5.195  14.589  0.00  0.00    +0.000 OA
ENDBRANCH   6  13
ENDBRANCH   1   9
BRANCH   3  14
ATOM     14  C   UNL     1       2.116   3.595  21.356  0.00  0.00    +0.000 C 
ATOM     15  N   UNL     1       1.561   2.958  22.152  0.00  0.00    +0.000 NA
ENDBRANCH   3  14
BRANCH   4  16
ATOM     16  N   UNL     1       1.838   6.708  20.686  0.00  0.00    +0.000 N 
ATOM     17  H   UNL     1       0.984   6.453  21.179  0.00  0.00    +0.000 HD
BRANCH  16  18
ATOM     18  C   UNL     1       1.767   8.032  20.085  0.00  0.00    +0.000 C 
BRANCH  18  19
ATOM     19  C   UNL     1       0.907   8.927  20.946  0.00  0.00    +0.000 A 
ATOM     20  C   UNL     1       0.926   8.740  22.341  0.00  0.00    +0.000 A 
ATOM     21  C   UNL     1       0.133   9.523  23.183  0.00  0.00    +0.000 A 
ATOM     22  C   UNL     1      -0.700  10.498  22.645  0.00  0.00    +0.000 A 
ATOM     23  C   UNL     1      -0.740  10.692  21.265  0.00  0.00    +0.000 A 
ATOM     24  C   UNL     1       0.057   9.911  20.419  0.00  0.00    +0.000 A 
ATOM     25 CL   UNL     1      -0.063  10.198  18.720  0.00  0.00    +0.000 Cl
ENDBRANCH  18  19
ENDBRANCH  16  18
ENDBRANCH   4  16
TORSDOF 6
ENDMDL
MODEL 7
REMARK VINA RESULT:      -8.1      2.650      4.766
REMARK  Name = 
REMARK  7 active torsions:
REMARK  status: ('A' for Active; 'I' for Inactive)
REMARK    1  A    between atoms: C_1  and  O_2
REMARK    2  A    between atoms: O_2  and  C_3
REMARK    3  A    between atoms: C_6  and  C_7
REMARK    4  A    between atoms: C_9  and  C_10
REMARK    5  A    between atoms: C_12  and  N_13
REMARK    6  A    between atoms: N_13  and  C_14
REMARK    7  A    between atoms: C_14  and  C_15
REMARK                            x       y       z     vdW  Elec       q    Type
REMARK                         _______ _______ _______ _____ _____    ______ ____
ROOT
ATOM      1  C   UNL     1       2.212   6.529  19.958  0.00  0.00    +0.000 A 
ATOM      2  N   UNL     1       1.682   5.706  20.845  0.00  0.00    +0.000 NA
ATOM      3  C   UNL     1       2.405   4.545  20.675  0.00  0.00    +0.000 A 
ATOM      4  C   UNL     1       3.370   4.706  19.704  0.00  0.00    +0.000 A 
ATOM      5  O   UNL     1       3.254   5.989  19.245  0.00  0.00    +0.000 OA
ENDROOT
BRANCH   1   9
ATOM      6  C   UNL     1       1.123  10.552  18.953  0.00  0.00    +0.000 A 
ATOM      7  C   UNL     1       1.785   9.740  18.032  0.00  0.00    +0.000 A 
ATOM      8  C   UNL     1       2.125   8.423  18.360  0.00  0.00    +0.000 A 
ATOM      9  C   UNL     1       1.827   7.900  19.626  0.00  0.00    +0.000 A 
ATOM     10  C   UNL     1       1.180   8.734  20.551  0.00  0.00    +0.000 A 
ATOM     11  C   UNL     1       0.831  10.050  20.219  0.00  0.00    +0.000 A 
BRANCH   6  13
ATOM     12  C   UNL     1       0.108  12.635  19.421  0.00  0.00    +0.000 C 
ATOM     13  O   UNL     1       0.848  11.820  18.520  0.00  0.00    +0.000 OA
ENDBRANCH   6  13
ENDBRANCH   1   9
BRANCH   3  14
ATOM     14  C   UNL     1       2.137   3.372  21.436  0.00  0.00    +0.000 C 
ATOM     15  N   UNL     1       1.893   2.423  22.057  0.00  0.00    +0.000 NA
ENDBRANCH   3  14
BRANCH   4  16
ATOM     16  N   UNL     1       4.293   3.899  19.135  0.00  0.00    +0.000 N 
ATOM     17  H   UNL     1       4.953   3.409  19.736  0.00  0.00    +0.000 HD
BRANCH  16  18
ATOM     18  C   UNL     1       4.844   4.203  17.823  0.00  0.00    +0.000 C 
BRANCH  18  19
ATOM     19  C   UNL     1       5.950   5.221  17.968  0.00  0.00    +0.000 A 
ATOM     20  C   UNL     1       6.875   5.065  19.017  0.00  0.00    +0.000 A 
ATOM     21  C   UNL     1       7.904   5.989  19.212  0.00  0.00    +0.000 A 
ATOM     22  C   UNL     1       8.021   7.089  18.369  0.00  0.00    +0.000 A 
ATOM     23  C   UNL     1       7.108   7.266  17.329  0.00  0.00    +0.000 A 
ATOM     24  C   UNL     1       6.078   6.339  17.130  0.00  0.00    +0.000 A 
ATOM     25 CL   UNL     1       4.976   6.637  15.833  0.00  0.00    +0.000 Cl
ENDBRANCH  18  19
ENDBRANCH  16  18
ENDBRANCH   4  16
TORSDOF 6
ENDMDL
MODEL 8
REMARK VINA RESULT:      -8.1      1.194      1.546
REMARK  Name = 
REMARK  7 active torsions:
REMARK  status: ('A' for Active; 'I' for Inactive)
REMARK    1  A    between atoms: C_1  and  O_2
REMARK    2  A    between atoms: O_2  and  C_3
REMARK    3  A    between atoms: C_6  and  C_7
REMARK    4  A    between atoms: C_9  and  C_10
REMARK    5  A    between atoms: C_12  and  N_13
REMARK    6  A    between atoms: N_13  and  C_14
REMARK    7  A    between atoms: C_14  and  C_15
REMARK                            x       y       z     vdW  Elec       q    Type
REMARK                         _______ _______ _______ _____ _____    ______ ____
ROOT
ATOM      1  C   UNL     1       3.686   6.799  17.852  0.00  0.00    +0.000 A 
ATOM      2  N   UNL     1       4.610   7.021  16.935  0.00  0.00    +0.000 NA
ATOM      3  C   UNL     1       5.269   5.814  16.848  0.00  0.00    +0.000 A 
ATOM      4  C   UNL     1       4.707   4.886  17.699  0.00  0.00    +0.000 A 
ATOM      5  O   UNL     1       3.678   5.517  18.342  0.00  0.00    +0.000 OA
ENDROOT
BRANCH   1   9
ATOM      6  C   UNL     1       0.834   9.554  19.484  0.00  0.00    +0.000 A 
ATOM      7  C   UNL     1       1.338   9.727  18.195  0.00  0.00    +0.000 A 
ATOM      8  C   UNL     1       2.257   8.818  17.662  0.00  0.00    +0.000 A 
ATOM      9  C   UNL     1       2.706   7.726  18.418  0.00  0.00    +0.000 A 
ATOM     10  C   UNL     1       2.208   7.575  19.722  0.00  0.00    +0.000 A 
ATOM     11  C   UNL     1       1.281   8.482  20.252  0.00  0.00    +0.000 A 
BRANCH   6  13
ATOM     12  C   UNL     1      -0.395  10.483  21.276  0.00  0.00    +0.000 C 
ATOM     13  O   UNL     1      -0.053  10.510  19.896  0.00  0.00    +0.000 OA
ENDBRANCH   6  13
ENDBRANCH   1   9
BRANCH   3  14
ATOM     14  C   UNL     1       6.374   5.620  15.972  0.00  0.00    +0.000 C 
ATOM     15  N   UNL     1       7.277   5.437  15.266  0.00  0.00    +0.000 NA
ENDBRANCH   3  14
BRANCH   4  16
ATOM     16  N   UNL     1       4.982   3.604  18.025  0.00  0.00    +0.000 N 
ATOM     17  H   UNL     1       5.900   3.225  17.800  0.00  0.00    +0.000 HD
BRANCH  16  18
ATOM     18  C   UNL     1       3.938   2.590  18.016  0.00  0.00    +0.000 C 
BRANCH  18  19
ATOM     19  C   UNL     1       3.031   2.794  19.206  0.00  0.00    +0.000 A 
ATOM     20  C   UNL     1       3.486   2.392  20.476  0.00  0.00    +0.000 A 
ATOM     21  C   UNL     1       2.680   2.536  21.608  0.00  0.00    +0.000 A 
ATOM     22  C   UNL     1       1.403   3.073  21.488  0.00  0.00    +0.000 A 
ATOM     23  C   UNL     1       0.930   3.469  20.237  0.00  0.00    +0.000 A 
ATOM     24  C   UNL     1       1.738   3.329  19.102  0.00  0.00    +0.000 A 
ATOM     25 CL   UNL     1       1.075   3.824  17.585  0.00  0.00    +0.000 Cl
ENDBRANCH  18  19
ENDBRANCH  16  18
ENDBRANCH   4  16
TORSDOF 6
ENDMDL
MODEL 9
REMARK VINA RESULT:      -8.0      3.246      7.046
REMARK  Name = 
REMARK  7 active torsions:
REMARK  status: ('A' for Active; 'I' for Inactive)
REMARK    1  A    between atoms: C_1  and  O_2
REMARK    2  A    between atoms: O_2  and  C_3
REMARK    3  A    between atoms: C_6  and  C_7
REMARK    4  A    between atoms: C_9  and  C_10
REMARK    5  A    between atoms: C_12  and  N_13
REMARK    6  A    between atoms: N_13  and  C_14
REMARK    7  A    between atoms: C_14  and  C_15
REMARK                            x       y       z     vdW  Elec       q    Type
REMARK                         _______ _______ _______ _____ _____    ______ ____
ROOT
ATOM      1  C   UNL     1       3.671   4.849  18.383  0.00  0.00    +0.000 A 
ATOM      2  N   UNL     1       3.428   3.838  19.198  0.00  0.00    +0.000 NA
ATOM      3  C   UNL     1       2.682   4.412  20.204  0.00  0.00    +0.000 A 
ATOM      4  C   UNL     1       2.474   5.752  19.957  0.00  0.00    +0.000 A 
ATOM      5  O   UNL     1       3.104   6.035  18.776  0.00  0.00    +0.000 OA
ENDROOT
BRANCH   1   9
ATOM      6  C   UNL     1       6.031   4.881  14.803  0.00  0.00    +0.000 A 
ATOM      7  C   UNL     1       5.717   3.681  15.441  0.00  0.00    +0.000 A 
ATOM      8  C   UNL     1       4.935   3.675  16.601  0.00  0.00    +0.000 A 
ATOM      9  C   UNL     1       4.469   4.874  17.157  0.00  0.00    +0.000 A 
ATOM     10  C   UNL     1       4.809   6.077  16.518  0.00  0.00    +0.000 A 
ATOM     11  C   UNL     1       5.586   6.082  15.351  0.00  0.00    +0.000 A 
BRANCH   6  13
ATOM     12  C   UNL     1       6.429   3.731  12.777  0.00  0.00    +0.000 C 
ATOM     13  O   UNL     1       6.806   4.761  13.683  0.00  0.00    +0.000 OA
ENDBRANCH   6  13
ENDBRANCH   1   9
BRANCH   3  14
ATOM     14  C   UNL     1       2.219   3.662  21.321  0.00  0.00    +0.000 C 
ATOM     15  N   UNL     1       1.858   3.063  22.248  0.00  0.00    +0.000 NA
ENDBRANCH   3  14
BRANCH   4  16
ATOM     16  N   UNL     1       1.864   6.760  20.619  0.00  0.00    +0.000 N 
ATOM     17  H   UNL     1       1.059   6.546  21.205  0.00  0.00    +0.000 HD
BRANCH  16  18
ATOM     18  C   UNL     1       1.807   8.100  20.053  0.00  0.00    +0.000 C 
BRANCH  18  19
ATOM     19  C   UNL     1       0.932   8.973  20.921  0.00  0.00    +0.000 A 
ATOM     20  C   UNL     1       0.937   8.760  22.312  0.00  0.00    +0.000 A 
ATOM     21  C   UNL     1       0.130   9.522  23.160  0.00  0.00    +0.000 A 
ATOM     22  C   UNL     1      -0.703  10.503  22.631  0.00  0.00    +0.000 A 
ATOM     23  C   UNL     1      -0.730  10.722  21.254  0.00  0.00    +0.000 A 
ATOM     24  C   UNL     1       0.081   9.962  20.403  0.00  0.00    +0.000 A 
ATOM     25 CL   UNL     1      -0.021  10.280  18.708  0.00  0.00    +0.000 Cl
ENDBRANCH  18  19
ENDBRANCH  16  18
ENDBRANCH   4  16
TORSDOF 6
ENDMDL
