MODEL 1
REMARK VINA RESULT:      -7.3      0.000      0.000
REMARK  Name = 
REMARK  12 active torsions:
REMARK  status: ('A' for Active; 'I' for Inactive)
REMARK    1  A    between atoms: C_1  and  S_2
REMARK    2  A    between atoms: S_2  and  C_4
REMARK    3  A    between atoms: C_5  and  C_6
REMARK    4  A    between atoms: C_9  and  C_10
REMARK    5  A    between atoms: C_13  and  C_14
REMARK    6  A    between atoms: C_14  and  C_16
REMARK    7  A    between atoms: C_16  and  C_17
REMARK    8  A    between atoms: C_17  and  C_18
REMARK    9  A    between atoms: C_18  and  C_19
REMARK   10  A    between atoms: C_19  and  C_20
REMARK   11  A    between atoms: C_20  and  C_21
REMARK   12  A    between atoms: C_21  and  C_22
REMARK                            x       y       z     vdW  Elec       q    Type
REMARK                         _______ _______ _______ _____ _____    ______ ____
ROOT
ATOM      1  C   UNL     1       1.110   8.321  20.702  0.00  0.00    +0.000 A 
ATOM      2  C   UNL     1       2.002   8.204  19.661  0.00  0.00    +0.000 A 
ATOM      3  N   UNL     1       2.437   6.904  19.547  0.00  0.00    +0.000 NA
ATOM      4  C   UNL     1       1.793   6.272  20.512  0.00  0.00    +0.000 A 
ATOM      5  O   UNL     1       0.986   7.079  21.271  0.00  0.00    +0.000 OA
ENDROOT
BRANCH   1   9
ATOM      6  C   UNL     1      -1.167  11.392  22.475  0.00  0.00    +0.000 A 
ATOM      7  C   UNL     1      -0.733  11.540  21.155  0.00  0.00    +0.000 A 
ATOM      8  C   UNL     1      -0.005  10.530  20.532  0.00  0.00    +0.000 A 
ATOM      9  C   UNL     1       0.301   9.389  21.255  0.00  0.00    +0.000 A 
ATOM     10  N   UNL     1      -0.090   9.216  22.539  0.00  0.00    +0.000 NA
ATOM     11  C   UNL     1      -0.803  10.215  23.118  0.00  0.00    +0.000 A 
BRANCH   6  13
ATOM     12  C   UNL     1      -3.238  12.402  23.394  0.00  0.00    +0.000 C 
ATOM     13  C   UNL     1      -1.910  12.436  23.191  0.00  0.00    +0.000 C 
BRANCH  12  15
ATOM     14  C   UNL     1      -2.595  14.883  24.246  0.00  0.00    +0.000 C 
ATOM     15  S   UNL     1      -4.024  13.772  24.237  0.00  0.00    +0.000 S 
ATOM     16  O   UNL     1      -5.085  14.352  23.239  0.00  0.00    +0.000 OA
ENDBRANCH  12  15
ENDBRANCH   6  13
ENDBRANCH   1   9
BRANCH   4  17
ATOM     17  C   UNL     1       1.835   4.846  20.793  0.00  0.00    +0.000 C 
ATOM     18  O   UNL     1       2.608   4.336  21.603  0.00  0.00    +0.000 OA
BRANCH  17  19
ATOM     19  C   UNL     1       0.861   3.992  19.991  0.00  0.00    +0.000 C 
BRANCH  19  20
ATOM     20  C   UNL     1       1.306   2.529  19.927  0.00  0.00    +0.000 C 
BRANCH  20  21
ATOM     21  C   UNL     1       1.856   2.167  18.546  0.00  0.00    +0.000 C 
BRANCH  21  22
ATOM     22  C   UNL     1       3.387   2.096  18.544  0.00  0.00    +0.000 C 
BRANCH  22  23
ATOM     23  C   UNL     1       3.968   2.896  17.374  0.00  0.00    +0.000 C 
BRANCH  23  24
ATOM     24  C   UNL     1       3.709   4.400  17.507  0.00  0.00    +0.000 C 
BRANCH  24  25
ATOM     25  C   UNL     1       4.994   5.174  17.698  0.00  0.00    +0.000 A 
ATOM     26  C   UNL     1       5.201   6.376  17.005  0.00  0.00    +0.000 A 
ATOM     27  C   UNL     1       6.398   7.079  17.144  0.00  0.00    +0.000 A 
ATOM     28  C   UNL     1       7.405   6.590  17.976  0.00  0.00    +0.000 A 
ATOM     29  C   UNL     1       7.206   5.402  18.676  0.00  0.00    +0.000 A 
ATOM     30  C   UNL     1       6.007   4.696  18.538  0.00  0.00    +0.000 A 
ENDBRANCH  24  25
ENDBRANCH  23  24
ENDBRANCH  22  23
ENDBRANCH  21  22
ENDBRANCH  20  21
ENDBRANCH  19  20
ENDBRANCH  17  19
ENDBRANCH   4  17
TORSDOF 11
ENDMDL
MODEL 2
REMARK VINA RESULT:      -7.1      4.678      8.913
REMARK  Name = 
REMARK  12 active torsions:
REMARK  status: ('A' for Active; 'I' for Inactive)
REMARK    1  A    between atoms: C_1  and  S_2
REMARK    2  A    between atoms: S_2  and  C_4
REMARK    3  A    between atoms: C_5  and  C_6
REMARK    4  A    between atoms: C_9  and  C_10
REMARK    5  A    between atoms: C_13  and  C_14
REMARK    6  A    between atoms: C_14  and  C_16
REMARK    7  A    between atoms: C_16  and  C_17
REMARK    8  A    between atoms: C_17  and  C_18
REMARK    9  A    between atoms: C_18  and  C_19
REMARK   10  A    between atoms: C_19  and  C_20
REMARK   11  A    between atoms: C_20  and  C_21
REMARK   12  A    between atoms: C_21  and  C_22
REMARK                            x       y       z     vdW  Elec       q    Type
REMARK                         _______ _______ _______ _____ _____    ______ ____
ROOT
ATOM      1  C   UNL     1       5.871   5.021  18.037  0.00  0.00    +0.000 A 
ATOM      2  C   UNL     1       5.209   4.296  17.073  0.00  0.00    +0.000 A 
ATOM      3  N   UNL     1       4.503   3.265  17.649  0.00  0.00    +0.000 NA
ATOM      4  C   UNL     1       4.750   3.400  18.939  0.00  0.00    +0.000 A 
ATOM      5  O   UNL     1       5.595   4.435  19.245  0.00  0.00    +0.000 OA
ENDROOT
BRANCH   1   9
ATOM      6  C   UNL     1       8.124   8.582  18.035  0.00  0.00    +0.000 A 
ATOM      7  C   UNL     1       8.485   7.547  18.903  0.00  0.00    +0.000 A 
ATOM      8  C   UNL     1       7.778   6.348  18.906  0.00  0.00    +0.000 A 
ATOM      9  C   UNL     1       6.698   6.211  18.049  0.00  0.00    +0.000 A 
ATOM     10  N   UNL     1       6.311   7.196  17.204  0.00  0.00    +0.000 NA
ATOM     11  C   UNL     1       7.022   8.351  17.220  0.00  0.00    +0.000 A 
BRANCH   6  13
ATOM     12  C   UNL     1       9.298  10.487  19.107  0.00  0.00    +0.000 C 
ATOM     13  C   UNL     1       8.814   9.878  18.011  0.00  0.00    +0.000 C 
BRANCH  12  15
ATOM     14  C   UNL     1      11.491  11.778  20.014  0.00  0.00    +0.000 C 
ATOM     15  S   UNL     1      10.070  12.093  18.938  0.00  0.00    +0.000 S 
ATOM     16  O   UNL     1      10.588  12.179  17.460  0.00  0.00    +0.000 OA
ENDBRANCH  12  15
ENDBRANCH   6  13
ENDBRANCH   1   9
BRANCH   4  17
ATOM     17  C   UNL     1       4.187   2.603  20.018  0.00  0.00    +0.000 C 
ATOM     18  O   UNL     1       4.828   1.763  20.648  0.00  0.00    +0.000 OA
BRANCH  17  19
ATOM     19  C   UNL     1       2.713   2.853  20.317  0.00  0.00    +0.000 C 
BRANCH  19  20
ATOM     20  C   UNL     1       2.455   4.304  20.731  0.00  0.00    +0.000 C 
BRANCH  20  21
ATOM     21  C   UNL     1       1.953   5.144  19.555  0.00  0.00    +0.000 C 
BRANCH  21  22
ATOM     22  C   UNL     1       2.180   6.642  19.788  0.00  0.00    +0.000 C 
BRANCH  22  23
ATOM     23  C   UNL     1       1.254   7.167  20.889  0.00  0.00    +0.000 C 
BRANCH  23  24
ATOM     24  C   UNL     1       1.831   8.395  21.602  0.00  0.00    +0.000 C 
BRANCH  24  25
ATOM     25  C   UNL     1       0.776   9.454  21.836  0.00  0.00    +0.000 A 
ATOM     26  C   UNL     1       0.638  10.522  20.937  0.00  0.00    +0.000 A 
ATOM     27  C   UNL     1      -0.305  11.524  21.163  0.00  0.00    +0.000 A 
ATOM     28  C   UNL     1      -1.123  11.474  22.292  0.00  0.00    +0.000 A 
ATOM     29  C   UNL     1      -1.001  10.413  23.187  0.00  0.00    +0.000 A 
ATOM     30  C   UNL     1      -0.056   9.407  22.962  0.00  0.00    +0.000 A 
ENDBRANCH  24  25
ENDBRANCH  23  24
ENDBRANCH  22  23
ENDBRANCH  21  22
ENDBRANCH  20  21
ENDBRANCH  19  20
ENDBRANCH  17  19
ENDBRANCH   4  17
TORSDOF 11
ENDMDL
MODEL 3
REMARK VINA RESULT:      -7.0      4.829      8.439
REMARK  Name = 
REMARK  12 active torsions:
REMARK  status: ('A' for Active; 'I' for Inactive)
REMARK    1  A    between atoms: C_1  and  S_2
REMARK    2  A    between atoms: S_2  and  C_4
REMARK    3  A    between atoms: C_5  and  C_6
REMARK    4  A    between atoms: C_9  and  C_10
REMARK    5  A    between atoms: C_13  and  C_14
REMARK    6  A    between atoms: C_14  and  C_16
REMARK    7  A    between atoms: C_16  and  C_17
REMARK    8  A    between atoms: C_17  and  C_18
REMARK    9  A    between atoms: C_18  and  C_19
REMARK   10  A    between atoms: C_19  and  C_20
REMARK   11  A    between atoms: C_20  and  C_21
REMARK   12  A    between atoms: C_21  and  C_22
REMARK                            x       y       z     vdW  Elec       q    Type
REMARK                         _______ _______ _______ _____ _____    ______ ____
ROOT
ATOM      1  C   UNL     1       5.837   4.986  17.576  0.00  0.00    +0.000 A 
ATOM      2  C   UNL     1       5.400   4.252  16.497  0.00  0.00    +0.000 A 
ATOM      3  N   UNL     1       4.516   3.281  16.906  0.00  0.00    +0.000 NA
ATOM      4  C   UNL     1       4.437   3.458  18.212  0.00  0.00    +0.000 A 
ATOM      5  O   UNL     1       5.235   4.464  18.692  0.00  0.00    +0.000 OA
ENDROOT
BRANCH   1   9
ATOM      6  C   UNL     1       8.201   8.437  18.081  0.00  0.00    +0.000 A 
ATOM      7  C   UNL     1       8.457   7.314  18.872  0.00  0.00    +0.000 A 
ATOM      8  C   UNL     1       7.713   6.149  18.708  0.00  0.00    +0.000 A 
ATOM      9  C   UNL     1       6.700   6.135  17.763  0.00  0.00    +0.000 A 
ATOM     10  N   UNL     1       6.415   7.207  16.988  0.00  0.00    +0.000 NA
ATOM     11  C   UNL     1       7.160   8.327  17.167  0.00  0.00    +0.000 A 
BRANCH   6  13
ATOM     12  C   UNL     1       8.878  10.470  19.332  0.00  0.00    +0.000 C 
ATOM     13  C   UNL     1       8.933   9.701  18.232  0.00  0.00    +0.000 C 
BRANCH  12  15
ATOM     14  C   UNL     1      10.148  12.035  21.131  0.00  0.00    +0.000 C 
ATOM     15  S   UNL     1       9.781  12.016  19.358  0.00  0.00    +0.000 S 
ATOM     16  O   UNL     1      11.121  11.755  18.587  0.00  0.00    +0.000 OA
ENDBRANCH  12  15
ENDBRANCH   6  13
ENDBRANCH   1   9
BRANCH   4  17
ATOM     17  C   UNL     1       3.577   2.734  19.135  0.00  0.00    +0.000 C 
ATOM     18  O   UNL     1       3.115   1.617  18.900  0.00  0.00    +0.000 OA
BRANCH  17  19
ATOM     19  C   UNL     1       3.250   3.463  20.433  0.00  0.00    +0.000 C 
BRANCH  19  20
ATOM     20  C   UNL     1       2.493   4.768  20.176  0.00  0.00    +0.000 C 
BRANCH  20  21
ATOM     21  C   UNL     1       1.566   4.653  18.965  0.00  0.00    +0.000 C 
BRANCH  21  22
ATOM     22  C   UNL     1       1.911   5.684  17.884  0.00  0.00    +0.000 C 
BRANCH  22  23
ATOM     23  C   UNL     1       2.744   6.827  18.469  0.00  0.00    +0.000 C 
BRANCH  23  24
ATOM     24  C   UNL     1       2.184   8.206  18.105  0.00  0.00    +0.000 C 
BRANCH  24  25
ATOM     25  C   UNL     1       1.407   8.816  19.250  0.00  0.00    +0.000 A 
ATOM     26  C   UNL     1       1.495   8.262  20.535  0.00  0.00    +0.000 A 
ATOM     27  C   UNL     1       0.753   8.793  21.591  0.00  0.00    +0.000 A 
ATOM     28  C   UNL     1      -0.088   9.885  21.375  0.00  0.00    +0.000 A 
ATOM     29  C   UNL     1      -0.176  10.449  20.105  0.00  0.00    +0.000 A 
ATOM     30  C   UNL     1       0.566   9.918  19.046  0.00  0.00    +0.000 A 
ENDBRANCH  24  25
ENDBRANCH  23  24
ENDBRANCH  22  23
ENDBRANCH  21  22
ENDBRANCH  20  21
ENDBRANCH  19  20
ENDBRANCH  17  19
ENDBRANCH   4  17
TORSDOF 11
ENDMDL
MODEL 4
REMARK VINA RESULT:      -7.0      1.231      1.650
REMARK  Name = 
REMARK  12 active torsions:
REMARK  status: ('A' for Active; 'I' for Inactive)
REMARK    1  A    between atoms: C_1  and  S_2
REMARK    2  A    between atoms: S_2  and  C_4
REMARK    3  A    between atoms: C_5  and  C_6
REMARK    4  A    between atoms: C_9  and  C_10
REMARK    5  A    between atoms: C_13  and  C_14
REMARK    6  A    between atoms: C_14  and  C_16
REMARK    7  A    between atoms: C_16  and  C_17
REMARK    8  A    between atoms: C_17  and  C_18
REMARK    9  A    between atoms: C_18  and  C_19
REMARK   10  A    between atoms: C_19  and  C_20
REMARK   11  A    between atoms: C_20  and  C_21
REMARK   12  A    between atoms: C_21  and  C_22
REMARK                            x       y       z     vdW  Elec       q    Type
REMARK                         _______ _______ _______ _____ _____    ______ ____
ROOT
ATOM      1  C   UNL     1       1.684   7.697  20.274  0.00  0.00    +0.000 A 
ATOM      2  C   UNL     1       2.624   7.504  19.287  0.00  0.00    +0.000 A 
ATOM      3  N   UNL     1       3.045   6.195  19.277  0.00  0.00    +0.000 NA
ATOM      4  C   UNL     1       2.347   5.633  20.247  0.00  0.00    +0.000 A 
ATOM      5  O   UNL     1       1.516   6.495  20.914  0.00  0.00    +0.000 OA
ENDROOT
BRANCH   1   9
ATOM      6  C   UNL     1      -0.595  10.935  21.715  0.00  0.00    +0.000 A 
ATOM      7  C   UNL     1      -0.409  10.792  20.338  0.00  0.00    +0.000 A 
ATOM      8  C   UNL     1       0.314   9.716  19.830  0.00  0.00    +0.000 A 
ATOM      9  C   UNL     1       0.864   8.806  20.717  0.00  0.00    +0.000 A 
ATOM     10  N   UNL     1       0.716   8.920  22.058  0.00  0.00    +0.000 NA
ATOM     11  C   UNL     1       0.003   9.976  22.524  0.00  0.00    +0.000 A 
BRANCH   6  13
ATOM     12  C   UNL     1      -2.400  11.930  23.096  0.00  0.00    +0.000 C 
ATOM     13  C   UNL     1      -1.320  12.066  22.307  0.00  0.00    +0.000 C 
BRANCH  12  15
ATOM     14  C   UNL     1      -4.379  12.567  24.821  0.00  0.00    +0.000 C 
ATOM     15  S   UNL     1      -3.220  13.399  23.706  0.00  0.00    +0.000 S 
ATOM     16  O   UNL     1      -2.165  14.161  24.582  0.00  0.00    +0.000 OA
ENDBRANCH  12  15
ENDBRANCH   6  13
ENDBRANCH   1   9
BRANCH   4  17
ATOM     17  C   UNL     1       2.356   4.227  20.621  0.00  0.00    +0.000 C 
ATOM     18  O   UNL     1       1.539   3.724  21.393  0.00  0.00    +0.000 OA
BRANCH  17  19
ATOM     19  C   UNL     1       3.475   3.394  20.009  0.00  0.00    +0.000 C 
BRANCH  19  20
ATOM     20  C   UNL     1       2.938   2.139  19.317  0.00  0.00    +0.000 C 
BRANCH  20  21
ATOM     21  C   UNL     1       2.068   2.491  18.109  0.00  0.00    +0.000 C 
BRANCH  21  22
ATOM     22  C   UNL     1       2.737   3.540  17.212  0.00  0.00    +0.000 C 
BRANCH  22  23
ATOM     23  C   UNL     1       4.230   3.241  17.047  0.00  0.00    +0.000 C 
BRANCH  23  24
ATOM     24  C   UNL     1       4.924   4.231  16.106  0.00  0.00    +0.000 C 
BRANCH  24  25
ATOM     25  C   UNL     1       5.912   5.106  16.843  0.00  0.00    +0.000 A 
ATOM     26  C   UNL     1       6.832   4.534  17.734  0.00  0.00    +0.000 A 
ATOM     27  C   UNL     1       7.724   5.335  18.448  0.00  0.00    +0.000 A 
ATOM     28  C   UNL     1       7.706   6.720  18.283  0.00  0.00    +0.000 A 
ATOM     29  C   UNL     1       6.802   7.299  17.395  0.00  0.00    +0.000 A 
ATOM     30  C   UNL     1       5.908   6.497  16.678  0.00  0.00    +0.000 A 
ENDBRANCH  24  25
ENDBRANCH  23  24
ENDBRANCH  22  23
ENDBRANCH  21  22
ENDBRANCH  20  21
ENDBRANCH  19  20
ENDBRANCH  17  19
ENDBRANCH   4  17
TORSDOF 11
ENDMDL
MODEL 5
REMARK VINA RESULT:      -6.9      3.919      5.788
REMARK  Name = 
REMARK  12 active torsions:
REMARK  status: ('A' for Active; 'I' for Inactive)
REMARK    1  A    between atoms: C_1  and  S_2
REMARK    2  A    between atoms: S_2  and  C_4
REMARK    3  A    between atoms: C_5  and  C_6
REMARK    4  A    between atoms: C_9  and  C_10
REMARK    5  A    between atoms: C_13  and  C_14
REMARK    6  A    between atoms: C_14  and  C_16
REMARK    7  A    between atoms: C_16  and  C_17
REMARK    8  A    between atoms: C_17  and  C_18
REMARK    9  A    between atoms: C_18  and  C_19
REMARK   10  A    between atoms: C_19  and  C_20
REMARK   11  A    between atoms: C_20  and  C_21
REMARK   12  A    between atoms: C_21  and  C_22
REMARK                            x       y       z     vdW  Elec       q    Type
REMARK                         _______ _______ _______ _____ _____    ______ ____
ROOT
ATOM      1  C   UNL     1       2.379   6.470  19.900  0.00  0.00    +0.000 A 
ATOM      2  C   UNL     1       2.119   5.282  20.545  0.00  0.00    +0.000 A 
ATOM      3  N   UNL     1       3.043   4.330  20.185  0.00  0.00    +0.000 NA
ATOM      4  C   UNL     1       3.837   4.966  19.343  0.00  0.00    +0.000 A 
ATOM      5  O   UNL     1       3.477   6.267  19.104  0.00  0.00    +0.000 OA
ENDROOT
BRANCH   1   9
ATOM      6  C   UNL     1       0.669  10.320  19.773  0.00  0.00    +0.000 A 
ATOM      7  C   UNL     1       0.613   9.588  20.962  0.00  0.00    +0.000 A 
ATOM      8  C   UNL     1       1.194   8.326  21.044  0.00  0.00    +0.000 A 
ATOM      9  C   UNL     1       1.808   7.802  19.917  0.00  0.00    +0.000 A 
ATOM     10  N   UNL     1       1.871   8.476  18.745  0.00  0.00    +0.000 NA
ATOM     11  C   UNL     1       1.300   9.706  18.697  0.00  0.00    +0.000 A 
BRANCH   6  13
ATOM     12  C   UNL     1       0.681  12.712  19.113  0.00  0.00    +0.000 C 
ATOM     13  C   UNL     1       0.047  11.641  19.621  0.00  0.00    +0.000 C 
BRANCH  12  15
ATOM     14  C   UNL     1      -0.623  14.381  20.790  0.00  0.00    +0.000 C 
ATOM     15  S   UNL     1      -0.184  14.277  19.036  0.00  0.00    +0.000 S 
ATOM     16  O   UNL     1       0.905  15.367  18.742  0.00  0.00    +0.000 OA
ENDBRANCH  12  15
ENDBRANCH   6  13
ENDBRANCH   1   9
BRANCH   4  17
ATOM     17  C   UNL     1       5.036   4.436  18.711  0.00  0.00    +0.000 C 
ATOM     18  O   UNL     1       5.087   3.331  18.171  0.00  0.00    +0.000 OA
BRANCH  17  19
ATOM     19  C   UNL     1       6.264   5.336  18.779  0.00  0.00    +0.000 C 
BRANCH  19  20
ATOM     20  C   UNL     1       6.571   5.983  17.426  0.00  0.00    +0.000 C 
BRANCH  20  21
ATOM     21  C   UNL     1       6.661   7.506  17.538  0.00  0.00    +0.000 C 
BRANCH  21  22
ATOM     22  C   UNL     1       8.115   7.986  17.612  0.00  0.00    +0.000 C 
BRANCH  22  23
ATOM     23  C   UNL     1       8.180   9.463  18.011  0.00  0.00    +0.000 C 
BRANCH  23  24
ATOM     24  C   UNL     1       9.080   9.701  19.228  0.00  0.00    +0.000 C 
BRANCH  24  25
ATOM     25  C   UNL     1       9.952  10.923  19.050  0.00  0.00    +0.000 A 
ATOM     26  C   UNL     1      10.381  11.652  20.169  0.00  0.00    +0.000 A 
ATOM     27  C   UNL     1      11.155  12.803  20.014  0.00  0.00    +0.000 A 
ATOM     28  C   UNL     1      11.508  13.242  18.739  0.00  0.00    +0.000 A 
ATOM     29  C   UNL     1      11.095  12.522  17.620  0.00  0.00    +0.000 A 
ATOM     30  C   UNL     1      10.320  11.368  17.773  0.00  0.00    +0.000 A 
ENDBRANCH  24  25
ENDBRANCH  23  24
ENDBRANCH  22  23
ENDBRANCH  21  22
ENDBRANCH  20  21
ENDBRANCH  19  20
ENDBRANCH  17  19
ENDBRANCH   4  17
TORSDOF 11
ENDMDL
MODEL 6
REMARK VINA RESULT:      -6.9      1.755      3.648
REMARK  Name = 
REMARK  12 active torsions:
REMARK  status: ('A' for Active; 'I' for Inactive)
REMARK    1  A    between atoms: C_1  and  S_2
REMARK    2  A    between atoms: S_2  and  C_4
REMARK    3  A    between atoms: C_5  and  C_6
REMARK    4  A    between atoms: C_9  and  C_10
REMARK    5  A    between atoms: C_13  and  C_14
REMARK    6  A    between atoms: C_14  and  C_16
REMARK    7  A    between atoms: C_16  and  C_17
REMARK    8  A    between atoms: C_17  and  C_18
REMARK    9  A    between atoms: C_18  and  C_19
REMARK   10  A    between atoms: C_19  and  C_20
REMARK   11  A    between atoms: C_20  and  C_21
REMARK   12  A    between atoms: C_21  and  C_22
REMARK                            x       y       z     vdW  Elec       q    Type
REMARK                         _______ _______ _______ _____ _____    ______ ____
ROOT
ATOM      1  C   UNL     1       0.989   9.931  18.981  0.00  0.00    +0.000 A 
ATOM      2  C   UNL     1       1.672   9.992  17.787  0.00  0.00    +0.000 A 
ATOM      3  N   UNL     1       2.459   8.876  17.629  0.00  0.00    +0.000 NA
ATOM      4  C   UNL     1       2.226   8.170  18.721  0.00  0.00    +0.000 A 
ATOM      5  O   UNL     1       1.358   8.765  19.600  0.00  0.00    +0.000 OA
ENDROOT
BRANCH   1   9
ATOM      6  C   UNL     1      -1.766  12.339  21.071  0.00  0.00    +0.000 A 
ATOM      7  C   UNL     1      -1.691  12.440  19.679  0.00  0.00    +0.000 A 
ATOM      8  C   UNL     1      -0.812  11.637  18.958  0.00  0.00    +0.000 A 
ATOM      9  C   UNL     1       0.002  10.754  19.650  0.00  0.00    +0.000 A 
ATOM     10  N   UNL     1      -0.034  10.639  20.998  0.00  0.00    +0.000 NA
ATOM     11  C   UNL     1      -0.904  11.431  21.673  0.00  0.00    +0.000 A 
BRANCH   6  13
ATOM     12  C   UNL     1      -3.727  12.719  22.543  0.00  0.00    +0.000 C 
ATOM     13  C   UNL     1      -2.651  13.182  21.884  0.00  0.00    +0.000 C 
BRANCH  12  15
ATOM     14  C   UNL     1      -5.805  12.645  24.267  0.00  0.00    +0.000 C 
ATOM     15  S   UNL     1      -4.751  13.871  23.453  0.00  0.00    +0.000 S 
ATOM     16  O   UNL     1      -3.825  14.517  24.542  0.00  0.00    +0.000 OA
ENDBRANCH  12  15
ENDBRANCH   6  13
ENDBRANCH   1   9
BRANCH   4  17
ATOM     17  C   UNL     1       2.756   6.852  19.031  0.00  0.00    +0.000 C 
ATOM     18  O   UNL     1       2.488   6.238  20.064  0.00  0.00    +0.000 OA
BRANCH  17  19
ATOM     19  C   UNL     1       3.708   6.268  17.994  0.00  0.00    +0.000 C 
BRANCH  19  20
ATOM     20  C   UNL     1       4.908   5.578  18.648  0.00  0.00    +0.000 C 
BRANCH  20  21
ATOM     21  C   UNL     1       5.378   4.373  17.831  0.00  0.00    +0.000 C 
BRANCH  21  22
ATOM     22  C   UNL     1       4.552   4.196  16.551  0.00  0.00    +0.000 C 
BRANCH  22  23
ATOM     23  C   UNL     1       3.405   3.206  16.777  0.00  0.00    +0.000 C 
BRANCH  23  24
ATOM     24  C   UNL     1       3.677   2.251  17.943  0.00  0.00    +0.000 C 
BRANCH  24  25
ATOM     25  C   UNL     1       2.834   2.588  19.152  0.00  0.00    +0.000 A 
ATOM     26  C   UNL     1       3.368   2.458  20.442  0.00  0.00    +0.000 A 
ATOM     27  C   UNL     1       2.587   2.730  21.566  0.00  0.00    +0.000 A 
ATOM     28  C   UNL     1       1.260   3.133  21.415  0.00  0.00    +0.000 A 
ATOM     29  C   UNL     1       0.721   3.274  20.138  0.00  0.00    +0.000 A 
ATOM     30  C   UNL     1       1.503   3.002  19.011  0.00  0.00    +0.000 A 
ENDBRANCH  24  25
ENDBRANCH  23  24
ENDBRANCH  22  23
ENDBRANCH  21  22
ENDBRANCH  20  21
ENDBRANCH  19  20
ENDBRANCH  17  19
ENDBRANCH   4  17
TORSDOF 11
ENDMDL
MODEL 7
REMARK VINA RESULT:      -6.9      1.481      3.463
REMARK  Name = 
REMARK  12 active torsions:
REMARK  status: ('A' for Active; 'I' for Inactive)
REMARK    1  A    between atoms: C_1  and  S_2
REMARK    2  A    between atoms: S_2  and  C_4
REMARK    3  A    between atoms: C_5  and  C_6
REMARK    4  A    between atoms: C_9  and  C_10
REMARK    5  A    between atoms: C_13  and  C_14
REMARK    6  A    between atoms: C_14  and  C_16
REMARK    7  A    between atoms: C_16  and  C_17
REMARK    8  A    between atoms: C_17  and  C_18
REMARK    9  A    between atoms: C_18  and  C_19
REMARK   10  A    between atoms: C_19  and  C_20
REMARK   11  A    between atoms: C_20  and  C_21
REMARK   12  A    between atoms: C_21  and  C_22
REMARK                            x       y       z     vdW  Elec       q    Type
REMARK                         _______ _______ _______ _____ _____    ______ ____
ROOT
ATOM      1  C   UNL     1       0.881   9.832  19.342  0.00  0.00    +0.000 A 
ATOM      2  C   UNL     1       1.301  10.048  18.050  0.00  0.00    +0.000 A 
ATOM      3  N   UNL     1       2.125   9.026  17.638  0.00  0.00    +0.000 NA
ATOM      4  C   UNL     1       2.173   8.221  18.683  0.00  0.00    +0.000 A 
ATOM      5  O   UNL     1       1.458   8.662  19.766  0.00  0.00    +0.000 OA
ENDROOT
BRANCH   1   9
ATOM      6  C   UNL     1      -1.581  11.777  22.155  0.00  0.00    +0.000 A 
ATOM      7  C   UNL     1      -1.670  12.135  20.808  0.00  0.00    +0.000 A 
ATOM      8  C   UNL     1      -0.892  11.491  19.851  0.00  0.00    +0.000 A 
ATOM      9  C   UNL     1      -0.011  10.505  20.265  0.00  0.00    +0.000 A 
ATOM     10  N   UNL     1       0.112  10.140  21.563  0.00  0.00    +0.000 NA
ATOM     11  C   UNL     1      -0.663  10.783  22.472  0.00  0.00    +0.000 A 
BRANCH   6  13
ATOM     12  C   UNL     1      -3.434  13.209  22.975  0.00  0.00    +0.000 C 
ATOM     13  C   UNL     1      -2.355  12.444  23.210  0.00  0.00    +0.000 C 
BRANCH  12  15
ATOM     14  C   UNL     1      -2.799  14.867  25.011  0.00  0.00    +0.000 C 
ATOM     15  S   UNL     1      -4.250  14.007  24.354  0.00  0.00    +0.000 S 
ATOM     16  O   UNL     1      -5.212  15.080  23.734  0.00  0.00    +0.000 OA
ENDBRANCH  12  15
ENDBRANCH   6  13
ENDBRANCH   1   9
BRANCH   4  17
ATOM     17  C   UNL     1       2.857   6.939  18.760  0.00  0.00    +0.000 C 
ATOM     18  O   UNL     1       2.965   6.289  19.800  0.00  0.00    +0.000 OA
BRANCH  17  19
ATOM     19  C   UNL     1       3.470   6.445  17.456  0.00  0.00    +0.000 C 
BRANCH  19  20
ATOM     20  C   UNL     1       4.999   6.460  17.505  0.00  0.00    +0.000 C 
BRANCH  20  21
ATOM     21  C   UNL     1       5.581   5.051  17.365  0.00  0.00    +0.000 C 
BRANCH  21  22
ATOM     22  C   UNL     1       4.784   4.203  16.366  0.00  0.00    +0.000 C 
BRANCH  22  23
ATOM     23  C   UNL     1       4.151   2.995  17.063  0.00  0.00    +0.000 C 
BRANCH  23  24
ATOM     24  C   UNL     1       4.500   2.930  18.553  0.00  0.00    +0.000 C 
BRANCH  24  25
ATOM     25  C   UNL     1       3.260   2.927  19.419  0.00  0.00    +0.000 A 
ATOM     26  C   UNL     1       2.004   3.184  18.852  0.00  0.00    +0.000 A 
ATOM     27  C   UNL     1       0.858   3.222  19.648  0.00  0.00    +0.000 A 
ATOM     28  C   UNL     1       0.954   3.004  21.022  0.00  0.00    +0.000 A 
ATOM     29  C   UNL     1       2.195   2.739  21.596  0.00  0.00    +0.000 A 
ATOM     30  C   UNL     1       3.344   2.701  20.799  0.00  0.00    +0.000 A 
ENDBRANCH  24  25
ENDBRANCH  23  24
ENDBRANCH  22  23
ENDBRANCH  21  22
ENDBRANCH  20  21
ENDBRANCH  19  20
ENDBRANCH  17  19
ENDBRANCH   4  17
TORSDOF 11
ENDMDL
MODEL 8
REMARK VINA RESULT:      -6.9      4.772     10.289
REMARK  Name = 
REMARK  12 active torsions:
REMARK  status: ('A' for Active; 'I' for Inactive)
REMARK    1  A    between atoms: C_1  and  S_2
REMARK    2  A    between atoms: S_2  and  C_4
REMARK    3  A    between atoms: C_5  and  C_6
REMARK    4  A    between atoms: C_9  and  C_10
REMARK    5  A    between atoms: C_13  and  C_14
REMARK    6  A    between atoms: C_14  and  C_16
REMARK    7  A    between atoms: C_16  and  C_17
REMARK    8  A    between atoms: C_17  and  C_18
REMARK    9  A    between atoms: C_18  and  C_19
REMARK   10  A    between atoms: C_19  and  C_20
REMARK   11  A    between atoms: C_20  and  C_21
REMARK   12  A    between atoms: C_21  and  C_22
REMARK                            x       y       z     vdW  Elec       q    Type
REMARK                         _______ _______ _______ _____ _____    ______ ____
ROOT
ATOM      1  C   UNL     1       0.940   8.700  20.744  0.00  0.00    +0.000 A 
ATOM      2  C   UNL     1       0.115   8.425  21.810  0.00  0.00    +0.000 A 
ATOM      3  N   UNL     1      -0.498   9.575  22.250  0.00  0.00    +0.000 NA
ATOM      4  C   UNL     1      -0.036  10.507  21.437  0.00  0.00    +0.000 A 
ATOM      5  O   UNL     1       0.863  10.049  20.510  0.00  0.00    +0.000 OA
ENDROOT
BRANCH   1   9
ATOM      6  C   UNL     1       3.448   6.583  18.100  0.00  0.00    +0.000 A 
ATOM      7  C   UNL     1       3.078   5.990  19.310  0.00  0.00    +0.000 A 
ATOM      8  C   UNL     1       2.227   6.652  20.191  0.00  0.00    +0.000 A 
ATOM      9  C   UNL     1       1.775   7.918  19.854  0.00  0.00    +0.000 A 
ATOM     10  N   UNL     1       2.123   8.529  18.697  0.00  0.00    +0.000 NA
ATOM     11  C   UNL     1       2.950   7.857  17.857  0.00  0.00    +0.000 A 
BRANCH   6  13
ATOM     12  C   UNL     1       5.623   5.578  17.455  0.00  0.00    +0.000 C 
ATOM     13  C   UNL     1       4.366   5.945  17.149  0.00  0.00    +0.000 C 
BRANCH  12  15
ATOM     14  C   UNL     1       5.360   4.663  14.927  0.00  0.00    +0.000 C 
ATOM     15  S   UNL     1       6.652   4.858  16.179  0.00  0.00    +0.000 S 
ATOM     16  O   UNL     1       7.622   5.995  15.704  0.00  0.00    +0.000 OA
ENDBRANCH  12  15
ENDBRANCH   6  13
ENDBRANCH   1   9
BRANCH   4  17
ATOM     17  C   UNL     1      -0.421  11.909  21.417  0.00  0.00    +0.000 C 
ATOM     18  O   UNL     1       0.011  12.744  22.212  0.00  0.00    +0.000 OA
BRANCH  17  19
ATOM     19  C   UNL     1      -1.436  12.295  20.347  0.00  0.00    +0.000 C 
BRANCH  19  20
ATOM     20  C   UNL     1      -0.755  12.825  19.083  0.00  0.00    +0.000 C 
BRANCH  20  21
ATOM     21  C   UNL     1      -1.383  12.238  17.817  0.00  0.00    +0.000 C 
BRANCH  21  22
ATOM     22  C   UNL     1      -1.428  10.707  17.862  0.00  0.00    +0.000 C 
BRANCH  22  23
ATOM     23  C   UNL     1      -2.573  10.171  16.996  0.00  0.00    +0.000 C 
BRANCH  23  24
ATOM     24  C   UNL     1      -3.759   9.681  17.833  0.00  0.00    +0.000 C 
BRANCH  24  25
ATOM     25  C   UNL     1      -4.888  10.687  17.847  0.00  0.00    +0.000 A 
ATOM     26  C   UNL     1      -5.958  10.533  18.741  0.00  0.00    +0.000 A 
ATOM     27  C   UNL     1      -7.023  11.434  18.737  0.00  0.00    +0.000 A 
ATOM     28  C   UNL     1      -7.034  12.500  17.838  0.00  0.00    +0.000 A 
ATOM     29  C   UNL     1      -5.973  12.668  16.951  0.00  0.00    +0.000 A 
ATOM     30  C   UNL     1      -4.904  11.766  16.954  0.00  0.00    +0.000 A 
ENDBRANCH  24  25
ENDBRANCH  23  24
ENDBRANCH  22  23
ENDBRANCH  21  22
ENDBRANCH  20  21
ENDBRANCH  19  20
ENDBRANCH  17  19
ENDBRANCH   4  17
TORSDOF 11
ENDMDL
MODEL 9
REMARK VINA RESULT:      -6.9      4.844      8.552
REMARK  Name = 
REMARK  12 active torsions:
REMARK  status: ('A' for Active; 'I' for Inactive)
REMARK    1  A    between atoms: C_1  and  S_2
REMARK    2  A    between atoms: S_2  and  C_4
REMARK    3  A    between atoms: C_5  and  C_6
REMARK    4  A    between atoms: C_9  and  C_10
REMARK    5  A    between atoms: C_13  and  C_14
REMARK    6  A    between atoms: C_14  and  C_16
REMARK    7  A    between atoms: C_16  and  C_17
REMARK    8  A    between atoms: C_17  and  C_18
REMARK    9  A    between atoms: C_18  and  C_19
REMARK   10  A    between atoms: C_19  and  C_20
REMARK   11  A    between atoms: C_20  and  C_21
REMARK   12  A    between atoms: C_21  and  C_22
REMARK                            x       y       z     vdW  Elec       q    Type
REMARK                         _______ _______ _______ _____ _____    ______ ____
ROOT
ATOM      1  C   UNL     1       5.927   5.189  17.444  0.00  0.00    +0.000 A 
ATOM      2  C   UNL     1       5.445   4.562  16.317  0.00  0.00    +0.000 A 
ATOM      3  N   UNL     1       4.616   3.522  16.667  0.00  0.00    +0.000 NA
ATOM      4  C   UNL     1       4.612   3.553  17.987  0.00  0.00    +0.000 A 
ATOM      5  O   UNL     1       5.409   4.528  18.528  0.00  0.00    +0.000 OA
ENDROOT
BRANCH   1   9
ATOM      6  C   UNL     1       8.224   8.647  18.168  0.00  0.00    +0.000 A 
ATOM      7  C   UNL     1       8.469   7.496  18.921  0.00  0.00    +0.000 A 
ATOM      8  C   UNL     1       7.747   6.329  18.685  0.00  0.00    +0.000 A 
ATOM      9  C   UNL     1       6.767   6.341  17.707  0.00  0.00    +0.000 A 
ATOM     10  N   UNL     1       6.492   7.440  16.966  0.00  0.00    +0.000 NA
ATOM     11  C   UNL     1       7.216   8.561  17.216  0.00  0.00    +0.000 A 
BRANCH   6  13
ATOM     12  C   UNL     1       9.466  10.270  19.576  0.00  0.00    +0.000 C 
ATOM     13  C   UNL     1       8.932   9.913  18.395  0.00  0.00    +0.000 C 
BRANCH  12  15
ATOM     14  C   UNL     1       9.062  12.806  18.737  0.00  0.00    +0.000 C 
ATOM     15  S   UNL     1      10.256  11.869  19.724  0.00  0.00    +0.000 S 
ATOM     16  O   UNL     1      10.093  12.302  21.223  0.00  0.00    +0.000 OA
ENDBRANCH  12  15
ENDBRANCH   6  13
ENDBRANCH   1   9
BRANCH   4  17
ATOM     17  C   UNL     1       3.832   2.704  18.873  0.00  0.00    +0.000 C 
ATOM     18  O   UNL     1       3.683   1.494  18.698  0.00  0.00    +0.000 OA
BRANCH  17  19
ATOM     19  C   UNL     1       3.169   3.416  20.046  0.00  0.00    +0.000 C 
BRANCH  19  20
ATOM     20  C   UNL     1       1.933   4.205  19.607  0.00  0.00    +0.000 C 
BRANCH  20  21
ATOM     21  C   UNL     1       2.157   5.714  19.729  0.00  0.00    +0.000 C 
BRANCH  21  22
ATOM     22  C   UNL     1       2.470   6.355  18.372  0.00  0.00    +0.000 C 
BRANCH  22  23
ATOM     23  C   UNL     1       2.146   7.851  18.389  0.00  0.00    +0.000 C 
BRANCH  23  24
ATOM     24  C   UNL     1       1.754   8.349  19.785  0.00  0.00    +0.000 C 
BRANCH  24  25
ATOM     25  C   UNL     1       0.939   9.621  19.718  0.00  0.00    +0.000 A 
ATOM     26  C   UNL     1       1.302  10.644  18.829  0.00  0.00    +0.000 A 
ATOM     27  C   UNL     1       0.580  11.837  18.786  0.00  0.00    +0.000 A 
ATOM     28  C   UNL     1      -0.512  12.025  19.632  0.00  0.00    +0.000 A 
ATOM     29  C   UNL     1      -0.887  11.013  20.513  0.00  0.00    +0.000 A 
ATOM     30  C   UNL     1      -0.165   9.816  20.557  0.00  0.00    +0.000 A 
ENDBRANCH  24  25
ENDBRANCH  23  24
ENDBRANCH  22  23
ENDBRANCH  21  22
ENDBRANCH  20  21
ENDBRANCH  19  20
ENDBRANCH  17  19
ENDBRANCH   4  17
TORSDOF 11
ENDMDL
