MODEL 1
REMARK VINA RESULT:      -7.0      0.000      0.000
REMARK  Name = 
REMARK  3 active torsions:
REMARK  status: ('A' for Active; 'I' for Inactive)
REMARK    1  A    between atoms: C_1  and  O_2
REMARK    2  A    between atoms: O_2  and  C_3
REMARK    3  A    between atoms: C_12  and  C_13
REMARK                            x       y       z     vdW  Elec       q    Type
REMARK                         _______ _______ _______ _____ _____    ______ ____
ROOT
ATOM      1  C   UNL     1      -0.000  10.947  21.013  0.00  0.00    +0.000 A 
ATOM      2  C   UNL     1       0.499  11.451  19.813  0.00  0.00    +0.000 A 
ATOM      3  C   UNL     1       1.195  10.613  18.934  0.00  0.00    +0.000 A 
ATOM      4  C   UNL     1       1.406   9.270  19.262  0.00  0.00    +0.000 A 
ATOM      5  C   UNL     1       0.944   8.765  20.490  0.00  0.00    +0.000 A 
ATOM      6  C   UNL     1       0.236   9.613  21.354  0.00  0.00    +0.000 A 
ATOM      7  C   UNL     1       1.155   7.323  20.866  0.00  0.00    +0.000 C 
ATOM      8  C   UNL     1       2.417   6.776  20.210  0.00  0.00    +0.000 C 
ATOM      9  C   UNL     1       2.335   6.973  18.723  0.00  0.00    +0.000 C 
ATOM     10  C   UNL     1       2.413   6.021  17.775  0.00  0.00    +0.000 C 
ATOM     11  C   UNL     1       2.094   8.381  18.279  0.00  0.00    +0.000 C 
ATOM     12  O   UNL     1       2.418   8.784  17.170  0.00  0.00    +0.000 OA
ENDROOT
BRANCH  10  13
ATOM     13  C   UNL     1       2.546   4.599  18.093  0.00  0.00    +0.000 A 
ATOM     14  C   UNL     1       3.811   4.016  18.153  0.00  0.00    +0.000 A 
ATOM     15  C   UNL     1       3.892   2.650  18.373  0.00  0.00    +0.000 A 
ATOM     16  N   UNL     1       2.815   1.852  18.534  0.00  0.00    +0.000 NA
ATOM     17  C   UNL     1       1.603   2.447  18.481  0.00  0.00    +0.000 A 
ATOM     18  C   UNL     1       1.417   3.803  18.265  0.00  0.00    +0.000 A 
ENDBRANCH  10  13
BRANCH   1  20
ATOM     19  C   UNL     1      -1.160  10.927  23.071  0.00  0.00    +0.000 C 
ATOM     20  O   UNL     1      -0.701  11.664  21.943  0.00  0.00    +0.000 OA
ENDBRANCH   1  20
TORSDOF 2
ENDMDL
MODEL 2
REMARK VINA RESULT:      -7.0      0.723      1.291
REMARK  Name = 
REMARK  3 active torsions:
REMARK  status: ('A' for Active; 'I' for Inactive)
REMARK    1  A    between atoms: C_1  and  O_2
REMARK    2  A    between atoms: O_2  and  C_3
REMARK    3  A    between atoms: C_12  and  C_13
REMARK                            x       y       z     vdW  Elec       q    Type
REMARK                         _______ _______ _______ _____ _____    ______ ____
ROOT
ATOM      1  C   UNL     1      -0.348  10.590  21.804  0.00  0.00    +0.000 A 
ATOM      2  C   UNL     1       0.028  11.322  20.678  0.00  0.00    +0.000 A 
ATOM      3  C   UNL     1       0.751  10.708  19.650  0.00  0.00    +0.000 A 
ATOM      4  C   UNL     1       1.113   9.361  19.752  0.00  0.00    +0.000 A 
ATOM      5  C   UNL     1       0.775   8.628  20.903  0.00  0.00    +0.000 A 
ATOM      6  C   UNL     1       0.038   9.253  21.919  0.00  0.00    +0.000 A 
ATOM      7  C   UNL     1       1.150   7.176  21.037  0.00  0.00    +0.000 C 
ATOM      8  C   UNL     1       2.419   6.874  20.250  0.00  0.00    +0.000 C 
ATOM      9  C   UNL     1       2.232   7.286  18.818  0.00  0.00    +0.000 C 
ATOM     10  C   UNL     1       2.349   6.504  17.729  0.00  0.00    +0.000 C 
ATOM     11  C   UNL     1       1.827   8.712  18.612  0.00  0.00    +0.000 C 
ATOM     12  O   UNL     1       2.045   9.312  17.569  0.00  0.00    +0.000 OA
ENDROOT
BRANCH  10  13
ATOM     13  C   UNL     1       2.640   5.073  17.812  0.00  0.00    +0.000 A 
ATOM     14  C   UNL     1       1.597   4.159  17.959  0.00  0.00    +0.000 A 
ATOM     15  C   UNL     1       1.917   2.821  18.118  0.00  0.00    +0.000 A 
ATOM     16  N   UNL     1       3.183   2.351  18.140  0.00  0.00    +0.000 NA
ATOM     17  C   UNL     1       4.172   3.258  17.985  0.00  0.00    +0.000 A 
ATOM     18  C   UNL     1       3.955   4.616  17.820  0.00  0.00    +0.000 A 
ENDBRANCH  10  13
BRANCH   1  20
ATOM     19  C   UNL     1      -1.204  12.493  22.912  0.00  0.00    +0.000 C 
ATOM     20  O   UNL     1      -1.061  11.077  22.864  0.00  0.00    +0.000 OA
ENDBRANCH   1  20
TORSDOF 2
ENDMDL
MODEL 3
REMARK VINA RESULT:      -6.9      4.139      6.096
REMARK  Name = 
REMARK  3 active torsions:
REMARK  status: ('A' for Active; 'I' for Inactive)
REMARK    1  A    between atoms: C_1  and  O_2
REMARK    2  A    between atoms: O_2  and  C_3
REMARK    3  A    between atoms: C_12  and  C_13
REMARK                            x       y       z     vdW  Elec       q    Type
REMARK                         _______ _______ _______ _____ _____    ______ ____
ROOT
ATOM      1  C   UNL     1       1.773   4.105  20.324  0.00  0.00    +0.000 A 
ATOM      2  C   UNL     1       2.007   5.478  20.392  0.00  0.00    +0.000 A 
ATOM      3  C   UNL     1       2.847   6.095  19.460  0.00  0.00    +0.000 A 
ATOM      4  C   UNL     1       3.470   5.337  18.464  0.00  0.00    +0.000 A 
ATOM      5  C   UNL     1       3.274   3.945  18.415  0.00  0.00    +0.000 A 
ATOM      6  C   UNL     1       2.418   3.343  19.347  0.00  0.00    +0.000 A 
ATOM      7  C   UNL     1       3.931   3.106  17.351  0.00  0.00    +0.000 C 
ATOM      8  C   UNL     1       5.242   3.737  16.902  0.00  0.00    +0.000 C 
ATOM      9  C   UNL     1       4.990   5.145  16.444  0.00  0.00    +0.000 C 
ATOM     10  C   UNL     1       5.271   5.665  15.234  0.00  0.00    +0.000 C 
ATOM     11  C   UNL     1       4.310   6.028  17.441  0.00  0.00    +0.000 C 
ATOM     12  O   UNL     1       4.414   7.247  17.416  0.00  0.00    +0.000 OA
ENDROOT
BRANCH  10  13
ATOM     13  C   UNL     1       5.841   4.871  14.146  0.00  0.00    +0.000 A 
ATOM     14  C   UNL     1       7.161   5.082  13.749  0.00  0.00    +0.000 A 
ATOM     15  C   UNL     1       7.639   4.371  12.661  0.00  0.00    +0.000 A 
ATOM     16  N   UNL     1       6.899   3.484  11.962  0.00  0.00    +0.000 NA
ATOM     17  C   UNL     1       5.627   3.292  12.377  0.00  0.00    +0.000 A 
ATOM     18  C   UNL     1       5.057   3.954  13.451  0.00  0.00    +0.000 A 
ENDBRANCH  10  13
BRANCH   1  20
ATOM     19  C   UNL     1       1.599   2.333  21.877  0.00  0.00    +0.000 C 
ATOM     20  O   UNL     1       0.967   3.395  21.170  0.00  0.00    +0.000 OA
ENDBRANCH   1  20
TORSDOF 2
ENDMDL
MODEL 4
REMARK VINA RESULT:      -6.8      2.424      3.372
REMARK  Name = 
REMARK  3 active torsions:
REMARK  status: ('A' for Active; 'I' for Inactive)
REMARK    1  A    between atoms: C_1  and  O_2
REMARK    2  A    between atoms: O_2  and  C_3
REMARK    3  A    between atoms: C_12  and  C_13
REMARK                            x       y       z     vdW  Elec       q    Type
REMARK                         _______ _______ _______ _____ _____    ______ ____
ROOT
ATOM      1  C   UNL     1       0.147  10.136  20.468  0.00  0.00    +0.000 A 
ATOM      2  C   UNL     1      -0.031   9.117  21.404  0.00  0.00    +0.000 A 
ATOM      3  C   UNL     1       0.657   7.907  21.264  0.00  0.00    +0.000 A 
ATOM      4  C   UNL     1       1.516   7.707  20.178  0.00  0.00    +0.000 A 
ATOM      5  C   UNL     1       1.667   8.712  19.208  0.00  0.00    +0.000 A 
ATOM      6  C   UNL     1       0.982   9.925  19.369  0.00  0.00    +0.000 A 
ATOM      7  C   UNL     1       2.587   8.523  18.031  0.00  0.00    +0.000 C 
ATOM      8  C   UNL     1       2.697   7.049  17.667  0.00  0.00    +0.000 C 
ATOM      9  C   UNL     1       3.140   6.267  18.870  0.00  0.00    +0.000 C 
ATOM     10  C   UNL     1       4.230   5.482  18.968  0.00  0.00    +0.000 C 
ATOM     11  C   UNL     1       2.288   6.432  20.088  0.00  0.00    +0.000 C 
ATOM     12  O   UNL     1       2.237   5.589  20.972  0.00  0.00    +0.000 OA
ENDROOT
BRANCH  10  13
ATOM     13  C   UNL     1       5.191   5.324  17.877  0.00  0.00    +0.000 A 
ATOM     14  C   UNL     1       5.058   4.265  16.981  0.00  0.00    +0.000 A 
ATOM     15  C   UNL     1       6.034   4.099  16.013  0.00  0.00    +0.000 A 
ATOM     16  N   UNL     1       7.109   4.907  15.887  0.00  0.00    +0.000 NA
ATOM     17  C   UNL     1       7.206   5.932  16.763  0.00  0.00    +0.000 A 
ATOM     18  C   UNL     1       6.284   6.180  17.766  0.00  0.00    +0.000 A 
ENDBRANCH  10  13
BRANCH   1  20
ATOM     19  C   UNL     1      -0.577  11.953  21.793  0.00  0.00    +0.000 C 
ATOM     20  O   UNL     1      -0.461  11.360  20.504  0.00  0.00    +0.000 OA
ENDBRANCH   1  20
TORSDOF 2
ENDMDL
MODEL 5
REMARK VINA RESULT:      -6.8      2.473      3.425
REMARK  Name = 
REMARK  3 active torsions:
REMARK  status: ('A' for Active; 'I' for Inactive)
REMARK    1  A    between atoms: C_1  and  O_2
REMARK    2  A    between atoms: O_2  and  C_3
REMARK    3  A    between atoms: C_12  and  C_13
REMARK                            x       y       z     vdW  Elec       q    Type
REMARK                         _______ _______ _______ _____ _____    ______ ____
ROOT
ATOM      1  C   UNL     1       0.164   9.973  20.407  0.00  0.00    +0.000 A 
ATOM      2  C   UNL     1      -0.024   8.966  21.354  0.00  0.00    +0.000 A 
ATOM      3  C   UNL     1       0.680   7.763  21.248  0.00  0.00    +0.000 A 
ATOM      4  C   UNL     1       1.566   7.556  20.186  0.00  0.00    +0.000 A 
ATOM      5  C   UNL     1       1.729   8.550  19.205  0.00  0.00    +0.000 A 
ATOM      6  C   UNL     1       1.027   9.757  19.331  0.00  0.00    +0.000 A 
ATOM      7  C   UNL     1       2.679   8.354  18.052  0.00  0.00    +0.000 C 
ATOM      8  C   UNL     1       2.814   6.876  17.712  0.00  0.00    +0.000 C 
ATOM      9  C   UNL     1       3.238   6.117  18.937  0.00  0.00    +0.000 C 
ATOM     10  C   UNL     1       4.333   5.346  19.073  0.00  0.00    +0.000 C 
ATOM     11  C   UNL     1       2.355   6.290  20.132  0.00  0.00    +0.000 C 
ATOM     12  O   UNL     1       2.292   5.459  21.028  0.00  0.00    +0.000 OA
ENDROOT
BRANCH  10  13
ATOM     13  C   UNL     1       5.322   5.184  18.007  0.00  0.00    +0.000 A 
ATOM     14  C   UNL     1       6.378   6.087  17.896  0.00  0.00    +0.000 A 
ATOM     15  C   UNL     1       7.246   5.951  16.825  0.00  0.00    +0.000 A 
ATOM     16  N   UNL     1       7.127   4.992  15.882  0.00  0.00    +0.000 NA
ATOM     17  C   UNL     1       6.100   4.125  16.021  0.00  0.00    +0.000 A 
ATOM     18  C   UNL     1       5.179   4.179  17.055  0.00  0.00    +0.000 A 
ENDBRANCH  10  13
BRANCH   1  20
ATOM     19  C   UNL     1      -1.342  11.434  19.321  0.00  0.00    +0.000 C 
ATOM     20  O   UNL     1      -0.459  11.191  20.411  0.00  0.00    +0.000 OA
ENDBRANCH   1  20
TORSDOF 2
ENDMDL
MODEL 6
REMARK VINA RESULT:      -6.6      4.198      6.229
REMARK  Name = 
REMARK  3 active torsions:
REMARK  status: ('A' for Active; 'I' for Inactive)
REMARK    1  A    between atoms: C_1  and  O_2
REMARK    2  A    between atoms: O_2  and  C_3
REMARK    3  A    between atoms: C_12  and  C_13
REMARK                            x       y       z     vdW  Elec       q    Type
REMARK                         _______ _______ _______ _____ _____    ______ ____
ROOT
ATOM      1  C   UNL     1       1.713   4.010  20.131  0.00  0.00    +0.000 A 
ATOM      2  C   UNL     1       2.006   5.363  20.300  0.00  0.00    +0.000 A 
ATOM      3  C   UNL     1       2.888   6.005  19.425  0.00  0.00    +0.000 A 
ATOM      4  C   UNL     1       3.493   5.291  18.386  0.00  0.00    +0.000 A 
ATOM      5  C   UNL     1       3.236   3.917  18.236  0.00  0.00    +0.000 A 
ATOM      6  C   UNL     1       2.338   3.290  19.111  0.00  0.00    +0.000 A 
ATOM      7  C   UNL     1       3.872   3.125  17.124  0.00  0.00    +0.000 C 
ATOM      8  C   UNL     1       5.217   3.726  16.738  0.00  0.00    +0.000 C 
ATOM      9  C   UNL     1       5.036   5.173  16.378  0.00  0.00    +0.000 C 
ATOM     10  C   UNL     1       5.360   5.764  15.212  0.00  0.00    +0.000 C 
ATOM     11  C   UNL     1       4.380   6.014  17.426  0.00  0.00    +0.000 C 
ATOM     12  O   UNL     1       4.538   7.225  17.490  0.00  0.00    +0.000 OA
ENDROOT
BRANCH  10  13
ATOM     13  C   UNL     1       5.912   5.023  14.078  0.00  0.00    +0.000 A 
ATOM     14  C   UNL     1       5.149   4.037  13.454  0.00  0.00    +0.000 A 
ATOM     15  C   UNL     1       5.736   3.300  12.439  0.00  0.00    +0.000 A 
ATOM     16  N   UNL     1       7.006   3.482  12.019  0.00  0.00    +0.000 NA
ATOM     17  C   UNL     1       7.718   4.452  12.635  0.00  0.00    +0.000 A 
ATOM     18  C   UNL     1       7.222   5.241  13.659  0.00  0.00    +0.000 A 
ENDBRANCH  10  13
BRANCH   1  20
ATOM     19  C   UNL     1       1.472   2.550  21.972  0.00  0.00    +0.000 C 
ATOM     20  O   UNL     1       0.862   3.280  20.914  0.00  0.00    +0.000 OA
ENDBRANCH   1  20
TORSDOF 2
ENDMDL
MODEL 7
REMARK VINA RESULT:      -6.3      2.091      3.162
REMARK  Name = 
REMARK  3 active torsions:
REMARK  status: ('A' for Active; 'I' for Inactive)
REMARK    1  A    between atoms: C_1  and  O_2
REMARK    2  A    between atoms: O_2  and  C_3
REMARK    3  A    between atoms: C_12  and  C_13
REMARK                            x       y       z     vdW  Elec       q    Type
REMARK                         _______ _______ _______ _____ _____    ______ ____
ROOT
ATOM      1  C   UNL     1       0.335  12.159  20.128  0.00  0.00    +0.000 A 
ATOM      2  C   UNL     1       0.047  11.363  21.236  0.00  0.00    +0.000 A 
ATOM      3  C   UNL     1       0.427  10.017  21.252  0.00  0.00    +0.000 A 
ATOM      4  C   UNL     1       1.085   9.458  20.151  0.00  0.00    +0.000 A 
ATOM      5  C   UNL     1       1.340  10.242  19.013  0.00  0.00    +0.000 A 
ATOM      6  C   UNL     1       0.966  11.594  19.017  0.00  0.00    +0.000 A 
ATOM      7  C   UNL     1       2.049   9.666  17.816  0.00  0.00    +0.000 C 
ATOM      8  C   UNL     1       1.784   8.171  17.704  0.00  0.00    +0.000 C 
ATOM      9  C   UNL     1       2.182   7.493  18.984  0.00  0.00    +0.000 C 
ATOM     10  C   UNL     1       3.073   6.495  19.128  0.00  0.00    +0.000 C 
ATOM     11  C   UNL     1       1.538   8.037  20.220  0.00  0.00    +0.000 C 
ATOM     12  O   UNL     1       1.405   7.371  21.237  0.00  0.00    +0.000 OA
ENDROOT
BRANCH  10  13
ATOM     13  C   UNL     1       3.839   5.952  18.007  0.00  0.00    +0.000 A 
ATOM     14  C   UNL     1       3.636   4.634  17.599  0.00  0.00    +0.000 A 
ATOM     15  C   UNL     1       4.439   4.130  16.590  0.00  0.00    +0.000 A 
ATOM     16  N   UNL     1       5.408   4.842  15.977  0.00  0.00    +0.000 NA
ATOM     17  C   UNL     1       5.575   6.119  16.386  0.00  0.00    +0.000 A 
ATOM     18  C   UNL     1       4.825   6.714  17.386  0.00  0.00    +0.000 A 
ENDBRANCH  10  13
BRANCH   1  20
ATOM     19  C   UNL     1      -0.354  13.906  18.695  0.00  0.00    +0.000 C 
ATOM     20  O   UNL     1       0.023  13.484  20.001  0.00  0.00    +0.000 OA
ENDBRANCH   1  20
TORSDOF 2
ENDMDL
MODEL 8
REMARK VINA RESULT:      -6.3      1.517      1.907
REMARK  Name = 
REMARK  3 active torsions:
REMARK  status: ('A' for Active; 'I' for Inactive)
REMARK    1  A    between atoms: C_1  and  O_2
REMARK    2  A    between atoms: O_2  and  C_3
REMARK    3  A    between atoms: C_12  and  C_13
REMARK                            x       y       z     vdW  Elec       q    Type
REMARK                         _______ _______ _______ _____ _____    ______ ____
ROOT
ATOM      1  C   UNL     1      -0.594  11.754  20.298  0.00  0.00    +0.000 A 
ATOM      2  C   UNL     1       0.081  11.953  19.094  0.00  0.00    +0.000 A 
ATOM      3  C   UNL     1       0.886  10.939  18.564  0.00  0.00    +0.000 A 
ATOM      4  C   UNL     1       1.032   9.727  19.247  0.00  0.00    +0.000 A 
ATOM      5  C   UNL     1       0.390   9.535  20.482  0.00  0.00    +0.000 A 
ATOM      6  C   UNL     1      -0.426  10.555  20.994  0.00  0.00    +0.000 A 
ATOM      7  C   UNL     1       0.528   8.239  21.236  0.00  0.00    +0.000 C 
ATOM      8  C   UNL     1       1.865   7.578  20.928  0.00  0.00    +0.000 C 
ATOM      9  C   UNL     1       2.002   7.393  19.443  0.00  0.00    +0.000 C 
ATOM     10  C   UNL     1       2.207   6.235  18.788  0.00  0.00    +0.000 C 
ATOM     11  C   UNL     1       1.845   8.637  18.628  0.00  0.00    +0.000 C 
ATOM     12  O   UNL     1       2.331   8.757  17.513  0.00  0.00    +0.000 OA
ENDROOT
BRANCH  10  13
ATOM     13  C   UNL     1       2.275   4.943  19.469  0.00  0.00    +0.000 A 
ATOM     14  C   UNL     1       1.145   4.435  20.110  0.00  0.00    +0.000 A 
ATOM     15  C   UNL     1       1.271   3.250  20.815  0.00  0.00    +0.000 A 
ATOM     16  N   UNL     1       2.426   2.558  20.917  0.00  0.00    +0.000 NA
ATOM     17  C   UNL     1       3.501   3.068  20.277  0.00  0.00    +0.000 A 
ATOM     18  C   UNL     1       3.477   4.246  19.548  0.00  0.00    +0.000 A 
ENDBRANCH  10  13
BRANCH   1  20
ATOM     19  C   UNL     1      -2.703  12.818  20.322  0.00  0.00    +0.000 C 
ATOM     20  O   UNL     1      -1.414  12.663  20.907  0.00  0.00    +0.000 OA
ENDBRANCH   1  20
TORSDOF 2
ENDMDL
MODEL 9
REMARK VINA RESULT:      -6.2      3.364      7.309
REMARK  Name = 
REMARK  3 active torsions:
REMARK  status: ('A' for Active; 'I' for Inactive)
REMARK    1  A    between atoms: C_1  and  O_2
REMARK    2  A    between atoms: O_2  and  C_3
REMARK    3  A    between atoms: C_12  and  C_13
REMARK                            x       y       z     vdW  Elec       q    Type
REMARK                         _______ _______ _______ _____ _____    ______ ____
ROOT
ATOM      1  C   UNL     1       3.289   4.209  18.477  0.00  0.00    +0.000 A 
ATOM      2  C   UNL     1       3.096   4.185  19.858  0.00  0.00    +0.000 A 
ATOM      3  C   UNL     1       2.581   5.308  20.515  0.00  0.00    +0.000 A 
ATOM      4  C   UNL     1       2.271   6.465  19.793  0.00  0.00    +0.000 A 
ATOM      5  C   UNL     1       2.504   6.512  18.408  0.00  0.00    +0.000 A 
ATOM      6  C   UNL     1       3.006   5.374  17.760  0.00  0.00    +0.000 A 
ATOM      7  C   UNL     1       2.177   7.744  17.607  0.00  0.00    +0.000 C 
ATOM      8  C   UNL     1       2.291   8.993  18.471  0.00  0.00    +0.000 C 
ATOM      9  C   UNL     1       1.412   8.847  19.681  0.00  0.00    +0.000 C 
ATOM     10  C   UNL     1       0.416   9.669  20.061  0.00  0.00    +0.000 C 
ATOM     11  C   UNL     1       1.662   7.626  20.507  0.00  0.00    +0.000 C 
ATOM     12  O   UNL     1       1.369   7.565  21.693  0.00  0.00    +0.000 OA
ENDROOT
BRANCH  10  13
ATOM     13  C   UNL     1       0.014  10.838  19.278  0.00  0.00    +0.000 A 
ATOM     14  C   UNL     1       0.779  12.002  19.325  0.00  0.00    +0.000 A 
ATOM     15  C   UNL     1       0.321  13.114  18.637  0.00  0.00    +0.000 A 
ATOM     16  N   UNL     1      -0.825  13.134  17.924  0.00  0.00    +0.000 NA
ATOM     17  C   UNL     1      -1.540  11.988  17.888  0.00  0.00    +0.000 A 
ATOM     18  C   UNL     1      -1.167  10.825  18.542  0.00  0.00    +0.000 A 
ENDBRANCH  10  13
BRANCH   1  20
ATOM     19  C   UNL     1       3.231   1.892  18.021  0.00  0.00    +0.000 C 
ATOM     20  O   UNL     1       3.774   3.174  17.726  0.00  0.00    +0.000 OA
ENDBRANCH   1  20
TORSDOF 2
ENDMDL
