MODEL 1
REMARK VINA RESULT:      -6.9      0.000      0.000
REMARK  Name = 
REMARK  9 active torsions:
REMARK  status: ('A' for Active; 'I' for Inactive)
REMARK    1  A    between atoms: C_1  and  C_2
REMARK    2  A    between atoms: C_4  and  C_5
REMARK    3  A    between atoms: C_8  and  P_9
REMARK    4  A    between atoms: P_9  and  O_11
REMARK    5  A    between atoms: P_9  and  O_12
REMARK    6  A    between atoms: C_14  and  C_15
REMARK    7  A    between atoms: C_15  and  C_16
REMARK    8  A    between atoms: C_16  and  C_17
REMARK    9  A    between atoms: C_16  and  C_18
REMARK                            x       y       z     vdW  Elec       q    Type
REMARK                         _______ _______ _______ _____ _____    ______ ____
ROOT
ATOM      1  C   UNL     1       2.587   7.466  18.633  0.00  0.00    +0.000 A 
ATOM      2  C   UNL     1       2.035   8.578  18.028  0.00  0.00    +0.000 A 
ATOM      3  C   UNL     1       1.276   9.249  19.018  0.00  0.00    +0.000 A 
ATOM      4  C   UNL     1       1.485   8.549  20.187  0.00  0.00    +0.000 A 
ATOM      5  O   UNL     1       2.260   7.454  19.961  0.00  0.00    +0.000 OA
ENDROOT
BRANCH   1   9
ATOM      6  C   UNL     1       6.650   5.656  16.454  0.00  0.00    +0.000 C 
ATOM      7  C   UNL     1       5.260   5.692  16.987  0.00  0.00    +0.000 A 
ATOM      8  N   UNL     1       4.690   6.763  17.484  0.00  0.00    +0.000 NA
ATOM      9  C   UNL     1       3.423   6.444  17.952  0.00  0.00    +0.000 A 
ATOM     10  C   UNL     1       2.999   5.149  17.702  0.00  0.00    +0.000 A 
ATOM     11  S   UNL     1       4.289   4.275  16.970  0.00  0.00    +0.000 S 
BRANCH  10  12
ATOM     12  C   UNL     1       1.664   4.493  17.924  0.00  0.00    +0.000 C 
BRANCH  12  13
ATOM     13  C   UNL     1       1.633   3.551  19.152  0.00  0.00    +0.000 C 
ATOM     14  C   UNL     1       1.046   4.209  20.403  0.00  0.00    +0.000 C 
ATOM     15  C   UNL     1       0.853   2.278  18.823  0.00  0.00    +0.000 C 
ENDBRANCH  12  13
ENDBRANCH  10  12
ENDBRANCH   1   9
BRANCH   4  16
ATOM     16  P   UNL     1       0.958   9.164  21.828  0.00  0.00    +0.000 P 
ATOM     17  O   UNL     1       0.743  10.570  21.263  0.00  0.00    +0.000 OA
BRANCH  16  18
ATOM     18  O   UNL     1      -0.502   8.434  21.683  0.00  0.00    +0.000 OA
ATOM     19  H   UNL     1      -0.365   7.471  21.590  0.00  0.00    +0.000 HD
ENDBRANCH  16  18
BRANCH  16  20
ATOM     20  O   UNL     1       0.460   9.747  23.379  0.00  0.00    +0.000 OA
ATOM     21  H   UNL     1       0.495   8.953  23.948  0.00  0.00    +0.000 HD
ENDBRANCH  16  20
ENDBRANCH   4  16
TORSDOF 6
ENDMDL
MODEL 2
REMARK VINA RESULT:      -6.6      1.122      1.451
REMARK  Name = 
REMARK  9 active torsions:
REMARK  status: ('A' for Active; 'I' for Inactive)
REMARK    1  A    between atoms: C_1  and  C_2
REMARK    2  A    between atoms: C_4  and  C_5
REMARK    3  A    between atoms: C_8  and  P_9
REMARK    4  A    between atoms: P_9  and  O_11
REMARK    5  A    between atoms: P_9  and  O_12
REMARK    6  A    between atoms: C_14  and  C_15
REMARK    7  A    between atoms: C_15  and  C_16
REMARK    8  A    between atoms: C_16  and  C_17
REMARK    9  A    between atoms: C_16  and  C_18
REMARK                            x       y       z     vdW  Elec       q    Type
REMARK                         _______ _______ _______ _____ _____    ______ ____
ROOT
ATOM      1  C   UNL     1       2.396   7.444  19.050  0.00  0.00    +0.000 A 
ATOM      2  C   UNL     1       2.018   8.500  18.244  0.00  0.00    +0.000 A 
ATOM      3  C   UNL     1       1.213   9.354  19.039  0.00  0.00    +0.000 A 
ATOM      4  C   UNL     1       1.224   8.806  20.304  0.00  0.00    +0.000 A 
ATOM      5  O   UNL     1       1.920   7.636  20.317  0.00  0.00    +0.000 OA
ENDROOT
BRANCH   1   9
ATOM      6  C   UNL     1       5.537   4.947  16.145  0.00  0.00    +0.000 C 
ATOM      7  C   UNL     1       4.613   5.216  17.281  0.00  0.00    +0.000 A 
ATOM      8  N   UNL     1       3.918   6.319  17.419  0.00  0.00    +0.000 NA
ATOM      9  C   UNL     1       3.211   6.281  18.613  0.00  0.00    +0.000 A 
ATOM     10  C   UNL     1       3.290   5.092  19.319  0.00  0.00    +0.000 A 
ATOM     11  S   UNL     1       4.392   4.042  18.516  0.00  0.00    +0.000 S 
BRANCH  10  12
ATOM     12  C   UNL     1       2.563   4.632  20.553  0.00  0.00    +0.000 C 
BRANCH  12  13
ATOM     13  C   UNL     1       2.018   3.187  20.448  0.00  0.00    +0.000 C 
ATOM     14  C   UNL     1       1.625   2.590  21.801  0.00  0.00    +0.000 C 
ATOM     15  C   UNL     1       0.823   3.140  19.496  0.00  0.00    +0.000 C 
ENDBRANCH  12  13
ENDBRANCH  10  12
ENDBRANCH   1   9
BRANCH   4  16
ATOM     16  P   UNL     1       0.570   9.675  21.776  0.00  0.00    +0.000 P 
ATOM     17  O   UNL     1      -0.469   8.573  21.999  0.00  0.00    +0.000 OA
BRANCH  16  18
ATOM     18  O   UNL     1       1.859   9.215  22.677  0.00  0.00    +0.000 OA
ATOM     19  H   UNL     1       2.675   9.361  22.159  0.00  0.00    +0.000 HD
ENDBRANCH  16  18
BRANCH  16  20
ATOM     20  O   UNL     1      -0.050  10.496  23.166  0.00  0.00    +0.000 OA
ATOM     21  H   UNL     1      -0.701   9.867  23.537  0.00  0.00    +0.000 HD
ENDBRANCH  16  20
ENDBRANCH   4  16
TORSDOF 6
ENDMDL
MODEL 3
REMARK VINA RESULT:      -6.6      4.334      6.344
REMARK  Name = 
REMARK  9 active torsions:
REMARK  status: ('A' for Active; 'I' for Inactive)
REMARK    1  A    between atoms: C_1  and  C_2
REMARK    2  A    between atoms: C_4  and  C_5
REMARK    3  A    between atoms: C_8  and  P_9
REMARK    4  A    between atoms: P_9  and  O_11
REMARK    5  A    between atoms: P_9  and  O_12
REMARK    6  A    between atoms: C_14  and  C_15
REMARK    7  A    between atoms: C_15  and  C_16
REMARK    8  A    between atoms: C_16  and  C_17
REMARK    9  A    between atoms: C_16  and  C_18
REMARK                            x       y       z     vdW  Elec       q    Type
REMARK                         _______ _______ _______ _____ _____    ______ ____
ROOT
ATOM      1  C   UNL     1       3.760   5.638  17.654  0.00  0.00    +0.000 A 
ATOM      2  C   UNL     1       3.773   4.257  17.616  0.00  0.00    +0.000 A 
ATOM      3  C   UNL     1       4.662   3.885  16.578  0.00  0.00    +0.000 A 
ATOM      4  C   UNL     1       5.201   5.063  16.106  0.00  0.00    +0.000 A 
ATOM      5  O   UNL     1       4.644   6.133  16.736  0.00  0.00    +0.000 OA
ENDROOT
BRANCH   1   9
ATOM      6  C   UNL     1       1.206   9.635  19.082  0.00  0.00    +0.000 C 
ATOM      7  C   UNL     1       1.803   8.272  19.149  0.00  0.00    +0.000 A 
ATOM      8  N   UNL     1       2.600   7.771  18.236  0.00  0.00    +0.000 NA
ATOM      9  C   UNL     1       2.924   6.463  18.564  0.00  0.00    +0.000 A 
ATOM     10  C   UNL     1       2.457   6.018  19.790  0.00  0.00    +0.000 A 
ATOM     11  S   UNL     1       1.472   7.246  20.486  0.00  0.00    +0.000 S 
BRANCH  10  12
ATOM     12  C   UNL     1       2.721   4.739  20.537  0.00  0.00    +0.000 C 
BRANCH  12  13
ATOM     13  C   UNL     1       1.445   3.908  20.812  0.00  0.00    +0.000 C 
ATOM     14  C   UNL     1       0.780   3.383  19.537  0.00  0.00    +0.000 C 
ATOM     15  C   UNL     1       1.764   2.741  21.747  0.00  0.00    +0.000 C 
ENDBRANCH  12  13
ENDBRANCH  10  12
ENDBRANCH   1   9
BRANCH   4  16
ATOM     16  P   UNL     1       6.619   5.123  14.951  0.00  0.00    +0.000 P 
ATOM     17  O   UNL     1       7.601   4.892  16.102  0.00  0.00    +0.000 OA
BRANCH  16  18
ATOM     18  O   UNL     1       6.283   3.620  14.389  0.00  0.00    +0.000 OA
ATOM     19  H   UNL     1       6.576   2.963  15.051  0.00  0.00    +0.000 HD
ENDBRANCH  16  18
BRANCH  16  20
ATOM     20  O   UNL     1       7.960   5.179  13.860  0.00  0.00    +0.000 OA
ATOM     21  H   UNL     1       7.995   4.276  13.487  0.00  0.00    +0.000 HD
ENDBRANCH  16  20
ENDBRANCH   4  16
TORSDOF 6
ENDMDL
MODEL 4
REMARK VINA RESULT:      -6.6      0.675      1.230
REMARK  Name = 
REMARK  9 active torsions:
REMARK  status: ('A' for Active; 'I' for Inactive)
REMARK    1  A    between atoms: C_1  and  C_2
REMARK    2  A    between atoms: C_4  and  C_5
REMARK    3  A    between atoms: C_8  and  P_9
REMARK    4  A    between atoms: P_9  and  O_11
REMARK    5  A    between atoms: P_9  and  O_12
REMARK    6  A    between atoms: C_14  and  C_15
REMARK    7  A    between atoms: C_15  and  C_16
REMARK    8  A    between atoms: C_16  and  C_17
REMARK    9  A    between atoms: C_16  and  C_18
REMARK                            x       y       z     vdW  Elec       q    Type
REMARK                         _______ _______ _______ _____ _____    ______ ____
ROOT
ATOM      1  C   UNL     1       2.584   7.382  18.571  0.00  0.00    +0.000 A 
ATOM      2  C   UNL     1       2.120   8.440  17.815  0.00  0.00    +0.000 A 
ATOM      3  C   UNL     1       1.334   9.245  18.675  0.00  0.00    +0.000 A 
ATOM      4  C   UNL     1       1.440   8.672  19.924  0.00  0.00    +0.000 A 
ATOM      5  O   UNL     1       2.178   7.529  19.868  0.00  0.00    +0.000 OA
ENDROOT
BRANCH   1   9
ATOM      6  C   UNL     1       6.740   5.119  17.108  0.00  0.00    +0.000 C 
ATOM      7  C   UNL     1       5.295   5.304  17.417  0.00  0.00    +0.000 A 
ATOM      8  N   UNL     1       4.760   6.443  17.786  0.00  0.00    +0.000 NA
ATOM      9  C   UNL     1       3.413   6.260  18.060  0.00  0.00    +0.000 A 
ATOM     10  C   UNL     1       2.910   4.999  17.786  0.00  0.00    +0.000 A 
ATOM     11  S   UNL     1       4.207   3.981  17.290  0.00  0.00    +0.000 S 
BRANCH  10  12
ATOM     12  C   UNL     1       1.500   4.475  17.815  0.00  0.00    +0.000 C 
BRANCH  12  13
ATOM     13  C   UNL     1       1.187   3.611  19.060  0.00  0.00    +0.000 C 
ATOM     14  C   UNL     1       1.466   2.121  18.847  0.00  0.00    +0.000 C 
ATOM     15  C   UNL     1       1.977   4.117  20.268  0.00  0.00    +0.000 C 
ENDBRANCH  12  13
ENDBRANCH  10  12
ENDBRANCH   1   9
BRANCH   4  16
ATOM     16  P   UNL     1       0.843   9.484  21.452  0.00  0.00    +0.000 P 
ATOM     17  O   UNL     1      -0.360   8.540  21.516  0.00  0.00    +0.000 OA
BRANCH  16  18
ATOM     18  O   UNL     1       1.996   8.742  22.351  0.00  0.00    +0.000 OA
ATOM     19  H   UNL     1       1.720   7.820  22.520  0.00  0.00    +0.000 HD
ENDBRANCH  16  18
BRANCH  16  20
ATOM     20  O   UNL     1       0.278  10.251  22.896  0.00  0.00    +0.000 OA
ATOM     21  H   UNL     1      -0.645  10.494  22.684  0.00  0.00    +0.000 HD
ENDBRANCH  16  20
ENDBRANCH   4  16
TORSDOF 6
ENDMDL
MODEL 5
REMARK VINA RESULT:      -6.5      4.010      5.387
REMARK  Name = 
REMARK  9 active torsions:
REMARK  status: ('A' for Active; 'I' for Inactive)
REMARK    1  A    between atoms: C_1  and  C_2
REMARK    2  A    between atoms: C_4  and  C_5
REMARK    3  A    between atoms: C_8  and  P_9
REMARK    4  A    between atoms: P_9  and  O_11
REMARK    5  A    between atoms: P_9  and  O_12
REMARK    6  A    between atoms: C_14  and  C_15
REMARK    7  A    between atoms: C_15  and  C_16
REMARK    8  A    between atoms: C_16  and  C_17
REMARK    9  A    between atoms: C_16  and  C_18
REMARK                            x       y       z     vdW  Elec       q    Type
REMARK                         _______ _______ _______ _____ _____    ______ ____
ROOT
ATOM      1  C   UNL     1       3.711   3.840  17.256  0.00  0.00    +0.000 A 
ATOM      2  C   UNL     1       2.384   3.794  16.878  0.00  0.00    +0.000 A 
ATOM      3  C   UNL     1       1.650   3.367  18.012  0.00  0.00    +0.000 A 
ATOM      4  C   UNL     1       2.569   3.263  19.035  0.00  0.00    +0.000 A 
ATOM      5  O   UNL     1       3.825   3.526  18.581  0.00  0.00    +0.000 OA
ENDROOT
BRANCH   1   9
ATOM      6  C   UNL     1       6.423   3.720  13.112  0.00  0.00    +0.000 C 
ATOM      7  C   UNL     1       6.015   4.097  14.493  0.00  0.00    +0.000 A 
ATOM      8  N   UNL     1       4.991   3.579  15.127  0.00  0.00    +0.000 NA
ATOM      9  C   UNL     1       4.846   4.192  16.363  0.00  0.00    +0.000 A 
ATOM     10  C   UNL     1       5.837   5.098  16.703  0.00  0.00    +0.000 A 
ATOM     11  S   UNL     1       6.910   5.273  15.369  0.00  0.00    +0.000 S 
BRANCH  10  12
ATOM     12  C   UNL     1       6.094   5.835  17.990  0.00  0.00    +0.000 C 
BRANCH  12  13
ATOM     13  C   UNL     1       7.584   6.193  18.210  0.00  0.00    +0.000 C 
ATOM     14  C   UNL     1       7.877   7.685  18.037  0.00  0.00    +0.000 C 
ATOM     15  C   UNL     1       8.039   5.734  19.595  0.00  0.00    +0.000 C 
ENDBRANCH  12  13
ENDBRANCH  10  12
ENDBRANCH   1   9
BRANCH   4  16
ATOM     16  P   UNL     1       2.095   3.019  20.785  0.00  0.00    +0.000 P 
ATOM     17  O   UNL     1       2.464   4.468  21.115  0.00  0.00    +0.000 OA
BRANCH  16  18
ATOM     18  O   UNL     1       0.500   3.076  20.408  0.00  0.00    +0.000 OA
ATOM     19  H   UNL     1       0.071   2.259  20.728  0.00  0.00    +0.000 HD
ENDBRANCH  16  18
BRANCH  16  20
ATOM     20  O   UNL     1       1.646   2.790  22.440  0.00  0.00    +0.000 OA
ATOM     21  H   UNL     1       1.004   3.507  22.609  0.00  0.00    +0.000 HD
ENDBRANCH  16  20
ENDBRANCH   4  16
TORSDOF 6
ENDMDL
MODEL 6
REMARK VINA RESULT:      -6.5      4.897      7.000
REMARK  Name = 
REMARK  9 active torsions:
REMARK  status: ('A' for Active; 'I' for Inactive)
REMARK    1  A    between atoms: C_1  and  C_2
REMARK    2  A    between atoms: C_4  and  C_5
REMARK    3  A    between atoms: C_8  and  P_9
REMARK    4  A    between atoms: P_9  and  O_11
REMARK    5  A    between atoms: P_9  and  O_12
REMARK    6  A    between atoms: C_14  and  C_15
REMARK    7  A    between atoms: C_15  and  C_16
REMARK    8  A    between atoms: C_16  and  C_17
REMARK    9  A    between atoms: C_16  and  C_18
REMARK                            x       y       z     vdW  Elec       q    Type
REMARK                         _______ _______ _______ _____ _____    ______ ____
ROOT
ATOM      1  C   UNL     1       4.786   4.221  18.109  0.00  0.00    +0.000 A 
ATOM      2  C   UNL     1       6.058   4.604  18.485  0.00  0.00    +0.000 A 
ATOM      3  C   UNL     1       6.873   4.510  17.329  0.00  0.00    +0.000 A 
ATOM      4  C   UNL     1       6.023   4.158  16.301  0.00  0.00    +0.000 A 
ATOM      5  O   UNL     1       4.760   3.959  16.768  0.00  0.00    +0.000 OA
ENDROOT
BRANCH   1   9
ATOM      6  C   UNL     1       2.129   2.459  21.900  0.00  0.00    +0.000 C 
ATOM      7  C   UNL     1       2.476   3.297  20.719  0.00  0.00    +0.000 A 
ATOM      8  N   UNL     1       3.561   3.144  20.000  0.00  0.00    +0.000 NA
ATOM      9  C   UNL     1       3.615   4.123  19.019  0.00  0.00    +0.000 A 
ATOM     10  C   UNL     1       2.506   4.948  18.933  0.00  0.00    +0.000 A 
ATOM     11  S   UNL     1       1.422   4.555  20.211  0.00  0.00    +0.000 S 
BRANCH  10  12
ATOM     12  C   UNL     1       2.144   6.005  17.926  0.00  0.00    +0.000 C 
BRANCH  12  13
ATOM     13  C   UNL     1       2.898   7.341  18.134  0.00  0.00    +0.000 C 
ATOM     14  C   UNL     1       4.118   7.494  17.223  0.00  0.00    +0.000 C 
ATOM     15  C   UNL     1       1.949   8.522  17.929  0.00  0.00    +0.000 C 
ENDBRANCH  12  13
ENDBRANCH  10  12
ENDBRANCH   1   9
BRANCH   4  16
ATOM     16  P   UNL     1       6.520   4.183  14.541  0.00  0.00    +0.000 P 
ATOM     17  O   UNL     1       5.154   4.741  14.134  0.00  0.00    +0.000 OA
BRANCH  16  18
ATOM     18  O   UNL     1       7.454   5.509  14.776  0.00  0.00    +0.000 OA
ATOM     19  H   UNL     1       7.985   5.382  15.586  0.00  0.00    +0.000 HD
ENDBRANCH  16  18
BRANCH  16  20
ATOM     20  O   UNL     1       6.989   4.206  12.876  0.00  0.00    +0.000 OA
ATOM     21  H   UNL     1       7.143   3.264  12.664  0.00  0.00    +0.000 HD
ENDBRANCH  16  20
ENDBRANCH   4  16
TORSDOF 6
ENDMDL
MODEL 7
REMARK VINA RESULT:      -6.5      3.448      5.364
REMARK  Name = 
REMARK  9 active torsions:
REMARK  status: ('A' for Active; 'I' for Inactive)
REMARK    1  A    between atoms: C_1  and  C_2
REMARK    2  A    between atoms: C_4  and  C_5
REMARK    3  A    between atoms: C_8  and  P_9
REMARK    4  A    between atoms: P_9  and  O_11
REMARK    5  A    between atoms: P_9  and  O_12
REMARK    6  A    between atoms: C_14  and  C_15
REMARK    7  A    between atoms: C_15  and  C_16
REMARK    8  A    between atoms: C_16  and  C_17
REMARK    9  A    between atoms: C_16  and  C_18
REMARK                            x       y       z     vdW  Elec       q    Type
REMARK                         _______ _______ _______ _____ _____    ______ ____
ROOT
ATOM      1  C   UNL     1       3.879   4.881  17.510  0.00  0.00    +0.000 A 
ATOM      2  C   UNL     1       2.957   5.870  17.789  0.00  0.00    +0.000 A 
ATOM      3  C   UNL     1       2.148   5.389  18.848  0.00  0.00    +0.000 A 
ATOM      4  C   UNL     1       2.686   4.171  19.205  0.00  0.00    +0.000 A 
ATOM      5  O   UNL     1       3.722   3.843  18.385  0.00  0.00    +0.000 OA
ENDROOT
BRANCH   1   9
ATOM      6  C   UNL     1       6.175   3.447  13.361  0.00  0.00    +0.000 C 
ATOM      7  C   UNL     1       5.884   4.253  14.579  0.00  0.00    +0.000 A 
ATOM      8  N   UNL     1       4.957   3.954  15.456  0.00  0.00    +0.000 NA
ATOM      9  C   UNL     1       4.900   4.939  16.431  0.00  0.00    +0.000 A 
ATOM     10  C   UNL     1       5.869   5.926  16.345  0.00  0.00    +0.000 A 
ATOM     11  S   UNL     1       6.795   5.670  14.917  0.00  0.00    +0.000 S 
BRANCH  10  12
ATOM     12  C   UNL     1       6.209   7.052  17.283  0.00  0.00    +0.000 C 
BRANCH  12  13
ATOM     13  C   UNL     1       7.690   7.053  17.736  0.00  0.00    +0.000 C 
ATOM     14  C   UNL     1       8.226   8.454  18.044  0.00  0.00    +0.000 C 
ATOM     15  C   UNL     1       7.871   6.151  18.957  0.00  0.00    +0.000 C 
ENDBRANCH  12  13
ENDBRANCH  10  12
ENDBRANCH   1   9
BRANCH   4  16
ATOM     16  P   UNL     1       2.187   3.260  20.711  0.00  0.00    +0.000 P 
ATOM     17  O   UNL     1       3.524   2.515  20.737  0.00  0.00    +0.000 OA
BRANCH  16  18
ATOM     18  O   UNL     1       2.434   4.583  21.648  0.00  0.00    +0.000 OA
ATOM     19  H   UNL     1       2.679   5.334  21.073  0.00  0.00    +0.000 HD
ENDBRANCH  16  18
BRANCH  16  20
ATOM     20  O   UNL     1       1.716   2.398  22.136  0.00  0.00    +0.000 OA
ATOM     21  H   UNL     1       2.189   2.861  22.855  0.00  0.00    +0.000 HD
ENDBRANCH  16  20
ENDBRANCH   4  16
TORSDOF 6
ENDMDL
MODEL 8
REMARK VINA RESULT:      -6.3      1.032      1.387
REMARK  Name = 
REMARK  9 active torsions:
REMARK  status: ('A' for Active; 'I' for Inactive)
REMARK    1  A    between atoms: C_1  and  C_2
REMARK    2  A    between atoms: C_4  and  C_5
REMARK    3  A    between atoms: C_8  and  P_9
REMARK    4  A    between atoms: P_9  and  O_11
REMARK    5  A    between atoms: P_9  and  O_12
REMARK    6  A    between atoms: C_14  and  C_15
REMARK    7  A    between atoms: C_15  and  C_16
REMARK    8  A    between atoms: C_16  and  C_17
REMARK    9  A    between atoms: C_16  and  C_18
REMARK                            x       y       z     vdW  Elec       q    Type
REMARK                         _______ _______ _______ _____ _____    ______ ____
ROOT
ATOM      1  C   UNL     1       2.311   7.657  19.126  0.00  0.00    +0.000 A 
ATOM      2  C   UNL     1       1.848   8.800  18.505  0.00  0.00    +0.000 A 
ATOM      3  C   UNL     1       0.990   9.448  19.427  0.00  0.00    +0.000 A 
ATOM      4  C   UNL     1       1.053   8.701  20.584  0.00  0.00    +0.000 A 
ATOM      5  O   UNL     1       1.834   7.601  20.405  0.00  0.00    +0.000 OA
ENDROOT
BRANCH   1   9
ATOM      6  C   UNL     1       5.480   5.862  15.767  0.00  0.00    +0.000 C 
ATOM      7  C   UNL     1       4.612   5.898  16.977  0.00  0.00    +0.000 A 
ATOM      8  N   UNL     1       3.822   6.897  17.288  0.00  0.00    +0.000 NA
ATOM      9  C   UNL     1       3.206   6.646  18.505  0.00  0.00    +0.000 A 
ATOM     10  C   UNL     1       3.451   5.399  19.056  0.00  0.00    +0.000 A 
ATOM     11  S   UNL     1       4.595   4.573  18.069  0.00  0.00    +0.000 S 
BRANCH  10  12
ATOM     12  C   UNL     1       2.859   4.724  20.263  0.00  0.00    +0.000 C 
BRANCH  12  13
ATOM     13  C   UNL     1       1.456   4.122  20.008  0.00  0.00    +0.000 C 
ATOM     14  C   UNL     1       1.263   3.624  18.574  0.00  0.00    +0.000 C 
ATOM     15  C   UNL     1       1.183   2.982  20.991  0.00  0.00    +0.000 C 
ENDBRANCH  12  13
ENDBRANCH  10  12
ENDBRANCH   1   9
BRANCH   4  16
ATOM     16  P   UNL     1       0.349   9.264  22.177  0.00  0.00    +0.000 P 
ATOM     17  O   UNL     1       1.750   9.539  22.730  0.00  0.00    +0.000 OA
BRANCH  16  18
ATOM     18  O   UNL     1      -0.121  10.689  21.517  0.00  0.00    +0.000 OA
ATOM     19  H   UNL     1       0.461  11.399  21.853  0.00  0.00    +0.000 HD
ENDBRANCH  16  18
BRANCH  16  20
ATOM     20  O   UNL     1      -0.315   9.796  23.683  0.00  0.00    +0.000 OA
ATOM     21  H   UNL     1      -0.230  10.769  23.644  0.00  0.00    +0.000 HD
ENDBRANCH  16  20
ENDBRANCH   4  16
TORSDOF 6
ENDMDL
MODEL 9
REMARK VINA RESULT:      -6.3      4.679      6.677
REMARK  Name = 
REMARK  9 active torsions:
REMARK  status: ('A' for Active; 'I' for Inactive)
REMARK    1  A    between atoms: C_1  and  C_2
REMARK    2  A    between atoms: C_4  and  C_5
REMARK    3  A    between atoms: C_8  and  P_9
REMARK    4  A    between atoms: P_9  and  O_11
REMARK    5  A    between atoms: P_9  and  O_12
REMARK    6  A    between atoms: C_14  and  C_15
REMARK    7  A    between atoms: C_15  and  C_16
REMARK    8  A    between atoms: C_16  and  C_17
REMARK    9  A    between atoms: C_16  and  C_18
REMARK                            x       y       z     vdW  Elec       q    Type
REMARK                         _______ _______ _______ _____ _____    ______ ____
ROOT
ATOM      1  C   UNL     1       4.760   4.425  18.617  0.00  0.00    +0.000 A 
ATOM      2  C   UNL     1       5.917   4.861  19.231  0.00  0.00    +0.000 A 
ATOM      3  C   UNL     1       6.898   4.985  18.217  0.00  0.00    +0.000 A 
ATOM      4  C   UNL     1       6.250   4.698  17.034  0.00  0.00    +0.000 A 
ATOM      5  O   UNL     1       4.959   4.336  17.267  0.00  0.00    +0.000 OA
ENDROOT
BRANCH   1   9
ATOM      6  C   UNL     1       1.844   2.233  21.968  0.00  0.00    +0.000 C 
ATOM      7  C   UNL     1       2.233   3.105  20.826  0.00  0.00    +0.000 A 
ATOM      8  N   UNL     1       3.440   3.157  20.316  0.00  0.00    +0.000 NA
ATOM      9  C   UNL     1       3.484   4.113  19.312  0.00  0.00    +0.000 A 
ATOM     10  C   UNL     1       2.273   4.704  18.992  0.00  0.00    +0.000 A 
ATOM     11  S   UNL     1       1.070   4.126  20.079  0.00  0.00    +0.000 S 
BRANCH  10  12
ATOM     12  C   UNL     1       1.906   5.655  17.886  0.00  0.00    +0.000 C 
BRANCH  12  13
ATOM     13  C   UNL     1       2.233   7.134  18.208  0.00  0.00    +0.000 C 
ATOM     14  C   UNL     1       2.256   7.434  19.709  0.00  0.00    +0.000 C 
ATOM     15  C   UNL     1       3.571   7.528  17.582  0.00  0.00    +0.000 C 
ENDBRANCH  12  13
ENDBRANCH  10  12
ENDBRANCH   1   9
BRANCH   4  16
ATOM     16  P   UNL     1       6.997   4.990  15.389  0.00  0.00    +0.000 P 
ATOM     17  O   UNL     1       6.312   3.742  14.826  0.00  0.00    +0.000 OA
BRANCH  16  18
ATOM     18  O   UNL     1       5.947   6.211  15.079  0.00  0.00    +0.000 OA
ATOM     19  H   UNL     1       5.139   6.074  15.611  0.00  0.00    +0.000 HD
ENDBRANCH  16  18
BRANCH  16  20
ATOM     20  O   UNL     1       7.702   5.265  13.833  0.00  0.00    +0.000 OA
ATOM     21  H   UNL     1       8.662   5.170  13.993  0.00  0.00    +0.000 HD
ENDBRANCH  16  20
ENDBRANCH   4  16
TORSDOF 6
ENDMDL
