MODEL 1
REMARK VINA RESULT:      -7.7      0.000      0.000
REMARK  Name = 
REMARK  3 active torsions:
REMARK  status: ('A' for Active; 'I' for Inactive)
REMARK    1  A    between atoms: C_1  and  N_2
REMARK    2  A    between atoms: C_4  and  C_5
REMARK    3  A    between atoms: C_16  and  C_17
REMARK                            x       y       z     vdW  Elec       q    Type
REMARK                         _______ _______ _______ _____ _____    ______ ____
ROOT
ATOM      1  C   UNL     1       6.273   3.715  13.739  0.00  0.00    +0.000 C 
ATOM      2  N   UNL     1       5.989   4.477  14.932  0.00  0.00    +0.000 N 
ATOM      3  C   UNL     1       4.813   4.508  15.610  0.00  0.00    +0.000 A 
ATOM      4  C   UNL     1       4.982   5.386  16.662  0.00  0.00    +0.000 A 
ATOM      5  C   UNL     1       6.345   5.839  16.524  0.00  0.00    +0.000 A 
ATOM      6  N   UNL     1       6.945   5.238  15.477  0.00  0.00    +0.000 NA
ENDROOT
BRANCH   4   7
ATOM      7  C   UNL     1       3.948   5.679  17.660  0.00  0.00    +0.000 A 
ATOM      8  C   UNL     1       3.545   7.007  17.844  0.00  0.00    +0.000 A 
ATOM      9  C   UNL     1       2.507   7.287  18.718  0.00  0.00    +0.000 A 
ATOM     10  N   UNL     1       1.872   6.352  19.446  0.00  0.00    +0.000 NA
ATOM     11  C   UNL     1       2.287   5.068  19.307  0.00  0.00    +0.000 A 
ATOM     12  C   UNL     1       3.329   4.697  18.448  0.00  0.00    +0.000 A 
ATOM     13  O   UNL     1       3.713   3.383  18.376  0.00  0.00    +0.000 OA
ATOM     14  C   UNL     1       4.363   2.992  19.598  0.00  0.00    +0.000 C 
ATOM     15  C   UNL     1       3.376   2.455  20.640  0.00  0.00    +0.000 C 
ATOM     16  N   UNL     1       2.449   3.445  21.200  0.00  0.00    +0.000 NA
ATOM     17  C   UNL     1       1.587   4.030  20.159  0.00  0.00    +0.000 C 
ATOM     18  H   UNL     1       2.962   4.208  21.644  0.00  0.00    +0.000 HD
ENDBRANCH   4   7
BRANCH   5  19
ATOM     19  C   UNL     1       7.108   6.790  17.342  0.00  0.00    +0.000 A 
ATOM     20  C   UNL     1       7.172   8.145  16.972  0.00  0.00    +0.000 A 
ATOM     21  C   UNL     1       7.932   9.052  17.717  0.00  0.00    +0.000 A 
ATOM     22  C   UNL     1       8.633   8.607  18.829  0.00  0.00    +0.000 A 
ATOM     23  F   UNL     1       9.377   9.470  19.533  0.00  0.00    +0.000 F 
ATOM     24  C   UNL     1       8.572   7.277  19.225  0.00  0.00    +0.000 A 
ATOM     25  C   UNL     1       7.792   6.375  18.496  0.00  0.00    +0.000 A 
ENDBRANCH   5  19
TORSDOF 2
ENDMDL
MODEL 2
REMARK VINA RESULT:      -7.6      2.349      5.838
REMARK  Name = 
REMARK  3 active torsions:
REMARK  status: ('A' for Active; 'I' for Inactive)
REMARK    1  A    between atoms: C_1  and  N_2
REMARK    2  A    between atoms: C_4  and  C_5
REMARK    3  A    between atoms: C_16  and  C_17
REMARK                            x       y       z     vdW  Elec       q    Type
REMARK                         _______ _______ _______ _____ _____    ______ ____
ROOT
ATOM      1  C   UNL     1       1.917   2.211  21.270  0.00  0.00    +0.000 C 
ATOM      2  N   UNL     1       2.609   3.270  20.573  0.00  0.00    +0.000 N 
ATOM      3  C   UNL     1       3.880   3.228  20.098  0.00  0.00    +0.000 A 
ATOM      4  C   UNL     1       4.136   4.462  19.533  0.00  0.00    +0.000 A 
ATOM      5  C   UNL     1       2.908   5.194  19.724  0.00  0.00    +0.000 A 
ATOM      6  N   UNL     1       1.981   4.426  20.331  0.00  0.00    +0.000 NA
ENDROOT
BRANCH   4   7
ATOM      7  C   UNL     1       5.397   4.818  18.876  0.00  0.00    +0.000 A 
ATOM      8  C   UNL     1       6.341   5.567  19.587  0.00  0.00    +0.000 A 
ATOM      9  C   UNL     1       7.572   5.833  19.011  0.00  0.00    +0.000 A 
ATOM     10  N   UNL     1       7.916   5.443  17.770  0.00  0.00    +0.000 NA
ATOM     11  C   UNL     1       6.989   4.754  17.058  0.00  0.00    +0.000 A 
ATOM     12  C   UNL     1       5.720   4.444  17.563  0.00  0.00    +0.000 A 
ATOM     13  O   UNL     1       4.824   3.767  16.776  0.00  0.00    +0.000 OA
ATOM     14  C   UNL     1       4.370   4.613  15.705  0.00  0.00    +0.000 C 
ATOM     15  C   UNL     1       5.260   4.509  14.461  0.00  0.00    +0.000 C 
ATOM     16  N   UNL     1       6.613   5.057  14.606  0.00  0.00    +0.000 NA
ATOM     17  C   UNL     1       7.376   4.351  15.649  0.00  0.00    +0.000 C 
ATOM     18  H   UNL     1       6.576   6.045  14.862  0.00  0.00    +0.000 HD
ENDBRANCH   4   7
BRANCH   5  19
ATOM     19  C   UNL     1       2.563   6.571  19.343  0.00  0.00    +0.000 A 
ATOM     20  C   UNL     1       1.877   7.401  20.245  0.00  0.00    +0.000 A 
ATOM     21  C   UNL     1       1.504   8.697  19.878  0.00  0.00    +0.000 A 
ATOM     22  C   UNL     1       1.811   9.165  18.608  0.00  0.00    +0.000 A 
ATOM     23  F   UNL     1       1.439  10.400  18.248  0.00  0.00    +0.000 F 
ATOM     24  C   UNL     1       2.504   8.370  17.705  0.00  0.00    +0.000 A 
ATOM     25  C   UNL     1       2.900   7.083  18.079  0.00  0.00    +0.000 A 
ENDBRANCH   5  19
TORSDOF 2
ENDMDL
MODEL 3
REMARK VINA RESULT:      -7.4      3.196      5.410
REMARK  Name = 
REMARK  3 active torsions:
REMARK  status: ('A' for Active; 'I' for Inactive)
REMARK    1  A    between atoms: C_1  and  N_2
REMARK    2  A    between atoms: C_4  and  C_5
REMARK    3  A    between atoms: C_16  and  C_17
REMARK                            x       y       z     vdW  Elec       q    Type
REMARK                         _______ _______ _______ _____ _____    ______ ____
ROOT
ATOM      1  C   UNL     1       1.478   2.902  21.758  0.00  0.00    +0.000 C 
ATOM      2  N   UNL     1       2.043   3.887  20.865  0.00  0.00    +0.000 N 
ATOM      3  C   UNL     1       1.579   5.145  20.653  0.00  0.00    +0.000 A 
ATOM      4  C   UNL     1       2.402   5.719  19.705  0.00  0.00    +0.000 A 
ATOM      5  C   UNL     1       3.365   4.687  19.408  0.00  0.00    +0.000 A 
ATOM      6  N   UNL     1       3.140   3.592  20.160  0.00  0.00    +0.000 NA
ENDROOT
BRANCH   4   7
ATOM      7  C   UNL     1       2.257   7.094  19.218  0.00  0.00    +0.000 A 
ATOM      8  C   UNL     1       2.934   7.473  18.052  0.00  0.00    +0.000 A 
ATOM      9  C   UNL     1       2.735   8.741  17.533  0.00  0.00    +0.000 A 
ATOM     10  N   UNL     1       1.946   9.668  18.106  0.00  0.00    +0.000 NA
ATOM     11  C   UNL     1       1.322   9.324  19.260  0.00  0.00    +0.000 A 
ATOM     12  C   UNL     1       1.469   8.065  19.855  0.00  0.00    +0.000 A 
ATOM     13  O   UNL     1       0.827   7.794  21.037  0.00  0.00    +0.000 OA
ATOM     14  C   UNL     1       1.424   8.550  22.106  0.00  0.00    +0.000 C 
ATOM     15  C   UNL     1       0.774   9.927  22.281  0.00  0.00    +0.000 C 
ATOM     16  N   UNL     1       1.011  10.879  21.191  0.00  0.00    +0.000 NA
ATOM     17  C   UNL     1       0.465  10.388  19.914  0.00  0.00    +0.000 C 
ATOM     18  H   UNL     1       2.011  11.038  21.061  0.00  0.00    +0.000 HD
ENDBRANCH   4   7
BRANCH   5  19
ATOM     19  C   UNL     1       4.495   4.696  18.469  0.00  0.00    +0.000 A 
ATOM     20  C   UNL     1       4.320   4.237  17.152  0.00  0.00    +0.000 A 
ATOM     21  C   UNL     1       5.397   4.198  16.262  0.00  0.00    +0.000 A 
ATOM     22  C   UNL     1       6.652   4.613  16.686  0.00  0.00    +0.000 A 
ATOM     23  F   UNL     1       7.690   4.559  15.841  0.00  0.00    +0.000 F 
ATOM     24  C   UNL     1       6.846   5.088  17.977  0.00  0.00    +0.000 A 
ATOM     25  C   UNL     1       5.765   5.151  18.860  0.00  0.00    +0.000 A 
ENDBRANCH   5  19
TORSDOF 2
ENDMDL
MODEL 4
REMARK VINA RESULT:      -7.3      3.205      5.397
REMARK  Name = 
REMARK  3 active torsions:
REMARK  status: ('A' for Active; 'I' for Inactive)
REMARK    1  A    between atoms: C_1  and  N_2
REMARK    2  A    between atoms: C_4  and  C_5
REMARK    3  A    between atoms: C_16  and  C_17
REMARK                            x       y       z     vdW  Elec       q    Type
REMARK                         _______ _______ _______ _____ _____    ______ ____
ROOT
ATOM      1  C   UNL     1       1.814   2.905  21.912  0.00  0.00    +0.000 C 
ATOM      2  N   UNL     1       2.315   3.846  20.938  0.00  0.00    +0.000 N 
ATOM      3  C   UNL     1       1.840   5.096  20.704  0.00  0.00    +0.000 A 
ATOM      4  C   UNL     1       2.594   5.624  19.675  0.00  0.00    +0.000 A 
ATOM      5  C   UNL     1       3.531   4.575  19.356  0.00  0.00    +0.000 A 
ATOM      6  N   UNL     1       3.358   3.514  20.169  0.00  0.00    +0.000 NA
ENDROOT
BRANCH   4   7
ATOM      7  C   UNL     1       2.418   6.977  19.140  0.00  0.00    +0.000 A 
ATOM      8  C   UNL     1       3.111   7.340  17.979  0.00  0.00    +0.000 A 
ATOM      9  C   UNL     1       2.885   8.584  17.413  0.00  0.00    +0.000 A 
ATOM     10  N   UNL     1       2.054   9.502  17.936  0.00  0.00    +0.000 NA
ATOM     11  C   UNL     1       1.412   9.175  19.086  0.00  0.00    +0.000 A 
ATOM     12  C   UNL     1       1.584   7.941  19.726  0.00  0.00    +0.000 A 
ATOM     13  O   UNL     1       0.922   7.689  20.900  0.00  0.00    +0.000 OA
ATOM     14  C   UNL     1       1.468   8.497  21.957  0.00  0.00    +0.000 C 
ATOM     15  C   UNL     1       0.771   9.858  22.072  0.00  0.00    +0.000 C 
ATOM     16  N   UNL     1       1.004  10.781  20.956  0.00  0.00    +0.000 NA
ATOM     17  C   UNL     1       0.506  10.232  19.684  0.00  0.00    +0.000 C 
ATOM     18  H   UNL     1       2.002  10.969  20.845  0.00  0.00    +0.000 HD
ENDBRANCH   4   7
BRANCH   5  19
ATOM     19  C   UNL     1       4.590   4.536  18.338  0.00  0.00    +0.000 A 
ATOM     20  C   UNL     1       5.897   4.934  18.666  0.00  0.00    +0.000 A 
ATOM     21  C   UNL     1       6.904   4.945  17.696  0.00  0.00    +0.000 A 
ATOM     22  C   UNL     1       6.606   4.563  16.396  0.00  0.00    +0.000 A 
ATOM     23  F   UNL     1       7.564   4.590  15.460  0.00  0.00    +0.000 F 
ATOM     24  C   UNL     1       5.326   4.149  16.051  0.00  0.00    +0.000 A 
ATOM     25  C   UNL     1       4.325   4.113  17.026  0.00  0.00    +0.000 A 
ENDBRANCH   5  19
TORSDOF 2
ENDMDL
MODEL 5
REMARK VINA RESULT:      -7.3      2.912      4.215
REMARK  Name = 
REMARK  3 active torsions:
REMARK  status: ('A' for Active; 'I' for Inactive)
REMARK    1  A    between atoms: C_1  and  N_2
REMARK    2  A    between atoms: C_4  and  C_5
REMARK    3  A    between atoms: C_16  and  C_17
REMARK                            x       y       z     vdW  Elec       q    Type
REMARK                         _______ _______ _______ _____ _____    ______ ____
ROOT
ATOM      1  C   UNL     1       1.745  10.302  17.915  0.00  0.00    +0.000 C 
ATOM      2  N   UNL     1       2.246   8.963  18.115  0.00  0.00    +0.000 N 
ATOM      3  C   UNL     1       1.736   8.026  18.954  0.00  0.00    +0.000 A 
ATOM      4  C   UNL     1       2.542   6.910  18.846  0.00  0.00    +0.000 A 
ATOM      5  C   UNL     1       3.539   7.294  17.876  0.00  0.00    +0.000 A 
ATOM      6  N   UNL     1       3.310   8.542  17.422  0.00  0.00    +0.000 NA
ENDROOT
BRANCH   4   7
ATOM      7  C   UNL     1       2.312   5.658  19.571  0.00  0.00    +0.000 A 
ATOM      8  C   UNL     1       2.392   5.661  20.969  0.00  0.00    +0.000 A 
ATOM      9  C   UNL     1       2.089   4.507  21.670  0.00  0.00    +0.000 A 
ATOM     10  N   UNL     1       1.751   3.344  21.085  0.00  0.00    +0.000 NA
ATOM     11  C   UNL     1       1.714   3.320  19.729  0.00  0.00    +0.000 A 
ATOM     12  C   UNL     1       2.008   4.441  18.942  0.00  0.00    +0.000 A 
ATOM     13  O   UNL     1       1.976   4.337  17.575  0.00  0.00    +0.000 OA
ATOM     14  C   UNL     1       3.071   3.525  17.116  0.00  0.00    +0.000 C 
ATOM     15  C   UNL     1       2.709   2.037  17.054  0.00  0.00    +0.000 C 
ATOM     16  N   UNL     1       2.490   1.386  18.351  0.00  0.00    +0.000 NA
ATOM     17  C   UNL     1       1.367   1.995  19.081  0.00  0.00    +0.000 C 
ATOM     18  H   UNL     1       3.322   1.464  18.938  0.00  0.00    +0.000 HD
ENDBRANCH   4   7
BRANCH   5  19
ATOM     19  C   UNL     1       4.679   6.533  17.346  0.00  0.00    +0.000 A 
ATOM     20  C   UNL     1       4.886   6.450  15.959  0.00  0.00    +0.000 A 
ATOM     21  C   UNL     1       5.940   5.692  15.440  0.00  0.00    +0.000 A 
ATOM     22  C   UNL     1       6.785   5.011  16.305  0.00  0.00    +0.000 A 
ATOM     23  F   UNL     1       7.785   4.270  15.809  0.00  0.00    +0.000 F 
ATOM     24  C   UNL     1       6.611   5.092  17.680  0.00  0.00    +0.000 A 
ATOM     25  C   UNL     1       5.573   5.870  18.201  0.00  0.00    +0.000 A 
ENDBRANCH   5  19
TORSDOF 2
ENDMDL
MODEL 6
REMARK VINA RESULT:      -7.1      2.522      5.749
REMARK  Name = 
REMARK  3 active torsions:
REMARK  status: ('A' for Active; 'I' for Inactive)
REMARK    1  A    between atoms: C_1  and  N_2
REMARK    2  A    between atoms: C_4  and  C_5
REMARK    3  A    between atoms: C_16  and  C_17
REMARK                            x       y       z     vdW  Elec       q    Type
REMARK                         _______ _______ _______ _____ _____    ______ ____
ROOT
ATOM      1  C   UNL     1       1.140   1.522  19.031  0.00  0.00    +0.000 C 
ATOM      2  N   UNL     1       1.948   2.714  18.931  0.00  0.00    +0.000 N 
ATOM      3  C   UNL     1       3.285   2.767  18.700  0.00  0.00    +0.000 A 
ATOM      4  C   UNL     1       3.641   4.100  18.714  0.00  0.00    +0.000 A 
ATOM      5  C   UNL     1       2.398   4.790  18.966  0.00  0.00    +0.000 A 
ATOM      6  N   UNL     1       1.376   3.917  19.058  0.00  0.00    +0.000 NA
ENDROOT
BRANCH   4   7
ATOM      7  C   UNL     1       5.001   4.589  18.471  0.00  0.00    +0.000 A 
ATOM      8  C   UNL     1       5.654   5.301  19.485  0.00  0.00    +0.000 A 
ATOM      9  C   UNL     1       6.970   5.690  19.302  0.00  0.00    +0.000 A 
ATOM     10  N   UNL     1       7.668   5.458  18.176  0.00  0.00    +0.000 NA
ATOM     11  C   UNL     1       7.028   4.808  17.172  0.00  0.00    +0.000 A 
ATOM     12  C   UNL     1       5.698   4.381  17.272  0.00  0.00    +0.000 A 
ATOM     13  O   UNL     1       5.106   3.752  16.206  0.00  0.00    +0.000 OA
ATOM     14  C   UNL     1       4.896   4.689  15.135  0.00  0.00    +0.000 C 
ATOM     15  C   UNL     1       6.096   4.769  14.185  0.00  0.00    +0.000 C 
ATOM     16  N   UNL     1       7.311   5.364  14.752  0.00  0.00    +0.000 NA
ATOM     17  C   UNL     1       7.814   4.585  15.896  0.00  0.00    +0.000 C 
ATOM     18  H   UNL     1       7.129   6.314  15.079  0.00  0.00    +0.000 HD
ENDBRANCH   4   7
BRANCH   5  19
ATOM     19  C   UNL     1       2.131   6.228  19.100  0.00  0.00    +0.000 A 
ATOM     20  C   UNL     1       2.278   7.079  17.991  0.00  0.00    +0.000 A 
ATOM     21  C   UNL     1       2.070   8.455  18.116  0.00  0.00    +0.000 A 
ATOM     22  C   UNL     1       1.719   8.986  19.349  0.00  0.00    +0.000 A 
ATOM     23  F   UNL     1       1.537  10.307  19.477  0.00  0.00    +0.000 F 
ATOM     24  C   UNL     1       1.550   8.164  20.456  0.00  0.00    +0.000 A 
ATOM     25  C   UNL     1       1.733   6.784  20.327  0.00  0.00    +0.000 A 
ENDBRANCH   5  19
TORSDOF 2
ENDMDL
MODEL 7
REMARK VINA RESULT:      -7.0      2.340      5.920
REMARK  Name = 
REMARK  3 active torsions:
REMARK  status: ('A' for Active; 'I' for Inactive)
REMARK    1  A    between atoms: C_1  and  N_2
REMARK    2  A    between atoms: C_4  and  C_5
REMARK    3  A    between atoms: C_16  and  C_17
REMARK                            x       y       z     vdW  Elec       q    Type
REMARK                         _______ _______ _______ _____ _____    ______ ____
ROOT
ATOM      1  C   UNL     1       1.471   2.544  21.934  0.00  0.00    +0.000 C 
ATOM      2  N   UNL     1       1.962   3.440  20.914  0.00  0.00    +0.000 N 
ATOM      3  C   UNL     1       2.855   3.140  19.937  0.00  0.00    +0.000 A 
ATOM      4  C   UNL     1       3.057   4.297  19.211  0.00  0.00    +0.000 A 
ATOM      5  C   UNL     1       2.204   5.266  19.855  0.00  0.00    +0.000 A 
ATOM      6  N   UNL     1       1.521   4.702  20.871  0.00  0.00    +0.000 NA
ENDROOT
BRANCH   4   7
ATOM      7  C   UNL     1       3.933   4.388  18.039  0.00  0.00    +0.000 A 
ATOM      8  C   UNL     1       3.638   3.613  16.912  0.00  0.00    +0.000 A 
ATOM      9  C   UNL     1       4.405   3.756  15.768  0.00  0.00    +0.000 A 
ATOM     10  N   UNL     1       5.463   4.582  15.677  0.00  0.00    +0.000 NA
ATOM     11  C   UNL     1       5.783   5.304  16.780  0.00  0.00    +0.000 A 
ATOM     12  C   UNL     1       5.063   5.218  17.978  0.00  0.00    +0.000 A 
ATOM     13  O   UNL     1       5.459   5.959  19.062  0.00  0.00    +0.000 OA
ATOM     14  C   UNL     1       6.699   5.447  19.581  0.00  0.00    +0.000 C 
ATOM     15  C   UNL     1       7.921   6.097  18.923  0.00  0.00    +0.000 C 
ATOM     16  N   UNL     1       8.129   5.762  17.510  0.00  0.00    +0.000 NA
ATOM     17  C   UNL     1       6.998   6.203  16.676  0.00  0.00    +0.000 C 
ATOM     18  H   UNL     1       8.229   4.753  17.389  0.00  0.00    +0.000 HD
ENDBRANCH   4   7
BRANCH   5  19
ATOM     19  C   UNL     1       1.989   6.685  19.543  0.00  0.00    +0.000 A 
ATOM     20  C   UNL     1       1.552   7.568  20.545  0.00  0.00    +0.000 A 
ATOM     21  C   UNL     1       1.300   8.911  20.251  0.00  0.00    +0.000 A 
ATOM     22  C   UNL     1       1.479   9.374  18.955  0.00  0.00    +0.000 A 
ATOM     23  F   UNL     1       1.221  10.657  18.666  0.00  0.00    +0.000 F 
ATOM     24  C   UNL     1       1.927   8.525  17.951  0.00  0.00    +0.000 A 
ATOM     25  C   UNL     1       2.203   7.188  18.249  0.00  0.00    +0.000 A 
ENDBRANCH   5  19
TORSDOF 2
ENDMDL
MODEL 8
REMARK VINA RESULT:      -6.9      1.234      2.500
REMARK  Name = 
REMARK  3 active torsions:
REMARK  status: ('A' for Active; 'I' for Inactive)
REMARK    1  A    between atoms: C_1  and  N_2
REMARK    2  A    between atoms: C_4  and  C_5
REMARK    3  A    between atoms: C_16  and  C_17
REMARK                            x       y       z     vdW  Elec       q    Type
REMARK                         _______ _______ _______ _____ _____    ______ ____
ROOT
ATOM      1  C   UNL     1       6.239   3.636  12.691  0.00  0.00    +0.000 C 
ATOM      2  N   UNL     1       6.030   3.963  14.082  0.00  0.00    +0.000 N 
ATOM      3  C   UNL     1       5.059   3.466  14.891  0.00  0.00    +0.000 A 
ATOM      4  C   UNL     1       5.216   4.073  16.122  0.00  0.00    +0.000 A 
ATOM      5  C   UNL     1       6.352   4.943  15.939  0.00  0.00    +0.000 A 
ATOM      6  N   UNL     1       6.849   4.827  14.692  0.00  0.00    +0.000 NA
ENDROOT
BRANCH   4   7
ATOM      7  C   UNL     1       4.380   3.784  17.291  0.00  0.00    +0.000 A 
ATOM      8  C   UNL     1       3.959   2.468  17.512  0.00  0.00    +0.000 A 
ATOM      9  C   UNL     1       3.245   2.166  18.660  0.00  0.00    +0.000 A 
ATOM     10  N   UNL     1       2.888   3.081  19.579  0.00  0.00    +0.000 NA
ATOM     11  C   UNL     1       3.255   4.367  19.350  0.00  0.00    +0.000 A 
ATOM     12  C   UNL     1       3.975   4.759  18.215  0.00  0.00    +0.000 A 
ATOM     13  O   UNL     1       4.290   6.082  18.035  0.00  0.00    +0.000 OA
ATOM     14  C   UNL     1       3.101   6.835  17.741  0.00  0.00    +0.000 C 
ATOM     15  C   UNL     1       2.413   7.361  19.006  0.00  0.00    +0.000 C 
ATOM     16  N   UNL     1       1.809   6.338  19.866  0.00  0.00    +0.000 NA
ATOM     17  C   UNL     1       2.816   5.393  20.375  0.00  0.00    +0.000 C 
ATOM     18  H   UNL     1       1.109   5.801  19.352  0.00  0.00    +0.000 HD
ENDBRANCH   4   7
BRANCH   5  19
ATOM     19  C   UNL     1       6.999   5.858  16.890  0.00  0.00    +0.000 A 
ATOM     20  C   UNL     1       7.077   7.231  16.604  0.00  0.00    +0.000 A 
ATOM     21  C   UNL     1       7.729   8.105  17.478  0.00  0.00    +0.000 A 
ATOM     22  C   UNL     1       8.310   7.609  18.636  0.00  0.00    +0.000 A 
ATOM     23  F   UNL     1       8.952   8.441  19.467  0.00  0.00    +0.000 F 
ATOM     24  C   UNL     1       8.232   6.257  18.950  0.00  0.00    +0.000 A 
ATOM     25  C   UNL     1       7.558   5.387  18.089  0.00  0.00    +0.000 A 
ENDBRANCH   5  19
TORSDOF 2
ENDMDL
MODEL 9
REMARK VINA RESULT:      -6.9      2.385      5.856
REMARK  Name = 
REMARK  3 active torsions:
REMARK  status: ('A' for Active; 'I' for Inactive)
REMARK    1  A    between atoms: C_1  and  N_2
REMARK    2  A    between atoms: C_4  and  C_5
REMARK    3  A    between atoms: C_16  and  C_17
REMARK                            x       y       z     vdW  Elec       q    Type
REMARK                         _______ _______ _______ _____ _____    ______ ____
ROOT
ATOM      1  C   UNL     1       2.115   1.907  19.342  0.00  0.00    +0.000 C 
ATOM      2  N   UNL     1       2.685   3.179  18.964  0.00  0.00    +0.000 N 
ATOM      3  C   UNL     1       3.899   3.382  18.391  0.00  0.00    +0.000 A 
ATOM      4  C   UNL     1       4.044   4.746  18.234  0.00  0.00    +0.000 A 
ATOM      5  C   UNL     1       2.815   5.289  18.758  0.00  0.00    +0.000 A 
ATOM      6  N   UNL     1       1.990   4.304  19.165  0.00  0.00    +0.000 NA
ENDROOT
BRANCH   4   7
ATOM      7  C   UNL     1       5.212   5.381  17.618  0.00  0.00    +0.000 A 
ATOM      8  C   UNL     1       5.698   6.575  18.162  0.00  0.00    +0.000 A 
ATOM      9  C   UNL     1       6.854   7.138  17.646  0.00  0.00    +0.000 A 
ATOM     10  N   UNL     1       7.536   6.622  16.608  0.00  0.00    +0.000 NA
ATOM     11  C   UNL     1       7.047   5.488  16.046  0.00  0.00    +0.000 A 
ATOM     12  C   UNL     1       5.884   4.856  16.503  0.00  0.00    +0.000 A 
ATOM     13  O   UNL     1       5.433   3.726  15.870  0.00  0.00    +0.000 OA
ATOM     14  C   UNL     1       4.933   4.060  14.564  0.00  0.00    +0.000 C 
ATOM     15  C   UNL     1       6.023   4.005  13.488  0.00  0.00    +0.000 C 
ATOM     16  N   UNL     1       7.061   5.037  13.588  0.00  0.00    +0.000 NA
ATOM     17  C   UNL     1       7.804   4.938  14.855  0.00  0.00    +0.000 C 
ATOM     18  H   UNL     1       6.647   5.970  13.542  0.00  0.00    +0.000 HD
ENDBRANCH   4   7
BRANCH   5  19
ATOM     19  C   UNL     1       2.377   6.687  18.872  0.00  0.00    +0.000 A 
ATOM     20  C   UNL     1       1.969   7.199  20.116  0.00  0.00    +0.000 A 
ATOM     21  C   UNL     1       1.508   8.513  20.230  0.00  0.00    +0.000 A 
ATOM     22  C   UNL     1       1.448   9.318  19.101  0.00  0.00    +0.000 A 
ATOM     23  F   UNL     1       0.989  10.573  19.203  0.00  0.00    +0.000 F 
ATOM     24  C   UNL     1       1.862   8.841  17.863  0.00  0.00    +0.000 A 
ATOM     25  C   UNL     1       2.347   7.535  17.753  0.00  0.00    +0.000 A 
ENDBRANCH   5  19
TORSDOF 2
ENDMDL
