MODEL 1
REMARK VINA RESULT:      -7.8      0.000      0.000
REMARK  Name = 
REMARK  3 active torsions:
REMARK  status: ('A' for Active; 'I' for Inactive)
REMARK    1  A    between atoms: C_4  and  S_5
REMARK    2  A    between atoms: S_5  and  C_6
REMARK    3  A    between atoms: C_6  and  C_7
REMARK                            x       y       z     vdW  Elec       q    Type
REMARK                         _______ _______ _______ _____ _____    ______ ____
ROOT
ATOM      1  N   UNL     1       7.799   5.756  19.764  0.00  0.00    +0.000 N 
ATOM      2  C   UNL     1       7.139   5.243  18.663  0.00  0.00    +0.000 A 
ATOM      3  N   UNL     1       6.082   4.440  18.898  0.00  0.00    +0.000 NA
ATOM      4  C   UNL     1       5.395   3.950  17.845  0.00  0.00    +0.000 A 
ATOM      5  C   UNL     1       5.840   4.286  16.586  0.00  0.00    +0.000 A 
ATOM      6  N   UNL     1       5.431   4.017  15.309  0.00  0.00    +0.000 N 
ATOM      7  C   UNL     1       6.303   4.637  14.458  0.00  0.00    +0.000 A 
ATOM      8  N   UNL     1       7.242   5.285  15.113  0.00  0.00    +0.000 NA
ATOM      9  C   UNL     1       6.955   5.082  16.438  0.00  0.00    +0.000 A 
ATOM     10  N   UNL     1       7.643   5.579  17.475  0.00  0.00    +0.000 NA
ATOM     11  H   UNL     1       7.669   5.174  20.577  0.00  0.00    +0.000 HD
ATOM     12  H   UNL     1       8.744   6.013  19.511  0.00  0.00    +0.000 HD
ATOM     13  H   UNL     1       4.624   3.465  15.049  0.00  0.00    +0.000 HD
ENDROOT
BRANCH   4  14
ATOM     14  S   UNL     1       3.977   2.906  18.005  0.00  0.00    +0.000 S 
BRANCH  14  15
ATOM     15  C   UNL     1       2.633   3.998  17.439  0.00  0.00    +0.000 C 
BRANCH  15  16
ATOM     16  C   UNL     1       2.383   5.112  18.440  0.00  0.00    +0.000 A 
ATOM     17  C   UNL     1       2.722   6.435  18.094  0.00  0.00    +0.000 A 
ATOM     18  C   UNL     1       2.512   7.490  18.986  0.00  0.00    +0.000 A 
ATOM     19  C   UNL     1       1.965   7.247  20.242  0.00  0.00    +0.000 A 
ATOM     20  C   UNL     1       1.638   5.941  20.610  0.00  0.00    +0.000 A 
ATOM     21  C   UNL     1       1.851   4.880  19.719  0.00  0.00    +0.000 A 
ATOM     22 CL   UNL     1       1.439   3.294  20.267  0.00  0.00    +0.000 Cl
ENDBRANCH  15  16
ENDBRANCH  14  15
ENDBRANCH   4  14
TORSDOF 3
ENDMDL
MODEL 2
REMARK VINA RESULT:      -7.8      2.247      2.455
REMARK  Name = 
REMARK  3 active torsions:
REMARK  status: ('A' for Active; 'I' for Inactive)
REMARK    1  A    between atoms: C_4  and  S_5
REMARK    2  A    between atoms: S_5  and  C_6
REMARK    3  A    between atoms: C_6  and  C_7
REMARK                            x       y       z     vdW  Elec       q    Type
REMARK                         _______ _______ _______ _____ _____    ______ ____
ROOT
ATOM      1  N   UNL     1       7.281   5.160  19.532  0.00  0.00    +0.000 N 
ATOM      2  C   UNL     1       6.768   4.909  18.274  0.00  0.00    +0.000 A 
ATOM      3  N   UNL     1       5.513   4.419  18.207  0.00  0.00    +0.000 NA
ATOM      4  C   UNL     1       4.970   4.195  16.991  0.00  0.00    +0.000 A 
ATOM      5  C   UNL     1       5.752   4.460  15.889  0.00  0.00    +0.000 A 
ATOM      6  N   UNL     1       5.577   4.383  14.535  0.00  0.00    +0.000 N 
ATOM      7  C   UNL     1       6.744   4.779  13.946  0.00  0.00    +0.000 A 
ATOM      8  N   UNL     1       7.653   5.106  14.840  0.00  0.00    +0.000 NA
ATOM      9  C   UNL     1       7.040   4.922  16.052  0.00  0.00    +0.000 A 
ATOM     10  N   UNL     1       7.589   5.153  17.252  0.00  0.00    +0.000 NA
ATOM     11  H   UNL     1       6.829   4.595  20.235  0.00  0.00    +0.000 HD
ATOM     12  H   UNL     1       8.292   5.158  19.499  0.00  0.00    +0.000 HD
ATOM     13  H   UNL     1       4.732   4.090  14.063  0.00  0.00    +0.000 HD
ENDROOT
BRANCH   4  14
ATOM     14  S   UNL     1       3.330   3.579  16.755  0.00  0.00    +0.000 S 
BRANCH  14  15
ATOM     15  C   UNL     1       3.308   2.122  17.849  0.00  0.00    +0.000 C 
BRANCH  15  16
ATOM     16  C   UNL     1       2.631   2.448  19.169  0.00  0.00    +0.000 A 
ATOM     17  C   UNL     1       1.299   2.907  19.163  0.00  0.00    +0.000 A 
ATOM     18  C   UNL     1       0.639   3.221  20.354  0.00  0.00    +0.000 A 
ATOM     19  C   UNL     1       1.295   3.088  21.574  0.00  0.00    +0.000 A 
ATOM     20  C   UNL     1       2.620   2.651  21.600  0.00  0.00    +0.000 A 
ATOM     21  C   UNL     1       3.286   2.339  20.407  0.00  0.00    +0.000 A 
ATOM     22 CL   UNL     1       4.932   1.826  20.531  0.00  0.00    +0.000 Cl
ENDBRANCH  15  16
ENDBRANCH  14  15
ENDBRANCH   4  14
TORSDOF 3
ENDMDL
MODEL 3
REMARK VINA RESULT:      -7.8      0.913      2.604
REMARK  Name = 
REMARK  3 active torsions:
REMARK  status: ('A' for Active; 'I' for Inactive)
REMARK    1  A    between atoms: C_4  and  S_5
REMARK    2  A    between atoms: S_5  and  C_6
REMARK    3  A    between atoms: C_6  and  C_7
REMARK                            x       y       z     vdW  Elec       q    Type
REMARK                         _______ _______ _______ _____ _____    ______ ____
ROOT
ATOM      1  N   UNL     1       7.153   5.166  13.903  0.00  0.00    +0.000 N 
ATOM      2  C   UNL     1       6.815   5.008  15.234  0.00  0.00    +0.000 A 
ATOM      3  N   UNL     1       5.799   4.167  15.515  0.00  0.00    +0.000 NA
ATOM      4  C   UNL     1       5.466   3.964  16.807  0.00  0.00    +0.000 A 
ATOM      5  C   UNL     1       6.177   4.657  17.762  0.00  0.00    +0.000 A 
ATOM      6  N   UNL     1       6.160   4.720  19.127  0.00  0.00    +0.000 N 
ATOM      7  C   UNL     1       7.118   5.616  19.510  0.00  0.00    +0.000 A 
ATOM      8  N   UNL     1       7.746   6.128  18.473  0.00  0.00    +0.000 NA
ATOM      9  C   UNL     1       7.174   5.528  17.381  0.00  0.00    +0.000 A 
ATOM     10  N   UNL     1       7.518   5.735  16.103  0.00  0.00    +0.000 NA
ATOM     11  H   UNL     1       6.376   4.956  13.296  0.00  0.00    +0.000 HD
ATOM     12  H   UNL     1       7.633   6.047  13.772  0.00  0.00    +0.000 HD
ATOM     13  H   UNL     1       5.551   4.191  19.737  0.00  0.00    +0.000 HD
ENDROOT
BRANCH   4  14
ATOM     14  S   UNL     1       4.174   2.873  17.321  0.00  0.00    +0.000 S 
BRANCH  14  15
ATOM     15  C   UNL     1       2.687   3.894  17.065  0.00  0.00    +0.000 C 
BRANCH  15  16
ATOM     16  C   UNL     1       2.296   4.611  18.344  0.00  0.00    +0.000 A 
ATOM     17  C   UNL     1       2.747   5.929  18.559  0.00  0.00    +0.000 A 
ATOM     18  C   UNL     1       2.413   6.625  19.725  0.00  0.00    +0.000 A 
ATOM     19  C   UNL     1       1.627   6.019  20.701  0.00  0.00    +0.000 A 
ATOM     20  C   UNL     1       1.185   4.709  20.514  0.00  0.00    +0.000 A 
ATOM     21  C   UNL     1       1.521   4.007  19.349  0.00  0.00    +0.000 A 
ATOM     22 CL   UNL     1       0.949   2.382  19.212  0.00  0.00    +0.000 Cl
ENDBRANCH  15  16
ENDBRANCH  14  15
ENDBRANCH   4  14
TORSDOF 3
ENDMDL
MODEL 4
REMARK VINA RESULT:      -7.7      1.838      2.379
REMARK  Name = 
REMARK  3 active torsions:
REMARK  status: ('A' for Active; 'I' for Inactive)
REMARK    1  A    between atoms: C_4  and  S_5
REMARK    2  A    between atoms: S_5  and  C_6
REMARK    3  A    between atoms: C_6  and  C_7
REMARK                            x       y       z     vdW  Elec       q    Type
REMARK                         _______ _______ _______ _____ _____    ______ ____
ROOT
ATOM      1  N   UNL     1       8.100   5.259  19.908  0.00  0.00    +0.000 N 
ATOM      2  C   UNL     1       7.295   5.343  18.787  0.00  0.00    +0.000 A 
ATOM      3  N   UNL     1       6.067   5.875  18.950  0.00  0.00    +0.000 NA
ATOM      4  C   UNL     1       5.269   6.003  17.869  0.00  0.00    +0.000 A 
ATOM      5  C   UNL     1       5.758   5.553  16.663  0.00  0.00    +0.000 A 
ATOM      6  N   UNL     1       5.288   5.515  15.380  0.00  0.00    +0.000 N 
ATOM      7  C   UNL     1       6.250   4.927  14.606  0.00  0.00    +0.000 A 
ATOM      8  N   UNL     1       7.304   4.589  15.316  0.00  0.00    +0.000 NA
ATOM      9  C   UNL     1       7.012   4.985  16.596  0.00  0.00    +0.000 A 
ATOM     10  N   UNL     1       7.816   4.857  17.660  0.00  0.00    +0.000 NA
ATOM     11  H   UNL     1       7.553   5.233  20.755  0.00  0.00    +0.000 HD
ATOM     12  H   UNL     1       8.802   4.543  19.775  0.00  0.00    +0.000 HD
ATOM     13  H   UNL     1       4.393   5.866  15.066  0.00  0.00    +0.000 HD
ENDROOT
BRANCH   4  14
ATOM     14  S   UNL     1       3.647   6.703  17.931  0.00  0.00    +0.000 S 
BRANCH  14  15
ATOM     15  C   UNL     1       2.588   5.232  17.741  0.00  0.00    +0.000 C 
BRANCH  15  16
ATOM     16  C   UNL     1       2.598   4.392  19.005  0.00  0.00    +0.000 A 
ATOM     17  C   UNL     1       2.049   4.925  20.189  0.00  0.00    +0.000 A 
ATOM     18  C   UNL     1       2.040   4.187  21.376  0.00  0.00    +0.000 A 
ATOM     19  C   UNL     1       2.581   2.905  21.408  0.00  0.00    +0.000 A 
ATOM     20  C   UNL     1       3.144   2.366  20.251  0.00  0.00    +0.000 A 
ATOM     21  C   UNL     1       3.159   3.105  19.060  0.00  0.00    +0.000 A 
ATOM     22 CL   UNL     1       3.897   2.368  17.681  0.00  0.00    +0.000 Cl
ENDBRANCH  15  16
ENDBRANCH  14  15
ENDBRANCH   4  14
TORSDOF 3
ENDMDL
MODEL 5
REMARK VINA RESULT:      -7.6      1.409      3.032
REMARK  Name = 
REMARK  3 active torsions:
REMARK  status: ('A' for Active; 'I' for Inactive)
REMARK    1  A    between atoms: C_4  and  S_5
REMARK    2  A    between atoms: S_5  and  C_6
REMARK    3  A    between atoms: C_6  and  C_7
REMARK                            x       y       z     vdW  Elec       q    Type
REMARK                         _______ _______ _______ _____ _____    ______ ____
ROOT
ATOM      1  N   UNL     1       7.019   4.971  13.771  0.00  0.00    +0.000 N 
ATOM      2  C   UNL     1       6.718   4.872  15.116  0.00  0.00    +0.000 A 
ATOM      3  N   UNL     1       5.713   4.044  15.463  0.00  0.00    +0.000 NA
ATOM      4  C   UNL     1       5.416   3.899  16.771  0.00  0.00    +0.000 A 
ATOM      5  C   UNL     1       6.151   4.635  17.673  0.00  0.00    +0.000 A 
ATOM      6  N   UNL     1       6.172   4.759  19.035  0.00  0.00    +0.000 N 
ATOM      7  C   UNL     1       7.138   5.673  19.350  0.00  0.00    +0.000 A 
ATOM      8  N   UNL     1       7.735   6.138  18.275  0.00  0.00    +0.000 NA
ATOM      9  C   UNL     1       7.136   5.489  17.227  0.00  0.00    +0.000 A 
ATOM     10  N   UNL     1       7.444   5.639  15.932  0.00  0.00    +0.000 NA
ATOM     11  H   UNL     1       6.226   4.733  13.195  0.00  0.00    +0.000 HD
ATOM     12  H   UNL     1       7.493   5.846  13.587  0.00  0.00    +0.000 HD
ATOM     13  H   UNL     1       5.581   4.257  19.684  0.00  0.00    +0.000 HD
ENDROOT
BRANCH   4  14
ATOM     14  S   UNL     1       4.141   2.830  17.369  0.00  0.00    +0.000 S 
BRANCH  14  15
ATOM     15  C   UNL     1       2.650   3.855  17.150  0.00  0.00    +0.000 C 
BRANCH  15  16
ATOM     16  C   UNL     1       2.277   4.551  18.447  0.00  0.00    +0.000 A 
ATOM     17  C   UNL     1       1.539   3.845  19.418  0.00  0.00    +0.000 A 
ATOM     18  C   UNL     1       1.172   4.448  20.624  0.00  0.00    +0.000 A 
ATOM     19  C   UNL     1       1.529   5.768  20.884  0.00  0.00    +0.000 A 
ATOM     20  C   UNL     1       2.246   6.489  19.928  0.00  0.00    +0.000 A 
ATOM     21  C   UNL     1       2.612   5.888  18.716  0.00  0.00    +0.000 A 
ATOM     22 CL   UNL     1       3.478   6.862  17.581  0.00  0.00    +0.000 Cl
ENDBRANCH  15  16
ENDBRANCH  14  15
ENDBRANCH   4  14
TORSDOF 3
ENDMDL
MODEL 6
REMARK VINA RESULT:      -7.5      1.543      3.243
REMARK  Name = 
REMARK  3 active torsions:
REMARK  status: ('A' for Active; 'I' for Inactive)
REMARK    1  A    between atoms: C_4  and  S_5
REMARK    2  A    between atoms: S_5  and  C_6
REMARK    3  A    between atoms: C_6  and  C_7
REMARK                            x       y       z     vdW  Elec       q    Type
REMARK                         _______ _______ _______ _____ _____    ______ ____
ROOT
ATOM      1  N   UNL     1       7.246   5.287  13.808  0.00  0.00    +0.000 N 
ATOM      2  C   UNL     1       6.850   5.075  15.115  0.00  0.00    +0.000 A 
ATOM      3  N   UNL     1       5.835   4.211  15.318  0.00  0.00    +0.000 NA
ATOM      4  C   UNL     1       5.446   3.957  16.585  0.00  0.00    +0.000 A 
ATOM      5  C   UNL     1       6.101   4.624  17.596  0.00  0.00    +0.000 A 
ATOM      6  N   UNL     1       6.020   4.637  18.961  0.00  0.00    +0.000 N 
ATOM      7  C   UNL     1       6.946   5.531  19.420  0.00  0.00    +0.000 A 
ATOM      8  N   UNL     1       7.613   6.089  18.432  0.00  0.00    +0.000 NA
ATOM      9  C   UNL     1       7.102   5.522  17.294  0.00  0.00    +0.000 A 
ATOM     10  N   UNL     1       7.501   5.780  16.041  0.00  0.00    +0.000 NA
ATOM     11  H   UNL     1       6.501   5.089  13.158  0.00  0.00    +0.000 HD
ATOM     12  H   UNL     1       7.718   6.178  13.731  0.00  0.00    +0.000 HD
ATOM     13  H   UNL     1       5.392   4.077  19.522  0.00  0.00    +0.000 HD
ENDROOT
BRANCH   4  14
ATOM     14  S   UNL     1       4.148   2.830  16.999  0.00  0.00    +0.000 S 
BRANCH  14  15
ATOM     15  C   UNL     1       2.769   3.959  17.379  0.00  0.00    +0.000 C 
BRANCH  15  16
ATOM     16  C   UNL     1       2.348   3.830  18.832  0.00  0.00    +0.000 A 
ATOM     17  C   UNL     1       1.830   2.602  19.291  0.00  0.00    +0.000 A 
ATOM     18  C   UNL     1       1.428   2.440  20.620  0.00  0.00    +0.000 A 
ATOM     19  C   UNL     1       1.531   3.500  21.516  0.00  0.00    +0.000 A 
ATOM     20  C   UNL     1       2.026   4.729  21.077  0.00  0.00    +0.000 A 
ATOM     21  C   UNL     1       2.426   4.895  19.744  0.00  0.00    +0.000 A 
ATOM     22 CL   UNL     1       3.005   6.456  19.282  0.00  0.00    +0.000 Cl
ENDBRANCH  15  16
ENDBRANCH  14  15
ENDBRANCH   4  14
TORSDOF 3
ENDMDL
MODEL 7
REMARK VINA RESULT:      -7.5      1.506      2.161
REMARK  Name = 
REMARK  3 active torsions:
REMARK  status: ('A' for Active; 'I' for Inactive)
REMARK    1  A    between atoms: C_4  and  S_5
REMARK    2  A    between atoms: S_5  and  C_6
REMARK    3  A    between atoms: C_6  and  C_7
REMARK                            x       y       z     vdW  Elec       q    Type
REMARK                         _______ _______ _______ _____ _____    ______ ____
ROOT
ATOM      1  N   UNL     1       7.233   5.299  19.529  0.00  0.00    +0.000 N 
ATOM      2  C   UNL     1       6.777   4.957  18.269  0.00  0.00    +0.000 A 
ATOM      3  N   UNL     1       5.593   4.315  18.196  0.00  0.00    +0.000 NA
ATOM      4  C   UNL     1       5.104   3.997  16.979  0.00  0.00    +0.000 A 
ATOM      5  C   UNL     1       5.866   4.331  15.882  0.00  0.00    +0.000 A 
ATOM      6  N   UNL     1       5.726   4.202  14.528  0.00  0.00    +0.000 N 
ATOM      7  C   UNL     1       6.846   4.726  13.946  0.00  0.00    +0.000 A 
ATOM      8  N   UNL     1       7.691   5.184  14.845  0.00  0.00    +0.000 NA
ATOM      9  C   UNL     1       7.085   4.952  16.052  0.00  0.00    +0.000 A 
ATOM     10  N   UNL     1       7.580   5.277  17.254  0.00  0.00    +0.000 NA
ATOM     11  H   UNL     1       6.842   4.699  20.239  0.00  0.00    +0.000 HD
ATOM     12  H   UNL     1       8.237   5.421  19.510  0.00  0.00    +0.000 HD
ATOM     13  H   UNL     1       4.932   3.796  14.051  0.00  0.00    +0.000 HD
ENDROOT
BRANCH   4  14
ATOM     14  S   UNL     1       3.557   3.177  16.734  0.00  0.00    +0.000 S 
BRANCH  14  15
ATOM     15  C   UNL     1       2.385   4.331  17.519  0.00  0.00    +0.000 C 
BRANCH  15  16
ATOM     16  C   UNL     1       2.207   4.002  18.990  0.00  0.00    +0.000 A 
ATOM     17  C   UNL     1       1.868   2.687  19.365  0.00  0.00    +0.000 A 
ATOM     18  C   UNL     1       1.692   2.341  20.708  0.00  0.00    +0.000 A 
ATOM     19  C   UNL     1       1.846   3.301  21.703  0.00  0.00    +0.000 A 
ATOM     20  C   UNL     1       2.165   4.613  21.352  0.00  0.00    +0.000 A 
ATOM     21  C   UNL     1       2.338   4.964  20.006  0.00  0.00    +0.000 A 
ATOM     22 CL   UNL     1       2.710   6.616  19.661  0.00  0.00    +0.000 Cl
ENDBRANCH  15  16
ENDBRANCH  14  15
ENDBRANCH   4  14
TORSDOF 3
ENDMDL
MODEL 8
REMARK VINA RESULT:      -7.3      1.477      1.857
REMARK  Name = 
REMARK  3 active torsions:
REMARK  status: ('A' for Active; 'I' for Inactive)
REMARK    1  A    between atoms: C_4  and  S_5
REMARK    2  A    between atoms: S_5  and  C_6
REMARK    3  A    between atoms: C_6  and  C_7
REMARK                            x       y       z     vdW  Elec       q    Type
REMARK                         _______ _______ _______ _____ _____    ______ ____
ROOT
ATOM      1  N   UNL     1       7.841   6.860  18.545  0.00  0.00    +0.000 N 
ATOM      2  C   UNL     1       7.261   6.008  17.624  0.00  0.00    +0.000 A 
ATOM      3  N   UNL     1       6.334   5.143  18.083  0.00  0.00    +0.000 NA
ATOM      4  C   UNL     1       5.724   4.320  17.203  0.00  0.00    +0.000 A 
ATOM      5  C   UNL     1       6.112   4.403  15.885  0.00  0.00    +0.000 A 
ATOM      6  N   UNL     1       5.744   3.779  14.726  0.00  0.00    +0.000 N 
ATOM      7  C   UNL     1       6.513   4.292  13.719  0.00  0.00    +0.000 A 
ATOM      8  N   UNL     1       7.348   5.206  14.165  0.00  0.00    +0.000 NA
ATOM      9  C   UNL     1       7.098   5.290  15.510  0.00  0.00    +0.000 A 
ATOM     10  N   UNL     1       7.707   6.115  16.372  0.00  0.00    +0.000 NA
ATOM     11  H   UNL     1       7.800   6.479  19.478  0.00  0.00    +0.000 HD
ATOM     12  H   UNL     1       8.737   7.180  18.202  0.00  0.00    +0.000 HD
ATOM     13  H   UNL     1       5.027   3.071  14.636  0.00  0.00    +0.000 HD
ENDROOT
BRANCH   4  14
ATOM     14  S   UNL     1       4.476   3.155  17.662  0.00  0.00    +0.000 S 
BRANCH  14  15
ATOM     15  C   UNL     1       2.945   4.071  17.293  0.00  0.00    +0.000 C 
BRANCH  15  16
ATOM     16  C   UNL     1       2.468   4.839  18.513  0.00  0.00    +0.000 A 
ATOM     17  C   UNL     1       1.718   4.167  19.498  0.00  0.00    +0.000 A 
ATOM     18  C   UNL     1       1.256   4.836  20.636  0.00  0.00    +0.000 A 
ATOM     19  C   UNL     1       1.529   6.190  20.810  0.00  0.00    +0.000 A 
ATOM     20  C   UNL     1       2.255   6.877  19.837  0.00  0.00    +0.000 A 
ATOM     21  C   UNL     1       2.716   6.210  18.694  0.00  0.00    +0.000 A 
ATOM     22 CL   UNL     1       3.588   7.145  17.531  0.00  0.00    +0.000 Cl
ENDBRANCH  15  16
ENDBRANCH  14  15
ENDBRANCH   4  14
TORSDOF 3
ENDMDL
MODEL 9
REMARK VINA RESULT:      -7.3      1.828      2.392
REMARK  Name = 
REMARK  3 active torsions:
REMARK  status: ('A' for Active; 'I' for Inactive)
REMARK    1  A    between atoms: C_4  and  S_5
REMARK    2  A    between atoms: S_5  and  C_6
REMARK    3  A    between atoms: C_6  and  C_7
REMARK                            x       y       z     vdW  Elec       q    Type
REMARK                         _______ _______ _______ _____ _____    ______ ____
ROOT
ATOM      1  N   UNL     1       8.142   5.249  19.967  0.00  0.00    +0.000 N 
ATOM      2  C   UNL     1       7.333   5.337  18.850  0.00  0.00    +0.000 A 
ATOM      3  N   UNL     1       6.108   5.876  19.018  0.00  0.00    +0.000 NA
ATOM      4  C   UNL     1       5.306   6.007  17.940  0.00  0.00    +0.000 A 
ATOM      5  C   UNL     1       5.787   5.553  16.733  0.00  0.00    +0.000 A 
ATOM      6  N   UNL     1       5.311   5.516  15.452  0.00  0.00    +0.000 N 
ATOM      7  C   UNL     1       6.266   4.922  14.675  0.00  0.00    +0.000 A 
ATOM      8  N   UNL     1       7.321   4.579  15.380  0.00  0.00    +0.000 NA
ATOM      9  C   UNL     1       7.037   4.978  16.661  0.00  0.00    +0.000 A 
ATOM     10  N   UNL     1       7.845   4.847  17.721  0.00  0.00    +0.000 NA
ATOM     11  H   UNL     1       7.599   5.228  20.817  0.00  0.00    +0.000 HD
ATOM     12  H   UNL     1       8.839   4.529  19.832  0.00  0.00    +0.000 HD
ATOM     13  H   UNL     1       4.416   5.872  15.142  0.00  0.00    +0.000 HD
ENDROOT
BRANCH   4  14
ATOM     14  S   UNL     1       3.688   6.717  18.010  0.00  0.00    +0.000 S 
BRANCH  14  15
ATOM     15  C   UNL     1       2.620   5.250  17.845  0.00  0.00    +0.000 C 
BRANCH  15  16
ATOM     16  C   UNL     1       2.699   4.381  19.088  0.00  0.00    +0.000 A 
ATOM     17  C   UNL     1       3.277   3.099  18.995  0.00  0.00    +0.000 A 
ATOM     18  C   UNL     1       3.367   2.266  20.113  0.00  0.00    +0.000 A 
ATOM     19  C   UNL     1       2.879   2.692  21.345  0.00  0.00    +0.000 A 
ATOM     20  C   UNL     1       2.288   3.951  21.454  0.00  0.00    +0.000 A 
ATOM     21  C   UNL     1       2.193   4.788  20.334  0.00  0.00    +0.000 A 
ATOM     22 CL   UNL     1       1.426   6.321  20.555  0.00  0.00    +0.000 Cl
ENDBRANCH  15  16
ENDBRANCH  14  15
ENDBRANCH   4  14
TORSDOF 3
ENDMDL
