MODEL 1
REMARK VINA RESULT:      -7.0      0.000      0.000
REMARK  Name = 
REMARK  7 active torsions:
REMARK  status: ('A' for Active; 'I' for Inactive)
REMARK    1  A    between atoms: C_1  and  C_2
REMARK    2  A    between atoms: C_6  and  C_7
REMARK    3  A    between atoms: C_16  and  O_18
REMARK    4  A    between atoms: O_18  and  C_19
REMARK    5  A    between atoms: C_19  and  C_20
REMARK    6  A    between atoms: C_19  and  C_21
REMARK    7  A    between atoms: C_19  and  C_22
REMARK                            x       y       z     vdW  Elec       q    Type
REMARK                         _______ _______ _______ _____ _____    ______ ____
ROOT
ATOM      1  C   UNL     1      -2.427  11.775  18.887  0.00  0.00    +0.000 C 
ATOM      2  O   UNL     1      -3.043  12.551  19.612  0.00  0.00    +0.000 OA
ATOM      3  N   UNL     1      -1.161  11.307  19.226  0.00  0.00    +0.000 N 
ATOM      4  C   UNL     1      -0.512  11.728  20.445  0.00  0.00    +0.000 C 
ATOM      5  C   UNL     1       0.937  11.308  20.230  0.00  0.00    +0.000 C 
ATOM      6  C   UNL     1       0.881  10.109  19.253  0.00  0.00    +0.000 C 
ATOM      7  C   UNL     1       1.809  10.342  18.024  0.00  0.00    +0.000 C 
ATOM      8  C   UNL     1       2.737   9.141  17.971  0.00  0.00    +0.000 C 
ATOM      9  N   UNL     1       2.087   8.143  18.780  0.00  0.00    +0.000 N 
ATOM     10  C   UNL     1       2.437   6.823  18.643  0.00  0.00    +0.000 C 
ATOM     11  O   UNL     1       3.281   6.465  17.826  0.00  0.00    +0.000 OA
ATOM     12  C   UNL     1       1.323   8.759  19.841  0.00  0.00    +0.000 C 
ATOM     13  C   UNL     1      -0.593  10.038  18.817  0.00  0.00    +0.000 C 
ENDROOT
BRANCH   1  19
ATOM     14  C   UNL     1      -5.483  10.897  18.295  0.00  0.00    +0.000 C 
ATOM     15  C   UNL     1      -4.302  10.900  17.393  0.00  0.00    +0.000 A 
ATOM     16  N   UNL     1      -4.398  10.438  16.101  0.00  0.00    +0.000 N 
ATOM     17  C   UNL     1      -3.203  10.601  15.459  0.00  0.00    +0.000 A 
ATOM     18  C   UNL     1      -2.335  11.192  16.345  0.00  0.00    +0.000 A 
ATOM     19  C   UNL     1      -2.986  11.295  17.615  0.00  0.00    +0.000 A 
ATOM     20  H   UNL     1      -5.234  10.052  15.682  0.00  0.00    +0.000 HD
ENDBRANCH   1  19
BRANCH  10  21
ATOM     21  O   UNL     1       1.742   5.977  19.455  0.00  0.00    +0.000 OA
BRANCH  21  22
ATOM     22  C   UNL     1       1.938   4.542  19.281  0.00  0.00    +0.000 C 
ATOM     23  C   UNL     1       3.348   4.119  19.720  0.00  0.00    +0.000 C 
ATOM     24  C   UNL     1       0.926   3.842  20.205  0.00  0.00    +0.000 C 
ATOM     25  C   UNL     1       1.623   4.098  17.841  0.00  0.00    +0.000 C 
ENDBRANCH  21  22
ENDBRANCH  10  21
TORSDOF 3
ENDMDL
MODEL 2
REMARK VINA RESULT:      -6.9      4.340      7.339
REMARK  Name = 
REMARK  7 active torsions:
REMARK  status: ('A' for Active; 'I' for Inactive)
REMARK    1  A    between atoms: C_1  and  C_2
REMARK    2  A    between atoms: C_6  and  C_7
REMARK    3  A    between atoms: C_16  and  O_18
REMARK    4  A    between atoms: O_18  and  C_19
REMARK    5  A    between atoms: C_19  and  C_20
REMARK    6  A    between atoms: C_19  and  C_21
REMARK    7  A    between atoms: C_19  and  C_22
REMARK                            x       y       z     vdW  Elec       q    Type
REMARK                         _______ _______ _______ _____ _____    ______ ____
ROOT
ATOM      1  C   UNL     1       2.273   5.970  19.725  0.00  0.00    +0.000 C 
ATOM      2  O   UNL     1       1.525   5.487  20.571  0.00  0.00    +0.000 OA
ATOM      3  N   UNL     1       3.327   5.242  19.181  0.00  0.00    +0.000 N 
ATOM      4  C   UNL     1       3.593   3.886  19.600  0.00  0.00    +0.000 C 
ATOM      5  C   UNL     1       4.997   3.627  19.069  0.00  0.00    +0.000 C 
ATOM      6  C   UNL     1       5.154   4.554  17.841  0.00  0.00    +0.000 C 
ATOM      7  C   UNL     1       6.436   5.431  17.958  0.00  0.00    +0.000 C 
ATOM      8  C   UNL     1       7.234   5.171  16.693  0.00  0.00    +0.000 C 
ATOM      9  N   UNL     1       6.285   4.595  15.776  0.00  0.00    +0.000 N 
ATOM     10  C   UNL     1       6.553   4.595  14.430  0.00  0.00    +0.000 C 
ATOM     11  O   UNL     1       7.579   5.099  13.980  0.00  0.00    +0.000 OA
ATOM     12  C   UNL     1       5.279   3.838  16.486  0.00  0.00    +0.000 C 
ATOM     13  C   UNL     1       3.890   5.433  17.859  0.00  0.00    +0.000 C 
ENDROOT
BRANCH   1  19
ATOM     14  C   UNL     1       1.184   8.520  21.389  0.00  0.00    +0.000 C 
ATOM     15  C   UNL     1       1.610   8.422  19.969  0.00  0.00    +0.000 A 
ATOM     16  N   UNL     1       1.531   9.509  19.129  0.00  0.00    +0.000 N 
ATOM     17  C   UNL     1       2.036   9.187  17.902  0.00  0.00    +0.000 A 
ATOM     18  C   UNL     1       2.462   7.883  17.960  0.00  0.00    +0.000 A 
ATOM     19  C   UNL     1       2.104   7.346  19.237  0.00  0.00    +0.000 A 
ATOM     20  H   UNL     1       1.169  10.418  19.388  0.00  0.00    +0.000 HD
ENDBRANCH   1  19
BRANCH  10  21
ATOM     21  O   UNL     1       5.572   4.033  13.668  0.00  0.00    +0.000 OA
BRANCH  21  22
ATOM     22  C   UNL     1       5.911   3.612  12.313  0.00  0.00    +0.000 C 
ATOM     23  C   UNL     1       6.425   2.164  12.297  0.00  0.00    +0.000 C 
ATOM     24  C   UNL     1       4.608   3.659  11.497  0.00  0.00    +0.000 C 
ATOM     25  C   UNL     1       6.901   4.585  11.649  0.00  0.00    +0.000 C 
ENDBRANCH  21  22
ENDBRANCH  10  21
TORSDOF 3
ENDMDL
MODEL 3
REMARK VINA RESULT:      -6.8      8.966     12.547
REMARK  Name = 
REMARK  7 active torsions:
REMARK  status: ('A' for Active; 'I' for Inactive)
REMARK    1  A    between atoms: C_1  and  C_2
REMARK    2  A    between atoms: C_6  and  C_7
REMARK    3  A    between atoms: C_16  and  O_18
REMARK    4  A    between atoms: O_18  and  C_19
REMARK    5  A    between atoms: C_19  and  C_20
REMARK    6  A    between atoms: C_19  and  C_21
REMARK    7  A    between atoms: C_19  and  C_22
REMARK                            x       y       z     vdW  Elec       q    Type
REMARK                         _______ _______ _______ _____ _____    ______ ____
ROOT
ATOM      1  C   UNL     1      10.830  13.481  17.223  0.00  0.00    +0.000 C 
ATOM      2  O   UNL     1      11.588  13.315  16.270  0.00  0.00    +0.000 OA
ATOM      3  N   UNL     1      10.394  14.749  17.598  0.00  0.00    +0.000 N 
ATOM      4  C   UNL     1      10.826  15.927  16.885  0.00  0.00    +0.000 C 
ATOM      5  C   UNL     1      10.444  17.062  17.827  0.00  0.00    +0.000 C 
ATOM      6  C   UNL     1       9.249  16.532  18.653  0.00  0.00    +0.000 C 
ATOM      7  C   UNL     1       9.510  16.683  20.181  0.00  0.00    +0.000 C 
ATOM      8  C   UNL     1       8.335  17.472  20.727  0.00  0.00    +0.000 C 
ATOM      9  N   UNL     1       7.316  17.356  19.717  0.00  0.00    +0.000 N 
ATOM     10  C   UNL     1       6.007  17.611  20.037  0.00  0.00    +0.000 C 
ATOM     11  O   UNL     1       5.674  17.915  21.179  0.00  0.00    +0.000 OA
ATOM     12  C   UNL     1       7.908  17.242  18.402  0.00  0.00    +0.000 C 
ATOM     13  C   UNL     1       9.141  15.047  18.263  0.00  0.00    +0.000 C 
ENDROOT
BRANCH   1  19
ATOM     14  C   UNL     1      12.211  12.210  19.857  0.00  0.00    +0.000 C 
ATOM     15  C   UNL     1      10.968  11.810  19.146  0.00  0.00    +0.000 A 
ATOM     16  N   UNL     1      10.237  10.720  19.559  0.00  0.00    +0.000 N 
ATOM     17  C   UNL     1       9.115  10.596  18.791  0.00  0.00    +0.000 A 
ATOM     18  C   UNL     1       9.115  11.629  17.887  0.00  0.00    +0.000 A 
ATOM     19  C   UNL     1      10.341  12.354  18.029  0.00  0.00    +0.000 A 
ATOM     20  H   UNL     1      10.485  10.112  20.329  0.00  0.00    +0.000 HD
ENDBRANCH   1  19
BRANCH  10  21
ATOM     21  O   UNL     1       5.140  17.454  18.997  0.00  0.00    +0.000 OA
BRANCH  21  22
ATOM     22  C   UNL     1       4.248  16.300  19.014  0.00  0.00    +0.000 C 
ATOM     23  C   UNL     1       4.928  15.085  19.666  0.00  0.00    +0.000 C 
ATOM     24  C   UNL     1       3.040  16.687  19.885  0.00  0.00    +0.000 C 
ATOM     25  C   UNL     1       3.711  15.977  17.609  0.00  0.00    +0.000 C 
ENDBRANCH  21  22
ENDBRANCH  10  21
TORSDOF 3
ENDMDL
MODEL 4
REMARK VINA RESULT:      -6.7      3.839      6.226
REMARK  Name = 
REMARK  7 active torsions:
REMARK  status: ('A' for Active; 'I' for Inactive)
REMARK    1  A    between atoms: C_1  and  C_2
REMARK    2  A    between atoms: C_6  and  C_7
REMARK    3  A    between atoms: C_16  and  O_18
REMARK    4  A    between atoms: O_18  and  C_19
REMARK    5  A    between atoms: C_19  and  C_20
REMARK    6  A    between atoms: C_19  and  C_21
REMARK    7  A    between atoms: C_19  and  C_22
REMARK                            x       y       z     vdW  Elec       q    Type
REMARK                         _______ _______ _______ _____ _____    ______ ____
ROOT
ATOM      1  C   UNL     1      -5.966  11.747  18.073  0.00  0.00    +0.000 C 
ATOM      2  O   UNL     1      -6.751  11.941  17.149  0.00  0.00    +0.000 OA
ATOM      3  N   UNL     1      -4.604  11.567  17.848  0.00  0.00    +0.000 N 
ATOM      4  C   UNL     1      -4.059  11.589  16.511  0.00  0.00    +0.000 C 
ATOM      5  C   UNL     1      -2.671  10.987  16.692  0.00  0.00    +0.000 C 
ATOM      6  C   UNL     1      -2.272  11.296  18.155  0.00  0.00    +0.000 C 
ATOM      7  C   UNL     1      -1.842  10.001  18.905  0.00  0.00    +0.000 C 
ATOM      8  C   UNL     1      -0.453  10.278  19.452  0.00  0.00    +0.000 C 
ATOM      9  N   UNL     1      -0.329  11.712  19.418  0.00  0.00    +0.000 N 
ATOM     10  C   UNL     1       0.625  12.330  20.187  0.00  0.00    +0.000 C 
ATOM     11  O   UNL     1       1.367  11.690  20.927  0.00  0.00    +0.000 OA
ATOM     12  C   UNL     1      -1.093  12.269  18.325  0.00  0.00    +0.000 C 
ATOM     13  C   UNL     1      -3.544  11.893  18.782  0.00  0.00    +0.000 C 
ENDROOT
BRANCH   1  19
ATOM     14  C   UNL     1      -7.119   9.174  19.657  0.00  0.00    +0.000 C 
ATOM     15  C   UNL     1      -6.928  10.572  20.123  0.00  0.00    +0.000 A 
ATOM     16  N   UNL     1      -7.307  10.953  21.390  0.00  0.00    +0.000 N 
ATOM     17  C   UNL     1      -6.975  12.260  21.601  0.00  0.00    +0.000 A 
ATOM     18  C   UNL     1      -6.358  12.720  20.463  0.00  0.00    +0.000 A 
ATOM     19  C   UNL     1      -6.413  11.689  19.472  0.00  0.00    +0.000 A 
ATOM     20  H   UNL     1      -7.749  10.349  22.071  0.00  0.00    +0.000 HD
ENDBRANCH   1  19
BRANCH  10  21
ATOM     21  O   UNL     1       0.632  13.689  20.076  0.00  0.00    +0.000 OA
BRANCH  21  22
ATOM     22  C   UNL     1       1.828  14.329  19.537  0.00  0.00    +0.000 C 
ATOM     23  C   UNL     1       2.918  14.459  20.612  0.00  0.00    +0.000 C 
ATOM     24  C   UNL     1       2.364  13.402  18.432  0.00  0.00    +0.000 C 
ATOM     25  C   UNL     1       1.500  15.680  18.879  0.00  0.00    +0.000 C 
ENDBRANCH  21  22
ENDBRANCH  10  21
TORSDOF 3
ENDMDL
MODEL 5
REMARK VINA RESULT:      -6.6      8.529     12.156
REMARK  Name = 
REMARK  7 active torsions:
REMARK  status: ('A' for Active; 'I' for Inactive)
REMARK    1  A    between atoms: C_1  and  C_2
REMARK    2  A    between atoms: C_6  and  C_7
REMARK    3  A    between atoms: C_16  and  O_18
REMARK    4  A    between atoms: O_18  and  C_19
REMARK    5  A    between atoms: C_19  and  C_20
REMARK    6  A    between atoms: C_19  and  C_21
REMARK    7  A    between atoms: C_19  and  C_22
REMARK                            x       y       z     vdW  Elec       q    Type
REMARK                         _______ _______ _______ _____ _____    ______ ____
ROOT
ATOM      1  C   UNL     1      10.420  13.560  17.635  0.00  0.00    +0.000 C 
ATOM      2  O   UNL     1      11.230  13.407  16.724  0.00  0.00    +0.000 OA
ATOM      3  N   UNL     1       9.906  14.814  17.952  0.00  0.00    +0.000 N 
ATOM      4  C   UNL     1      10.317  15.994  17.229  0.00  0.00    +0.000 C 
ATOM      5  C   UNL     1       9.836  17.133  18.119  0.00  0.00    +0.000 C 
ATOM      6  C   UNL     1       8.628  16.566  18.902  0.00  0.00    +0.000 C 
ATOM      7  C   UNL     1       8.806  16.768  20.435  0.00  0.00    +0.000 C 
ATOM      8  C   UNL     1       7.569  17.514  20.903  0.00  0.00    +0.000 C 
ATOM      9  N   UNL     1       6.609  17.323  19.848  0.00  0.00    +0.000 N 
ATOM     10  C   UNL     1       5.274  17.522  20.097  0.00  0.00    +0.000 C 
ATOM     11  O   UNL     1       4.871  17.839  21.213  0.00  0.00    +0.000 OA
ATOM     12  C   UNL     1       7.269  17.204  18.567  0.00  0.00    +0.000 C 
ATOM     13  C   UNL     1       8.610  15.068  18.548  0.00  0.00    +0.000 C 
ENDROOT
BRANCH   1  19
ATOM     14  C   UNL     1      10.782  13.150  20.822  0.00  0.00    +0.000 C 
ATOM     15  C   UNL     1      10.135  12.267  19.816  0.00  0.00    +0.000 A 
ATOM     16  N   UNL     1       9.616  11.046  20.177  0.00  0.00    +0.000 N 
ATOM     17  C   UNL     1       9.024  10.455  19.097  0.00  0.00    +0.000 A 
ATOM     18  C   UNL     1       9.148  11.316  18.035  0.00  0.00    +0.000 A 
ATOM     19  C   UNL     1       9.945  12.431  18.447  0.00  0.00    +0.000 A 
ATOM     20  H   UNL     1       9.651  10.651  21.108  0.00  0.00    +0.000 HD
ENDBRANCH   1  19
BRANCH  10  21
ATOM     21  O   UNL     1       4.468  17.297  19.021  0.00  0.00    +0.000 OA
BRANCH  21  22
ATOM     22  C   UNL     1       3.781  16.013  18.934  0.00  0.00    +0.000 C 
ATOM     23  C   UNL     1       2.324  16.133  19.405  0.00  0.00    +0.000 C 
ATOM     24  C   UNL     1       3.765  15.621  17.447  0.00  0.00    +0.000 C 
ATOM     25  C   UNL     1       4.544  14.910  19.688  0.00  0.00    +0.000 C 
ENDBRANCH  21  22
ENDBRANCH  10  21
TORSDOF 3
ENDMDL
MODEL 6
REMARK VINA RESULT:      -6.5      4.041      6.331
REMARK  Name = 
REMARK  7 active torsions:
REMARK  status: ('A' for Active; 'I' for Inactive)
REMARK    1  A    between atoms: C_1  and  C_2
REMARK    2  A    between atoms: C_6  and  C_7
REMARK    3  A    between atoms: C_16  and  O_18
REMARK    4  A    between atoms: O_18  and  C_19
REMARK    5  A    between atoms: C_19  and  C_20
REMARK    6  A    between atoms: C_19  and  C_21
REMARK    7  A    between atoms: C_19  and  C_22
REMARK                            x       y       z     vdW  Elec       q    Type
REMARK                         _______ _______ _______ _____ _____    ______ ____
ROOT
ATOM      1  C   UNL     1      -5.388  11.721  18.306  0.00  0.00    +0.000 C 
ATOM      2  O   UNL     1      -6.158  11.699  17.350  0.00  0.00    +0.000 OA
ATOM      3  N   UNL     1      -4.017  11.539  18.144  0.00  0.00    +0.000 N 
ATOM      4  C   UNL     1      -3.444  11.303  16.840  0.00  0.00    +0.000 C 
ATOM      5  C   UNL     1      -2.045  10.793  17.162  0.00  0.00    +0.000 C 
ATOM      6  C   UNL     1      -1.686  11.405  18.536  0.00  0.00    +0.000 C 
ATOM      7  C   UNL     1      -1.240  10.304  19.543  0.00  0.00    +0.000 C 
ATOM      8  C   UNL     1       0.129  10.728  20.043  0.00  0.00    +0.000 C 
ATOM      9  N   UNL     1       0.218  12.127  19.719  0.00  0.00    +0.000 N 
ATOM     10  C   UNL     1       1.139  12.917  20.359  0.00  0.00    +0.000 C 
ATOM     11  O   UNL     1       1.881  12.464  21.226  0.00  0.00    +0.000 OA
ATOM     12  C   UNL     1      -0.537  12.427  18.523  0.00  0.00    +0.000 C 
ATOM     13  C   UNL     1      -2.987  12.080  19.009  0.00  0.00    +0.000 C 
ENDROOT
BRANCH   1  19
ATOM     14  C   UNL     1      -7.273   9.762  20.057  0.00  0.00    +0.000 C 
ATOM     15  C   UNL     1      -6.695  11.087  20.403  0.00  0.00    +0.000 A 
ATOM     16  N   UNL     1      -6.975  11.687  21.609  0.00  0.00    +0.000 N 
ATOM     17  C   UNL     1      -6.282  12.859  21.717  0.00  0.00    +0.000 A 
ATOM     18  C   UNL     1      -5.533  13.004  20.574  0.00  0.00    +0.000 A 
ATOM     19  C   UNL     1      -5.863  11.937  19.679  0.00  0.00    +0.000 A 
ATOM     20  H   UNL     1      -7.588  11.308  22.319  0.00  0.00    +0.000 HD
ENDBRANCH   1  19
BRANCH  10  21
ATOM     21  O   UNL     1       1.114  14.225  19.973  0.00  0.00    +0.000 OA
BRANCH  21  22
ATOM     22  C   UNL     1       2.305  14.776  19.336  0.00  0.00    +0.000 C 
ATOM     23  C   UNL     1       2.929  13.765  18.361  0.00  0.00    +0.000 C 
ATOM     24  C   UNL     1       1.846  15.997  18.520  0.00  0.00    +0.000 C 
ATOM     25  C   UNL     1       3.322  15.279  20.376  0.00  0.00    +0.000 C 
ENDBRANCH  21  22
ENDBRANCH  10  21
TORSDOF 3
ENDMDL
MODEL 7
REMARK VINA RESULT:      -6.5      3.562      8.391
REMARK  Name = 
REMARK  7 active torsions:
REMARK  status: ('A' for Active; 'I' for Inactive)
REMARK    1  A    between atoms: C_1  and  C_2
REMARK    2  A    between atoms: C_6  and  C_7
REMARK    3  A    between atoms: C_16  and  O_18
REMARK    4  A    between atoms: O_18  and  C_19
REMARK    5  A    between atoms: C_19  and  C_20
REMARK    6  A    between atoms: C_19  and  C_21
REMARK    7  A    between atoms: C_19  and  C_22
REMARK                            x       y       z     vdW  Elec       q    Type
REMARK                         _______ _______ _______ _____ _____    ______ ____
ROOT
ATOM      1  C   UNL     1       5.650   5.129  18.386  0.00  0.00    +0.000 C 
ATOM      2  O   UNL     1       5.902   3.927  18.419  0.00  0.00    +0.000 OA
ATOM      3  N   UNL     1       4.343   5.603  18.442  0.00  0.00    +0.000 N 
ATOM      4  C   UNL     1       3.223   4.696  18.530  0.00  0.00    +0.000 C 
ATOM      5  C   UNL     1       2.031   5.580  18.185  0.00  0.00    +0.000 C 
ATOM      6  C   UNL     1       2.447   7.014  18.590  0.00  0.00    +0.000 C 
ATOM      7  C   UNL     1       2.261   8.009  17.407  0.00  0.00    +0.000 C 
ATOM      8  C   UNL     1       1.372   9.121  17.936  0.00  0.00    +0.000 C 
ATOM      9  N   UNL     1       1.453   9.002  19.368  0.00  0.00    +0.000 N 
ATOM     10  C   UNL     1       1.096  10.063  20.160  0.00  0.00    +0.000 C 
ATOM     11  O   UNL     1       0.729  11.130  19.676  0.00  0.00    +0.000 OA
ATOM     12  C   UNL     1       1.655   7.625  19.758  0.00  0.00    +0.000 C 
ATOM     13  C   UNL     1       3.934   6.890  18.968  0.00  0.00    +0.000 C 
ENDROOT
BRANCH   1  19
ATOM     14  C   UNL     1       8.296   5.392  20.226  0.00  0.00    +0.000 C 
ATOM     15  C   UNL     1       7.830   6.245  19.103  0.00  0.00    +0.000 A 
ATOM     16  N   UNL     1       8.529   7.370  18.731  0.00  0.00    +0.000 N 
ATOM     17  C   UNL     1       7.939   7.945  17.642  0.00  0.00    +0.000 A 
ATOM     18  C   UNL     1       6.859   7.170  17.298  0.00  0.00    +0.000 A 
ATOM     19  C   UNL     1       6.711   6.140  18.281  0.00  0.00    +0.000 A 
ATOM     20  H   UNL     1       9.367   7.710  19.185  0.00  0.00    +0.000 HD
ENDBRANCH   1  19
BRANCH  10  21
ATOM     21  O   UNL     1       1.229   9.829  21.497  0.00  0.00    +0.000 OA
BRANCH  21  22
ATOM     22  C   UNL     1       0.015   9.706  22.297  0.00  0.00    +0.000 C 
ATOM     23  C   UNL     1      -0.881   8.574  21.773  0.00  0.00    +0.000 C 
ATOM     24  C   UNL     1       0.461   9.334  23.722  0.00  0.00    +0.000 C 
ATOM     25  C   UNL     1      -0.739  11.045  22.390  0.00  0.00    +0.000 C 
ENDBRANCH  21  22
ENDBRANCH  10  21
TORSDOF 3
ENDMDL
MODEL 8
REMARK VINA RESULT:      -6.4      2.008      7.423
REMARK  Name = 
REMARK  7 active torsions:
REMARK  status: ('A' for Active; 'I' for Inactive)
REMARK    1  A    between atoms: C_1  and  C_2
REMARK    2  A    between atoms: C_6  and  C_7
REMARK    3  A    between atoms: C_16  and  O_18
REMARK    4  A    between atoms: O_18  and  C_19
REMARK    5  A    between atoms: C_19  and  C_20
REMARK    6  A    between atoms: C_19  and  C_21
REMARK    7  A    between atoms: C_19  and  C_22
REMARK                            x       y       z     vdW  Elec       q    Type
REMARK                         _______ _______ _______ _____ _____    ______ ____
ROOT
ATOM      1  C   UNL     1       3.115   4.715  17.984  0.00  0.00    +0.000 C 
ATOM      2  O   UNL     1       4.064   4.190  17.407  0.00  0.00    +0.000 OA
ATOM      3  N   UNL     1       2.969   6.098  18.040  0.00  0.00    +0.000 N 
ATOM      4  C   UNL     1       3.938   6.977  17.429  0.00  0.00    +0.000 C 
ATOM      5  C   UNL     1       3.612   8.333  18.041  0.00  0.00    +0.000 C 
ATOM      6  C   UNL     1       2.110   8.274  18.406  0.00  0.00    +0.000 C 
ATOM      7  C   UNL     1       1.879   8.659  19.897  0.00  0.00    +0.000 C 
ATOM      8  C   UNL     1       0.872   9.795  19.882  0.00  0.00    +0.000 C 
ATOM      9  N   UNL     1       0.263   9.725  18.580  0.00  0.00    +0.000 N 
ATOM     10  C   UNL     1      -0.943  10.339  18.358  0.00  0.00    +0.000 C 
ATOM     11  O   UNL     1      -1.534  10.934  19.256  0.00  0.00    +0.000 OA
ATOM     12  C   UNL     1       1.198   9.216  17.602  0.00  0.00    +0.000 C 
ATOM     13  C   UNL     1       1.711   6.809  18.154  0.00  0.00    +0.000 C 
ENDROOT
BRANCH   1  19
ATOM     14  C   UNL     1       2.295   4.799  21.111  0.00  0.00    +0.000 C 
ATOM     15  C   UNL     1       1.761   3.956  20.009  0.00  0.00    +0.000 A 
ATOM     16  N   UNL     1       0.801   3.002  20.251  0.00  0.00    +0.000 N 
ATOM     17  C   UNL     1       0.431   2.407  19.078  0.00  0.00    +0.000 A 
ATOM     18  C   UNL     1       1.150   3.000  18.069  0.00  0.00    +0.000 A 
ATOM     19  C   UNL     1       2.079   3.918  18.654  0.00  0.00    +0.000 A 
ATOM     20  H   UNL     1       0.412   2.785  21.159  0.00  0.00    +0.000 HD
ENDBRANCH   1  19
BRANCH  10  21
ATOM     21  O   UNL     1      -1.419  10.188  17.090  0.00  0.00    +0.000 OA
BRANCH  21  22
ATOM     22  C   UNL     1      -2.865  10.168  16.896  0.00  0.00    +0.000 C 
ATOM     23  C   UNL     1      -3.452  11.586  16.972  0.00  0.00    +0.000 C 
ATOM     24  C   UNL     1      -3.114   9.630  15.477  0.00  0.00    +0.000 C 
ATOM     25  C   UNL     1      -3.555   9.204  17.877  0.00  0.00    +0.000 C 
ENDBRANCH  21  22
ENDBRANCH  10  21
TORSDOF 3
ENDMDL
MODEL 9
REMARK VINA RESULT:      -6.3      3.689      5.380
REMARK  Name = 
REMARK  7 active torsions:
REMARK  status: ('A' for Active; 'I' for Inactive)
REMARK    1  A    between atoms: C_1  and  C_2
REMARK    2  A    between atoms: C_6  and  C_7
REMARK    3  A    between atoms: C_16  and  O_18
REMARK    4  A    between atoms: O_18  and  C_19
REMARK    5  A    between atoms: C_19  and  C_20
REMARK    6  A    between atoms: C_19  and  C_21
REMARK    7  A    between atoms: C_19  and  C_22
REMARK                            x       y       z     vdW  Elec       q    Type
REMARK                         _______ _______ _______ _____ _____    ______ ____
ROOT
ATOM      1  C   UNL     1      -5.940  12.326  21.246  0.00  0.00    +0.000 C 
ATOM      2  O   UNL     1      -6.796  12.037  22.077  0.00  0.00    +0.000 OA
ATOM      3  N   UNL     1      -4.683  12.791  21.623  0.00  0.00    +0.000 N 
ATOM      4  C   UNL     1      -4.338  12.965  23.014  0.00  0.00    +0.000 C 
ATOM      5  C   UNL     1      -3.079  13.821  22.956  0.00  0.00    +0.000 C 
ATOM      6  C   UNL     1      -2.426  13.507  21.589  0.00  0.00    +0.000 C 
ATOM      7  C   UNL     1      -2.151  14.811  20.784  0.00  0.00    +0.000 C 
ATOM      8  C   UNL     1      -0.672  14.786  20.444  0.00  0.00    +0.000 C 
ATOM      9  N   UNL     1      -0.281  13.412  20.622  0.00  0.00    +0.000 N 
ATOM     10  C   UNL     1       0.872  12.951  20.039  0.00  0.00    +0.000 C 
ATOM     11  O   UNL     1       1.574  13.679  19.343  0.00  0.00    +0.000 OA
ATOM     12  C   UNL     1      -1.072  12.783  21.656  0.00  0.00    +0.000 C 
ATOM     13  C   UNL     1      -3.460  12.627  20.862  0.00  0.00    +0.000 C 
ENDROOT
BRANCH   1  19
ATOM     14  C   UNL     1      -6.964   9.707  19.649  0.00  0.00    +0.000 C 
ATOM     15  C   UNL     1      -6.607  11.055  19.136  0.00  0.00    +0.000 A 
ATOM     16  N   UNL     1      -6.639  11.331  17.789  0.00  0.00    +0.000 N 
ATOM     17  C   UNL     1      -6.332  12.645  17.575  0.00  0.00    +0.000 A 
ATOM     18  C   UNL     1      -6.121  13.225  18.802  0.00  0.00    +0.000 A 
ATOM     19  C   UNL     1      -6.188  12.204  19.803  0.00  0.00    +0.000 A 
ATOM     20  H   UNL     1      -6.872  10.664  17.064  0.00  0.00    +0.000 HD
ENDBRANCH   1  19
BRANCH  10  21
ATOM     21  O   UNL     1       1.123  11.631  20.271  0.00  0.00    +0.000 OA
BRANCH  21  22
ATOM     22  C   UNL     1       0.823  10.677  19.210  0.00  0.00    +0.000 C 
ATOM     23  C   UNL     1       1.959  10.624  18.176  0.00  0.00    +0.000 C 
ATOM     24  C   UNL     1       0.726   9.292  19.874  0.00  0.00    +0.000 C 
ATOM     25  C   UNL     1      -0.540  10.966  18.557  0.00  0.00    +0.000 C 
ENDBRANCH  21  22
ENDBRANCH  10  21
TORSDOF 3
ENDMDL
