MODEL 1
REMARK VINA RESULT:      -6.6      0.000      0.000
REMARK  Name = 
REMARK  7 active torsions:
REMARK  status: ('A' for Active; 'I' for Inactive)
REMARK    1  A    between atoms: C_1  and  C_2
REMARK    2  A    between atoms: C_2  and  C_3
REMARK    3  A    between atoms: C_2  and  C_4
REMARK    4  A    between atoms: C_18  and  O_19
REMARK    5  A    between atoms: O_19  and  C_20
REMARK    6  A    between atoms: C_20  and  C_21
REMARK    7  A    between atoms: C_21  and  N_22
REMARK                            x       y       z     vdW  Elec       q    Type
REMARK                         _______ _______ _______ _____ _____    ______ ____
ROOT
ATOM      1  C   UNL     1      -3.495  11.818  18.896  0.00  0.00    +0.000 A 
ATOM      2  C   UNL     1      -4.624  12.607  19.067  0.00  0.00    +0.000 A 
ATOM      3  S   UNL     1      -4.709  13.340  20.586  0.00  0.00    +0.000 S 
ATOM      4  C   UNL     1      -3.207  12.699  21.046  0.00  0.00    +0.000 A 
ATOM      5  N   UNL     1      -2.773  12.984  22.283  0.00  0.00    +0.000 NA
ATOM      6  C   UNL     1      -1.575  12.483  22.531  0.00  0.00    +0.000 A 
ATOM      7  N   UNL     1      -0.802  11.803  21.679  0.00  0.00    +0.000 NA
ATOM      8  C   UNL     1      -1.243  11.490  20.425  0.00  0.00    +0.000 A 
ATOM      9  N   UNL     1      -0.338  10.788  19.680  0.00  0.00    +0.000 N 
ATOM     10  C   UNL     1      -0.550  10.053  18.461  0.00  0.00    +0.000 C 
ATOM     11  C   UNL     1       0.858   9.709  18.012  0.00  0.00    +0.000 C 
ATOM     12  C   UNL     1       1.602  10.983  18.414  0.00  0.00    +0.000 C 
ATOM     13  C   UNL     1       1.118  10.899  19.870  0.00  0.00    +0.000 C 
ATOM     14  C   UNL     1       1.630   9.505  20.274  0.00  0.00    +0.000 C 
ATOM     15  C   UNL     1       1.401   8.677  18.987  0.00  0.00    +0.000 C 
ATOM     16  C   UNL     1      -2.571  11.935  20.059  0.00  0.00    +0.000 A 
ENDROOT
BRANCH   1  18
ATOM     17  C   UNL     1      -3.608   9.504  17.765  0.00  0.00    +0.000 C 
ATOM     18  C   UNL     1      -3.329  10.997  17.626  0.00  0.00    +0.000 C 
ATOM     19  C   UNL     1      -4.129  11.564  16.442  0.00  0.00    +0.000 C 
ENDBRANCH   1  18
BRANCH  15  20
ATOM     20  O   UNL     1       2.597   8.182  18.399  0.00  0.00    +0.000 OA
BRANCH  20  21
ATOM     21  C   UNL     1       2.575   6.769  18.293  0.00  0.00    +0.000 C 
BRANCH  21  22
ATOM     22  C   UNL     1       2.882   6.175  19.665  0.00  0.00    +0.000 C 
BRANCH  22  23
ATOM     23  N   UNL     1       1.897   5.154  20.019  0.00  0.00    +0.000 NA
ATOM     24  C   UNL     1       1.590   4.257  18.910  0.00  0.00    +0.000 C 
ATOM     25  C   UNL     1       0.877   3.124  19.624  0.00  0.00    +0.000 C 
ATOM     26  C   UNL     1       1.695   2.940  20.888  0.00  0.00    +0.000 C 
ATOM     27  F   UNL     1       0.890   2.592  21.920  0.00  0.00    +0.000 F 
ATOM     28  C   UNL     1       2.340   4.294  21.132  0.00  0.00    +0.000 C 
ENDBRANCH  22  23
ENDBRANCH  21  22
ENDBRANCH  20  21
ENDBRANCH  15  20
TORSDOF 5
ENDMDL
MODEL 2
REMARK VINA RESULT:      -6.5      6.480      9.596
REMARK  Name = 
REMARK  7 active torsions:
REMARK  status: ('A' for Active; 'I' for Inactive)
REMARK    1  A    between atoms: C_1  and  C_2
REMARK    2  A    between atoms: C_2  and  C_3
REMARK    3  A    between atoms: C_2  and  C_4
REMARK    4  A    between atoms: C_18  and  O_19
REMARK    5  A    between atoms: O_19  and  C_20
REMARK    6  A    between atoms: C_20  and  C_21
REMARK    7  A    between atoms: C_21  and  N_22
REMARK                            x       y       z     vdW  Elec       q    Type
REMARK                         _______ _______ _______ _____ _____    ______ ____
ROOT
ATOM      1  C   UNL     1       2.035   5.007  19.672  0.00  0.00    +0.000 A 
ATOM      2  C   UNL     1       0.911   4.409  20.227  0.00  0.00    +0.000 A 
ATOM      3  S   UNL     1       0.722   2.790  19.784  0.00  0.00    +0.000 S 
ATOM      4  C   UNL     1       2.171   2.801  18.900  0.00  0.00    +0.000 A 
ATOM      5  N   UNL     1       2.512   1.666  18.271  0.00  0.00    +0.000 NA
ATOM      6  C   UNL     1       3.678   1.757  17.653  0.00  0.00    +0.000 A 
ATOM      7  N   UNL     1       4.501   2.809  17.652  0.00  0.00    +0.000 NA
ATOM      8  C   UNL     1       4.153   3.975  18.271  0.00  0.00    +0.000 A 
ATOM      9  N   UNL     1       5.099   4.956  18.174  0.00  0.00    +0.000 N 
ATOM     10  C   UNL     1       4.969   6.365  18.438  0.00  0.00    +0.000 C 
ATOM     11  C   UNL     1       6.400   6.864  18.381  0.00  0.00    +0.000 C 
ATOM     12  C   UNL     1       7.135   5.687  19.024  0.00  0.00    +0.000 C 
ATOM     13  C   UNL     1       6.538   4.674  18.035  0.00  0.00    +0.000 C 
ATOM     14  C   UNL     1       6.989   5.269  16.690  0.00  0.00    +0.000 C 
ATOM     15  C   UNL     1       6.845   6.791  16.930  0.00  0.00    +0.000 C 
ATOM     16  C   UNL     1       2.867   4.016  18.933  0.00  0.00    +0.000 A 
ENDROOT
BRANCH   1  18
ATOM     17  C   UNL     1       2.138   7.366  18.638  0.00  0.00    +0.000 C 
ATOM     18  C   UNL     1       2.283   6.493  19.880  0.00  0.00    +0.000 C 
ATOM     19  C   UNL     1       1.444   7.082  21.026  0.00  0.00    +0.000 C 
ENDBRANCH   1  18
BRANCH  15  20
ATOM     20  O   UNL     1       8.073   7.504  16.866  0.00  0.00    +0.000 OA
BRANCH  20  21
ATOM     21  C   UNL     1       8.316   8.225  18.062  0.00  0.00    +0.000 C 
BRANCH  21  22
ATOM     22  C   UNL     1       8.338   9.716  17.731  0.00  0.00    +0.000 C 
BRANCH  22  23
ATOM     23  N   UNL     1       9.503  10.362  18.333  0.00  0.00    +0.000 NA
ATOM     24  C   UNL     1       9.823  11.643  17.710  0.00  0.00    +0.000 C 
ATOM     25  C   UNL     1      10.778  12.243  18.725  0.00  0.00    +0.000 C 
ATOM     26  C   UNL     1      10.142  11.887  20.055  0.00  0.00    +0.000 C 
ATOM     27  F   UNL     1      11.100  11.640  20.980  0.00  0.00    +0.000 F 
ATOM     28  C   UNL     1       9.325  10.638  19.770  0.00  0.00    +0.000 C 
ENDBRANCH  22  23
ENDBRANCH  21  22
ENDBRANCH  20  21
ENDBRANCH  15  20
TORSDOF 5
ENDMDL
MODEL 3
REMARK VINA RESULT:      -6.5      6.390      9.377
REMARK  Name = 
REMARK  7 active torsions:
REMARK  status: ('A' for Active; 'I' for Inactive)
REMARK    1  A    between atoms: C_1  and  C_2
REMARK    2  A    between atoms: C_2  and  C_3
REMARK    3  A    between atoms: C_2  and  C_4
REMARK    4  A    between atoms: C_18  and  O_19
REMARK    5  A    between atoms: O_19  and  C_20
REMARK    6  A    between atoms: C_20  and  C_21
REMARK    7  A    between atoms: C_21  and  N_22
REMARK                            x       y       z     vdW  Elec       q    Type
REMARK                         _______ _______ _______ _____ _____    ______ ____
ROOT
ATOM      1  C   UNL     1       2.318   5.343  19.643  0.00  0.00    +0.000 A 
ATOM      2  C   UNL     1       1.495   5.127  20.740  0.00  0.00    +0.000 A 
ATOM      3  S   UNL     1       1.218   3.492  21.063  0.00  0.00    +0.000 S 
ATOM      4  C   UNL     1       2.247   3.008  19.803  0.00  0.00    +0.000 A 
ATOM      5  N   UNL     1       2.378   1.689  19.593  0.00  0.00    +0.000 NA
ATOM      6  C   UNL     1       3.236   1.411  18.626  0.00  0.00    +0.000 A 
ATOM      7  N   UNL     1       3.964   2.287  17.927  0.00  0.00    +0.000 NA
ATOM      8  C   UNL     1       3.821   3.630  18.119  0.00  0.00    +0.000 A 
ATOM      9  N   UNL     1       4.631   4.392  17.323  0.00  0.00    +0.000 N 
ATOM     10  C   UNL     1       4.553   5.801  17.042  0.00  0.00    +0.000 C 
ATOM     11  C   UNL     1       5.847   6.080  16.302  0.00  0.00    +0.000 C 
ATOM     12  C   UNL     1       6.809   5.160  17.055  0.00  0.00    +0.000 C 
ATOM     13  C   UNL     1       5.932   3.921  16.816  0.00  0.00    +0.000 C 
ATOM     14  C   UNL     1       5.842   3.910  15.281  0.00  0.00    +0.000 C 
ATOM     15  C   UNL     1       5.738   5.416  14.940  0.00  0.00    +0.000 C 
ATOM     16  C   UNL     1       2.862   4.061  19.113  0.00  0.00    +0.000 A 
ENDROOT
BRANCH   1  18
ATOM     17  C   UNL     1       2.058   7.073  17.751  0.00  0.00    +0.000 C 
ATOM     18  C   UNL     1       2.569   6.760  19.153  0.00  0.00    +0.000 C 
ATOM     19  C   UNL     1       2.066   7.829  20.136  0.00  0.00    +0.000 C 
ENDBRANCH   1  18
BRANCH  15  20
ATOM     20  O   UNL     1       6.833   5.911  14.179  0.00  0.00    +0.000 OA
BRANCH  20  21
ATOM     21  C   UNL     1       7.668   4.858  13.728  0.00  0.00    +0.000 C 
BRANCH  21  22
ATOM     22  C   UNL     1       7.301   4.534  12.282  0.00  0.00    +0.000 C 
BRANCH  22  23
ATOM     23  N   UNL     1       6.624   3.242  12.196  0.00  0.00    +0.000 NA
ATOM     24  C   UNL     1       5.288   3.341  11.617  0.00  0.00    +0.000 C 
ATOM     25  C   UNL     1       4.984   1.888  11.304  0.00  0.00    +0.000 C 
ATOM     26  C   UNL     1       6.299   1.367  10.754  0.00  0.00    +0.000 C 
ATOM     27  F   UNL     1       6.482   0.077  11.122  0.00  0.00    +0.000 F 
ATOM     28  C   UNL     1       7.358   2.266  11.371  0.00  0.00    +0.000 C 
ENDBRANCH  22  23
ENDBRANCH  21  22
ENDBRANCH  20  21
ENDBRANCH  15  20
TORSDOF 5
ENDMDL
MODEL 4
REMARK VINA RESULT:      -6.5      3.075      4.266
REMARK  Name = 
REMARK  7 active torsions:
REMARK  status: ('A' for Active; 'I' for Inactive)
REMARK    1  A    between atoms: C_1  and  C_2
REMARK    2  A    between atoms: C_2  and  C_3
REMARK    3  A    between atoms: C_2  and  C_4
REMARK    4  A    between atoms: C_18  and  O_19
REMARK    5  A    between atoms: O_19  and  C_20
REMARK    6  A    between atoms: C_20  and  C_21
REMARK    7  A    between atoms: C_21  and  N_22
REMARK                            x       y       z     vdW  Elec       q    Type
REMARK                         _______ _______ _______ _____ _____    ______ ____
ROOT
ATOM      1  C   UNL     1       0.284  10.486  21.170  0.00  0.00    +0.000 A 
ATOM      2  C   UNL     1      -0.490  11.559  21.593  0.00  0.00    +0.000 A 
ATOM      3  S   UNL     1      -0.306  12.939  20.637  0.00  0.00    +0.000 S 
ATOM      4  C   UNL     1       0.750  12.138  19.578  0.00  0.00    +0.000 A 
ATOM      5  N   UNL     1       1.253  12.852  18.559  0.00  0.00    +0.000 NA
ATOM      6  C   UNL     1       2.025  12.131  17.764  0.00  0.00    +0.000 A 
ATOM      7  N   UNL     1       2.280  10.823  17.870  0.00  0.00    +0.000 NA
ATOM      8  C   UNL     1       1.790  10.094  18.913  0.00  0.00    +0.000 A 
ATOM      9  N   UNL     1       2.145   8.774  18.881  0.00  0.00    +0.000 N 
ATOM     10  C   UNL     1       2.066   7.792  19.930  0.00  0.00    +0.000 C 
ATOM     11  C   UNL     1       2.377   6.492  19.214  0.00  0.00    +0.000 C 
ATOM     12  C   UNL     1       1.677   6.732  17.875  0.00  0.00    +0.000 C 
ATOM     13  C   UNL     1       2.429   8.049  17.631  0.00  0.00    +0.000 C 
ATOM     14  C   UNL     1       3.891   7.576  17.702  0.00  0.00    +0.000 C 
ATOM     15  C   UNL     1       3.849   6.526  18.838  0.00  0.00    +0.000 C 
ATOM     16  C   UNL     1       0.978  10.791  19.888  0.00  0.00    +0.000 A 
ENDROOT
BRANCH   1  18
ATOM     17  C   UNL     1       0.187   9.390  23.501  0.00  0.00    +0.000 C 
ATOM     18  C   UNL     1       0.320   9.208  21.993  0.00  0.00    +0.000 C 
ATOM     19  C   UNL     1      -0.695   8.159  21.509  0.00  0.00    +0.000 C 
ENDBRANCH   1  18
BRANCH  15  20
ATOM     20  O   UNL     1       4.172   5.207  18.415  0.00  0.00    +0.000 OA
BRANCH  20  21
ATOM     21  C   UNL     1       4.722   4.445  19.476  0.00  0.00    +0.000 C 
BRANCH  21  22
ATOM     22  C   UNL     1       4.569   2.964  19.138  0.00  0.00    +0.000 C 
BRANCH  22  23
ATOM     23  N   UNL     1       3.227   2.492  19.471  0.00  0.00    +0.000 NA
ATOM     24  C   UNL     1       2.680   3.138  20.660  0.00  0.00    +0.000 C 
ATOM     25  C   UNL     1       1.212   2.770  20.558  0.00  0.00    +0.000 C 
ATOM     26  C   UNL     1       0.914   2.934  19.080  0.00  0.00    +0.000 C 
ATOM     27  F   UNL     1       0.014   2.005  18.678  0.00  0.00    +0.000 F 
ATOM     28  C   UNL     1       2.253   2.729  18.391  0.00  0.00    +0.000 C 
ENDBRANCH  22  23
ENDBRANCH  21  22
ENDBRANCH  20  21
ENDBRANCH  15  20
TORSDOF 5
ENDMDL
MODEL 5
REMARK VINA RESULT:      -6.5      6.554      9.640
REMARK  Name = 
REMARK  7 active torsions:
REMARK  status: ('A' for Active; 'I' for Inactive)
REMARK    1  A    between atoms: C_1  and  C_2
REMARK    2  A    between atoms: C_2  and  C_3
REMARK    3  A    between atoms: C_2  and  C_4
REMARK    4  A    between atoms: C_18  and  O_19
REMARK    5  A    between atoms: O_19  and  C_20
REMARK    6  A    between atoms: C_20  and  C_21
REMARK    7  A    between atoms: C_21  and  N_22
REMARK                            x       y       z     vdW  Elec       q    Type
REMARK                         _______ _______ _______ _____ _____    ______ ____
ROOT
ATOM      1  C   UNL     1       1.991   5.006  19.688  0.00  0.00    +0.000 A 
ATOM      2  C   UNL     1       0.863   4.407  20.232  0.00  0.00    +0.000 A 
ATOM      3  S   UNL     1       0.684   2.786  19.792  0.00  0.00    +0.000 S 
ATOM      4  C   UNL     1       2.143   2.798  18.925  0.00  0.00    +0.000 A 
ATOM      5  N   UNL     1       2.494   1.662  18.304  0.00  0.00    +0.000 NA
ATOM      6  C   UNL     1       3.666   1.755  17.698  0.00  0.00    +0.000 A 
ATOM      7  N   UNL     1       4.487   2.810  17.703  0.00  0.00    +0.000 NA
ATOM      8  C   UNL     1       4.128   3.976  18.315  0.00  0.00    +0.000 A 
ATOM      9  N   UNL     1       5.072   4.960  18.225  0.00  0.00    +0.000 N 
ATOM     10  C   UNL     1       4.935   6.369  18.484  0.00  0.00    +0.000 C 
ATOM     11  C   UNL     1       6.365   6.872  18.442  0.00  0.00    +0.000 C 
ATOM     12  C   UNL     1       7.097   5.699  19.097  0.00  0.00    +0.000 C 
ATOM     13  C   UNL     1       6.514   4.682  18.104  0.00  0.00    +0.000 C 
ATOM     14  C   UNL     1       6.979   5.273  16.763  0.00  0.00    +0.000 C 
ATOM     15  C   UNL     1       6.827   6.795  16.996  0.00  0.00    +0.000 C 
ATOM     16  C   UNL     1       2.834   4.015  18.962  0.00  0.00    +0.000 A 
ENDROOT
BRANCH   1  18
ATOM     17  C   UNL     1       2.089   7.364  18.650  0.00  0.00    +0.000 C 
ATOM     18  C   UNL     1       2.232   6.493  19.894  0.00  0.00    +0.000 C 
ATOM     19  C   UNL     1       1.386   7.082  21.036  0.00  0.00    +0.000 C 
ENDBRANCH   1  18
BRANCH  15  20
ATOM     20  O   UNL     1       8.054   7.512  16.944  0.00  0.00    +0.000 OA
BRANCH  20  21
ATOM     21  C   UNL     1       7.902   8.834  17.432  0.00  0.00    +0.000 C 
BRANCH  21  22
ATOM     22  C   UNL     1       8.930   9.063  18.538  0.00  0.00    +0.000 C 
BRANCH  22  23
ATOM     23  N   UNL     1       9.042  10.485  18.855  0.00  0.00    +0.000 NA
ATOM     24  C   UNL     1       9.460  10.726  20.232  0.00  0.00    +0.000 C 
ATOM     25  C   UNL     1       9.851  12.191  20.179  0.00  0.00    +0.000 C 
ATOM     26  C   UNL     1      10.582  12.309  18.855  0.00  0.00    +0.000 C 
ATOM     27  F   UNL     1      10.339  13.517  18.291  0.00  0.00    +0.000 F 
ATOM     28  C   UNL     1      10.017  11.186  18.001  0.00  0.00    +0.000 C 
ENDBRANCH  22  23
ENDBRANCH  21  22
ENDBRANCH  20  21
ENDBRANCH  15  20
TORSDOF 5
ENDMDL
MODEL 6
REMARK VINA RESULT:      -6.2      3.851      8.441
REMARK  Name = 
REMARK  7 active torsions:
REMARK  status: ('A' for Active; 'I' for Inactive)
REMARK    1  A    between atoms: C_1  and  C_2
REMARK    2  A    between atoms: C_2  and  C_3
REMARK    3  A    between atoms: C_2  and  C_4
REMARK    4  A    between atoms: C_18  and  O_19
REMARK    5  A    between atoms: O_19  and  C_20
REMARK    6  A    between atoms: C_20  and  C_21
REMARK    7  A    between atoms: C_21  and  N_22
REMARK                            x       y       z     vdW  Elec       q    Type
REMARK                         _______ _______ _______ _____ _____    ______ ____
ROOT
ATOM      1  C   UNL     1       4.564   5.485  17.954  0.00  0.00    +0.000 A 
ATOM      2  C   UNL     1       5.113   4.213  17.872  0.00  0.00    +0.000 A 
ATOM      3  S   UNL     1       4.529   3.151  19.049  0.00  0.00    +0.000 S 
ATOM      4  C   UNL     1       3.465   4.321  19.662  0.00  0.00    +0.000 A 
ATOM      5  N   UNL     1       2.710   3.970  20.715  0.00  0.00    +0.000 NA
ATOM      6  C   UNL     1       1.880   4.929  21.089  0.00  0.00    +0.000 A 
ATOM      7  N   UNL     1       1.719   6.120  20.503  0.00  0.00    +0.000 NA
ATOM      8  C   UNL     1       2.496   6.493  19.445  0.00  0.00    +0.000 A 
ATOM      9  N   UNL     1       2.212   7.740  18.963  0.00  0.00    +0.000 N 
ATOM     10  C   UNL     1       2.991   8.565  18.077  0.00  0.00    +0.000 C 
ATOM     11  C   UNL     1       2.045   9.701  17.738  0.00  0.00    +0.000 C 
ATOM     12  C   UNL     1       0.716   8.949  17.658  0.00  0.00    +0.000 C 
ATOM     13  C   UNL     1       0.878   8.357  19.066  0.00  0.00    +0.000 C 
ATOM     14  C   UNL     1       1.033   9.633  19.911  0.00  0.00    +0.000 C 
ATOM     15  C   UNL     1       1.885  10.542  18.993  0.00  0.00    +0.000 C 
ATOM     16  C   UNL     1       3.488   5.546  18.982  0.00  0.00    +0.000 A 
ENDROOT
BRANCH   1  18
ATOM     17  C   UNL     1       6.419   7.194  17.422  0.00  0.00    +0.000 C 
ATOM     18  C   UNL     1       5.072   6.589  17.040  0.00  0.00    +0.000 C 
ATOM     19  C   UNL     1       5.095   6.175  15.560  0.00  0.00    +0.000 C 
ENDBRANCH   1  18
BRANCH  15  20
ATOM     20  O   UNL     1       1.220  11.730  18.581  0.00  0.00    +0.000 OA
BRANCH  20  21
ATOM     21  C   UNL     1       0.174  12.074  19.474  0.00  0.00    +0.000 C 
BRANCH  21  22
ATOM     22  C   UNL     1      -1.002  12.606  18.660  0.00  0.00    +0.000 C 
BRANCH  22  23
ATOM     23  N   UNL     1      -2.258  12.011  19.114  0.00  0.00    +0.000 NA
ATOM     24  C   UNL     1      -3.033  12.909  19.965  0.00  0.00    +0.000 C 
ATOM     25  C   UNL     1      -4.387  12.224  19.974  0.00  0.00    +0.000 C 
ATOM     26  C   UNL     1      -4.562  11.779  18.534  0.00  0.00    +0.000 C 
ATOM     27  F   UNL     1      -5.224  10.598  18.487  0.00  0.00    +0.000 F 
ATOM     28  C   UNL     1      -3.146  11.631  18.002  0.00  0.00    +0.000 C 
ENDBRANCH  22  23
ENDBRANCH  21  22
ENDBRANCH  20  21
ENDBRANCH  15  20
TORSDOF 5
ENDMDL
MODEL 7
REMARK VINA RESULT:      -6.2      5.073      9.175
REMARK  Name = 
REMARK  7 active torsions:
REMARK  status: ('A' for Active; 'I' for Inactive)
REMARK    1  A    between atoms: C_1  and  C_2
REMARK    2  A    between atoms: C_2  and  C_3
REMARK    3  A    between atoms: C_2  and  C_4
REMARK    4  A    between atoms: C_18  and  O_19
REMARK    5  A    between atoms: O_19  and  C_20
REMARK    6  A    between atoms: C_20  and  C_21
REMARK    7  A    between atoms: C_21  and  N_22
REMARK                            x       y       z     vdW  Elec       q    Type
REMARK                         _______ _______ _______ _____ _____    ______ ____
ROOT
ATOM      1  C   UNL     1       4.550   5.526  17.895  0.00  0.00    +0.000 A 
ATOM      2  C   UNL     1       5.092   4.251  17.807  0.00  0.00    +0.000 A 
ATOM      3  S   UNL     1       4.515   3.191  18.989  0.00  0.00    +0.000 S 
ATOM      4  C   UNL     1       3.463   4.367  19.614  0.00  0.00    +0.000 A 
ATOM      5  N   UNL     1       2.718   4.019  20.674  0.00  0.00    +0.000 NA
ATOM      6  C   UNL     1       1.897   4.982  21.058  0.00  0.00    +0.000 A 
ATOM      7  N   UNL     1       1.736   6.173  20.474  0.00  0.00    +0.000 NA
ATOM      8  C   UNL     1       2.503   6.543  19.408  0.00  0.00    +0.000 A 
ATOM      9  N   UNL     1       2.220   7.792  18.930  0.00  0.00    +0.000 N 
ATOM     10  C   UNL     1       2.993   8.613  18.036  0.00  0.00    +0.000 C 
ATOM     11  C   UNL     1       2.050   9.755  17.708  0.00  0.00    +0.000 C 
ATOM     12  C   UNL     1       0.716   9.009  17.642  0.00  0.00    +0.000 C 
ATOM     13  C   UNL     1       0.890   8.415  19.048  0.00  0.00    +0.000 C 
ATOM     14  C   UNL     1       1.060   9.690  19.892  0.00  0.00    +0.000 C 
ATOM     15  C   UNL     1       1.907  10.595  18.965  0.00  0.00    +0.000 C 
ATOM     16  C   UNL     1       3.485   5.591  18.935  0.00  0.00    +0.000 A 
ENDROOT
BRANCH   1  18
ATOM     17  C   UNL     1       6.388   7.254  17.367  0.00  0.00    +0.000 C 
ATOM     18  C   UNL     1       5.054   6.628  16.976  0.00  0.00    +0.000 C 
ATOM     19  C   UNL     1       5.098   6.200  15.500  0.00  0.00    +0.000 C 
ENDBRANCH   1  18
BRANCH  15  20
ATOM     20  O   UNL     1       1.244  11.787  18.561  0.00  0.00    +0.000 OA
BRANCH  20  21
ATOM     21  C   UNL     1       1.008  12.647  19.663  0.00  0.00    +0.000 C 
BRANCH  21  22
ATOM     22  C   UNL     1       2.260  13.487  19.898  0.00  0.00    +0.000 C 
BRANCH  22  23
ATOM     23  N   UNL     1       2.167  14.764  19.193  0.00  0.00    +0.000 NA
ATOM     24  C   UNL     1       2.534  15.901  20.031  0.00  0.00    +0.000 C 
ATOM     25  C   UNL     1       2.714  16.996  18.996  0.00  0.00    +0.000 C 
ATOM     26  C   UNL     1       3.434  16.289  17.863  0.00  0.00    +0.000 C 
ATOM     27  F   UNL     1       3.028  16.784  16.669  0.00  0.00    +0.000 F 
ATOM     28  C   UNL     1       3.042  14.828  18.008  0.00  0.00    +0.000 C 
ENDBRANCH  22  23
ENDBRANCH  21  22
ENDBRANCH  20  21
ENDBRANCH  15  20
TORSDOF 5
ENDMDL
MODEL 8
REMARK VINA RESULT:      -6.2      0.943      1.126
REMARK  Name = 
REMARK  7 active torsions:
REMARK  status: ('A' for Active; 'I' for Inactive)
REMARK    1  A    between atoms: C_1  and  C_2
REMARK    2  A    between atoms: C_2  and  C_3
REMARK    3  A    between atoms: C_2  and  C_4
REMARK    4  A    between atoms: C_18  and  O_19
REMARK    5  A    between atoms: O_19  and  C_20
REMARK    6  A    between atoms: C_20  and  C_21
REMARK    7  A    between atoms: C_21  and  N_22
REMARK                            x       y       z     vdW  Elec       q    Type
REMARK                         _______ _______ _______ _____ _____    ______ ____
ROOT
ATOM      1  C   UNL     1      -3.865  11.472  17.647  0.00  0.00    +0.000 A 
ATOM      2  C   UNL     1      -5.048  12.152  17.393  0.00  0.00    +0.000 A 
ATOM      3  S   UNL     1      -5.615  13.034  18.718  0.00  0.00    +0.000 S 
ATOM      4  C   UNL     1      -4.265  12.607  19.654  0.00  0.00    +0.000 A 
ATOM      5  N   UNL     1      -4.224  13.069  20.913  0.00  0.00    +0.000 NA
ATOM      6  C   UNL     1      -3.115  12.726  21.546  0.00  0.00    +0.000 A 
ATOM      7  N   UNL     1      -2.085  12.042  21.037  0.00  0.00    +0.000 NA
ATOM      8  C   UNL     1      -2.127  11.551  19.765  0.00  0.00    +0.000 A 
ATOM      9  N   UNL     1      -1.000  10.870  19.398  0.00  0.00    +0.000 N 
ATOM     10  C   UNL     1      -0.803   9.988  18.277  0.00  0.00    +0.000 C 
ATOM     11  C   UNL     1       0.694   9.747  18.283  0.00  0.00    +0.000 C 
ATOM     12  C   UNL     1       1.202  11.129  18.699  0.00  0.00    +0.000 C 
ATOM     13  C   UNL     1       0.330  11.153  19.964  0.00  0.00    +0.000 C 
ATOM     14  C   UNL     1       0.801   9.873  20.676  0.00  0.00    +0.000 C 
ATOM     15  C   UNL     1       1.007   8.890  19.498  0.00  0.00    +0.000 C 
ATOM     16  C   UNL     1      -3.323  11.811  18.992  0.00  0.00    +0.000 A 
ENDROOT
BRANCH   1  18
ATOM     17  C   UNL     1      -3.602   9.059  16.778  0.00  0.00    +0.000 C 
ATOM     18  C   UNL     1      -3.287  10.540  16.593  0.00  0.00    +0.000 C 
ATOM     19  C   UNL     1      -3.641  10.968  15.159  0.00  0.00    +0.000 C 
ENDBRANCH   1  18
BRANCH  15  20
ATOM     20  O   UNL     1       2.353   8.462  19.334  0.00  0.00    +0.000 OA
BRANCH  20  21
ATOM     21  C   UNL     1       2.446   7.389  18.412  0.00  0.00    +0.000 C 
BRANCH  21  22
ATOM     22  C   UNL     1       3.104   6.203  19.113  0.00  0.00    +0.000 C 
BRANCH  22  23
ATOM     23  N   UNL     1       2.097   5.245  19.563  0.00  0.00    +0.000 NA
ATOM     24  C   UNL     1       1.810   4.217  18.567  0.00  0.00    +0.000 C 
ATOM     25  C   UNL     1       1.063   3.190  19.398  0.00  0.00    +0.000 C 
ATOM     26  C   UNL     1       1.842   3.160  20.699  0.00  0.00    +0.000 C 
ATOM     27  F   UNL     1       1.003   2.954  21.742  0.00  0.00    +0.000 F 
ATOM     28  C   UNL     1       2.496   4.529  20.788  0.00  0.00    +0.000 C 
ENDBRANCH  22  23
ENDBRANCH  21  22
ENDBRANCH  20  21
ENDBRANCH  15  20
TORSDOF 5
ENDMDL
MODEL 9
REMARK VINA RESULT:      -6.2      2.287      2.675
REMARK  Name = 
REMARK  7 active torsions:
REMARK  status: ('A' for Active; 'I' for Inactive)
REMARK    1  A    between atoms: C_1  and  C_2
REMARK    2  A    between atoms: C_2  and  C_3
REMARK    3  A    between atoms: C_2  and  C_4
REMARK    4  A    between atoms: C_18  and  O_19
REMARK    5  A    between atoms: O_19  and  C_20
REMARK    6  A    between atoms: C_20  and  C_21
REMARK    7  A    between atoms: C_21  and  N_22
REMARK                            x       y       z     vdW  Elec       q    Type
REMARK                         _______ _______ _______ _____ _____    ______ ____
ROOT
ATOM      1  C   UNL     1      -4.034  11.904  18.752  0.00  0.00    +0.000 A 
ATOM      2  C   UNL     1      -5.237  12.597  18.763  0.00  0.00    +0.000 A 
ATOM      3  S   UNL     1      -5.536  13.403  20.217  0.00  0.00    +0.000 S 
ATOM      4  C   UNL     1      -4.039  12.926  20.858  0.00  0.00    +0.000 A 
ATOM      5  N   UNL     1      -3.757  13.317  22.110  0.00  0.00    +0.000 NA
ATOM      6  C   UNL     1      -2.551  12.940  22.502  0.00  0.00    +0.000 A 
ATOM      7  N   UNL     1      -1.643  12.286  21.773  0.00  0.00    +0.000 NA
ATOM      8  C   UNL     1      -1.928  11.866  20.506  0.00  0.00    +0.000 A 
ATOM      9  N   UNL     1      -0.897  11.207  19.897  0.00  0.00    +0.000 N 
ATOM     10  C   UNL     1      -0.923  10.389  18.713  0.00  0.00    +0.000 C 
ATOM     11  C   UNL     1       0.546  10.149  18.423  0.00  0.00    +0.000 C 
ATOM     12  C   UNL     1       1.137  11.506  18.811  0.00  0.00    +0.000 C 
ATOM     13  C   UNL     1       0.519  11.459  20.217  0.00  0.00    +0.000 C 
ATOM     14  C   UNL     1       1.103  10.142  20.756  0.00  0.00    +0.000 C 
ATOM     15  C   UNL     1       1.074   9.227  19.509  0.00  0.00    +0.000 C 
ATOM     16  C   UNL     1      -3.245  12.168  19.988  0.00  0.00    +0.000 A 
ENDROOT
BRANCH   1  18
ATOM     17  C   UNL     1      -3.832   9.530  17.768  0.00  0.00    +0.000 C 
ATOM     18  C   UNL     1      -3.674  11.032  17.559  0.00  0.00    +0.000 C 
ATOM     19  C   UNL     1      -4.401  11.453  16.271  0.00  0.00    +0.000 C 
ENDBRANCH   1  18
BRANCH  15  20
ATOM     20  O   UNL     1       2.360   8.809  19.071  0.00  0.00    +0.000 OA
BRANCH  20  21
ATOM     21  C   UNL     1       2.267   7.805  18.074  0.00  0.00    +0.000 C 
BRANCH  21  22
ATOM     22  C   UNL     1       2.580   6.455  18.716  0.00  0.00    +0.000 C 
BRANCH  22  23
ATOM     23  N   UNL     1       3.800   5.884  18.149  0.00  0.00    +0.000 NA
ATOM     24  C   UNL     1       3.563   4.623  17.453  0.00  0.00    +0.000 C 
ATOM     25  C   UNL     1       4.854   4.459  16.673  0.00  0.00    +0.000 C 
ATOM     26  C   UNL     1       5.140   5.863  16.173  0.00  0.00    +0.000 C 
ATOM     27  F   UNL     1       6.475   6.089  16.150  0.00  0.00    +0.000 F 
ATOM     28  C   UNL     1       4.449   6.776  17.172  0.00  0.00    +0.000 C 
ENDBRANCH  22  23
ENDBRANCH  21  22
ENDBRANCH  20  21
ENDBRANCH  15  20
TORSDOF 5
ENDMDL
