MODEL 1
REMARK VINA RESULT:      -7.5      0.000      0.000
REMARK  Name = 
REMARK  4 active torsions:
REMARK  status: ('A' for Active; 'I' for Inactive)
REMARK    1  A    between atoms: C_2  and  C_3
REMARK    2  A    between atoms: C_3  and  C_4
REMARK    3  A    between atoms: C_4  and  N_5
REMARK    4  A    between atoms: N_10  and  C_11
REMARK                            x       y       z     vdW  Elec       q    Type
REMARK                         _______ _______ _______ _____ _____    ______ ____
ROOT
ATOM      1  C   UNL     1       3.821   4.970  18.510  0.00  0.00    +0.000 A 
ATOM      2  C   UNL     1       3.350   4.196  19.570  0.00  0.00    +0.000 A 
ATOM      3  C   UNL     1       2.417   4.725  20.494  0.00  0.00    +0.000 A 
ATOM      4  C   UNL     1       1.911   6.010  20.387  0.00  0.00    +0.000 A 
ATOM      5  C   UNL     1       2.354   6.763  19.314  0.00  0.00    +0.000 A 
ATOM      6  C   UNL     1       3.299   6.261  18.398  0.00  0.00    +0.000 A 
ATOM      7  C   UNL     1       3.474   7.239  17.268  0.00  0.00    +0.000 C 
ATOM      8  C   UNL     1       2.887   8.529  17.855  0.00  0.00    +0.000 C 
ATOM      9  C   UNL     1       1.862   8.119  18.917  0.00  0.00    +0.000 C 
ATOM     10  C   UNL     1       2.123   3.750  21.594  0.00  0.00    +0.000 C 
ATOM     11  C   UNL     1       2.639   2.448  20.982  0.00  0.00    +0.000 C 
ATOM     12  C   UNL     1       3.783   2.835  20.035  0.00  0.00    +0.000 C 
ENDROOT
BRANCH   1  15
ATOM     13  O   UNL     1       6.698   4.925  19.006  0.00  0.00    +0.000 OA
ATOM     14  C   UNL     1       6.211   4.649  17.913  0.00  0.00    +0.000 C 
ATOM     15  N   UNL     1       4.851   4.556  17.643  0.00  0.00    +0.000 N 
ATOM     16  H   UNL     1       4.591   3.863  16.952  0.00  0.00    +0.000 HD
BRANCH  14  17
ATOM     17  C   UNL     1       7.065   4.381  16.682  0.00  0.00    +0.000 C 
BRANCH  17  18
ATOM     18  C   UNL     1       6.291   3.680  15.555  0.00  0.00    +0.000 C 
BRANCH  18  19
ATOM     19  N   UNL     1       5.974   4.579  14.424  0.00  0.00    +0.000 NA
ATOM     20  C   UNL     1       5.204   3.959  13.339  0.00  0.00    +0.000 C 
ATOM     21  C   UNL     1       6.234   3.396  12.383  0.00  0.00    +0.000 C 
ATOM     22  C   UNL     1       7.342   4.428  12.424  0.00  0.00    +0.000 C 
ATOM     23  C   UNL     1       7.203   5.100  13.788  0.00  0.00    +0.000 C 
ENDBRANCH  18  19
ENDBRANCH  17  18
ENDBRANCH  14  17
ENDBRANCH   1  15
TORSDOF 4
ENDMDL
MODEL 2
REMARK VINA RESULT:      -7.2      3.263      6.975
REMARK  Name = 
REMARK  4 active torsions:
REMARK  status: ('A' for Active; 'I' for Inactive)
REMARK    1  A    between atoms: C_2  and  C_3
REMARK    2  A    between atoms: C_3  and  C_4
REMARK    3  A    between atoms: C_4  and  N_5
REMARK    4  A    between atoms: N_10  and  C_11
REMARK                            x       y       z     vdW  Elec       q    Type
REMARK                         _______ _______ _______ _____ _____    ______ ____
ROOT
ATOM      1  C   UNL     1       3.657   6.100  17.606  0.00  0.00    +0.000 A 
ATOM      2  C   UNL     1       2.937   4.913  17.742  0.00  0.00    +0.000 A 
ATOM      3  C   UNL     1       3.596   3.660  17.724  0.00  0.00    +0.000 A 
ATOM      4  C   UNL     1       4.970   3.546  17.593  0.00  0.00    +0.000 A 
ATOM      5  C   UNL     1       5.684   4.726  17.493  0.00  0.00    +0.000 A 
ATOM      6  C   UNL     1       5.043   5.980  17.488  0.00  0.00    +0.000 A 
ATOM      7  C   UNL     1       6.077   7.073  17.517  0.00  0.00    +0.000 C 
ATOM      8  C   UNL     1       7.351   6.335  17.085  0.00  0.00    +0.000 C 
ATOM      9  C   UNL     1       7.174   4.864  17.471  0.00  0.00    +0.000 C 
ATOM     10  C   UNL     1       2.618   2.526  17.797  0.00  0.00    +0.000 C 
ATOM     11  C   UNL     1       1.367   3.246  18.298  0.00  0.00    +0.000 C 
ATOM     12  C   UNL     1       1.452   4.687  17.775  0.00  0.00    +0.000 C 
ENDROOT
BRANCH   1  15
ATOM     13  O   UNL     1       2.258   7.659  19.640  0.00  0.00    +0.000 OA
ATOM     14  C   UNL     1       2.321   8.010  18.465  0.00  0.00    +0.000 C 
ATOM     15  N   UNL     1       3.052   7.365  17.475  0.00  0.00    +0.000 N 
ATOM     16  H   UNL     1       3.446   7.968  16.763  0.00  0.00    +0.000 HD
BRANCH  14  17
ATOM     17  C   UNL     1       1.570   9.223  17.932  0.00  0.00    +0.000 C 
BRANCH  17  18
ATOM     18  C   UNL     1       1.083  10.163  19.045  0.00  0.00    +0.000 C 
BRANCH  18  19
ATOM     19  N   UNL     1      -0.371  10.062  19.293  0.00  0.00    +0.000 NA
ATOM     20  C   UNL     1      -1.217  10.290  18.115  0.00  0.00    +0.000 C 
ATOM     21  C   UNL     1      -1.494  11.779  18.099  0.00  0.00    +0.000 C 
ATOM     22  C   UNL     1      -1.631  12.119  19.569  0.00  0.00    +0.000 C 
ATOM     23  C   UNL     1      -0.817  11.052  20.297  0.00  0.00    +0.000 C 
ENDBRANCH  18  19
ENDBRANCH  17  18
ENDBRANCH  14  17
ENDBRANCH   1  15
TORSDOF 4
ENDMDL
MODEL 3
REMARK VINA RESULT:      -7.2      0.212      3.190
REMARK  Name = 
REMARK  4 active torsions:
REMARK  status: ('A' for Active; 'I' for Inactive)
REMARK    1  A    between atoms: C_2  and  C_3
REMARK    2  A    between atoms: C_3  and  C_4
REMARK    3  A    between atoms: C_4  and  N_5
REMARK    4  A    between atoms: N_10  and  C_11
REMARK                            x       y       z     vdW  Elec       q    Type
REMARK                         _______ _______ _______ _____ _____    ______ ____
ROOT
ATOM      1  C   UNL     1       4.001   5.079  18.533  0.00  0.00    +0.000 A 
ATOM      2  C   UNL     1       3.405   6.331  18.376  0.00  0.00    +0.000 A 
ATOM      3  C   UNL     1       2.340   6.737  19.215  0.00  0.00    +0.000 A 
ATOM      4  C   UNL     1       1.852   5.937  20.235  0.00  0.00    +0.000 A 
ATOM      5  C   UNL     1       2.467   4.710  20.410  0.00  0.00    +0.000 A 
ATOM      6  C   UNL     1       3.514   4.282  19.571  0.00  0.00    +0.000 A 
ATOM      7  C   UNL     1       4.077   2.987  20.091  0.00  0.00    +0.000 C 
ATOM      8  C   UNL     1       2.967   2.497  21.030  0.00  0.00    +0.000 C 
ATOM      9  C   UNL     1       2.205   3.734  21.514  0.00  0.00    +0.000 C 
ATOM     10  C   UNL     1       1.801   8.075  18.808  0.00  0.00    +0.000 C 
ATOM     11  C   UNL     1       2.938   8.597  17.931  0.00  0.00    +0.000 C 
ATOM     12  C   UNL     1       3.610   7.367  17.307  0.00  0.00    +0.000 C 
ENDROOT
BRANCH   1  15
ATOM     13  O   UNL     1       6.908   5.285  18.694  0.00  0.00    +0.000 OA
ATOM     14  C   UNL     1       6.334   4.776  17.736  0.00  0.00    +0.000 C 
ATOM     15  N   UNL     1       4.964   4.560  17.647  0.00  0.00    +0.000 N 
ATOM     16  H   UNL     1       4.687   3.733  17.133  0.00  0.00    +0.000 HD
BRANCH  14  17
ATOM     17  C   UNL     1       7.075   4.318  16.487  0.00  0.00    +0.000 C 
BRANCH  17  18
ATOM     18  C   UNL     1       6.154   3.654  15.453  0.00  0.00    +0.000 C 
BRANCH  18  19
ATOM     19  N   UNL     1       5.876   4.518  14.285  0.00  0.00    +0.000 NA
ATOM     20  C   UNL     1       5.169   3.856  13.182  0.00  0.00    +0.000 C 
ATOM     21  C   UNL     1       6.254   3.288  12.291  0.00  0.00    +0.000 C 
ATOM     22  C   UNL     1       7.341   4.342  12.357  0.00  0.00    +0.000 C 
ATOM     23  C   UNL     1       7.125   5.044  13.695  0.00  0.00    +0.000 C 
ENDBRANCH  18  19
ENDBRANCH  17  18
ENDBRANCH  14  17
ENDBRANCH   1  15
TORSDOF 4
ENDMDL
MODEL 4
REMARK VINA RESULT:      -7.2      3.385      7.250
REMARK  Name = 
REMARK  4 active torsions:
REMARK  status: ('A' for Active; 'I' for Inactive)
REMARK    1  A    between atoms: C_2  and  C_3
REMARK    2  A    between atoms: C_3  and  C_4
REMARK    3  A    between atoms: C_4  and  N_5
REMARK    4  A    between atoms: N_10  and  C_11
REMARK                            x       y       z     vdW  Elec       q    Type
REMARK                         _______ _______ _______ _____ _____    ______ ____
ROOT
ATOM      1  C   UNL     1       2.812   5.933  18.813  0.00  0.00    +0.000 A 
ATOM      2  C   UNL     1       2.171   4.769  19.237  0.00  0.00    +0.000 A 
ATOM      3  C   UNL     1       2.419   3.530  18.597  0.00  0.00    +0.000 A 
ATOM      4  C   UNL     1       3.313   3.403  17.547  0.00  0.00    +0.000 A 
ATOM      5  C   UNL     1       3.973   4.552  17.152  0.00  0.00    +0.000 A 
ATOM      6  C   UNL     1       3.722   5.797  17.762  0.00  0.00    +0.000 A 
ATOM      7  C   UNL     1       4.685   6.822  17.228  0.00  0.00    +0.000 C 
ATOM      8  C   UNL     1       5.198   6.157  15.944  0.00  0.00    +0.000 C 
ATOM      9  C   UNL     1       5.068   4.643  16.136  0.00  0.00    +0.000 C 
ATOM     10  C   UNL     1       1.557   2.441  19.160  0.00  0.00    +0.000 C 
ATOM     11  C   UNL     1       1.104   3.071  20.476  0.00  0.00    +0.000 C 
ATOM     12  C   UNL     1       1.071   4.589  20.245  0.00  0.00    +0.000 C 
ENDROOT
BRANCH   1  15
ATOM     13  O   UNL     1       1.329   8.076  17.499  0.00  0.00    +0.000 OA
ATOM     14  C   UNL     1       1.873   8.221  18.590  0.00  0.00    +0.000 C 
ATOM     15  N   UNL     1       2.505   7.214  19.309  0.00  0.00    +0.000 N 
ATOM     16  H   UNL     1       2.436   7.290  20.316  0.00  0.00    +0.000 HD
BRANCH  14  17
ATOM     17  C   UNL     1       1.933   9.565  19.302  0.00  0.00    +0.000 C 
BRANCH  17  18
ATOM     18  C   UNL     1       0.651   9.889  20.083  0.00  0.00    +0.000 C 
BRANCH  18  19
ATOM     19  N   UNL     1       0.917  10.426  21.435  0.00  0.00    +0.000 NA
ATOM     20  C   UNL     1       0.972   9.418  22.501  0.00  0.00    +0.000 C 
ATOM     21  C   UNL     1      -0.447   9.293  23.013  0.00  0.00    +0.000 C 
ATOM     22  C   UNL     1      -0.965  10.716  22.942  0.00  0.00    +0.000 C 
ATOM     23  C   UNL     1      -0.131  11.383  21.851  0.00  0.00    +0.000 C 
ENDBRANCH  18  19
ENDBRANCH  17  18
ENDBRANCH  14  17
ENDBRANCH   1  15
TORSDOF 4
ENDMDL
MODEL 5
REMARK VINA RESULT:      -7.1      4.508      6.353
REMARK  Name = 
REMARK  4 active torsions:
REMARK  status: ('A' for Active; 'I' for Inactive)
REMARK    1  A    between atoms: C_2  and  C_3
REMARK    2  A    between atoms: C_3  and  C_4
REMARK    3  A    between atoms: C_4  and  N_5
REMARK    4  A    between atoms: N_10  and  C_11
REMARK                            x       y       z     vdW  Elec       q    Type
REMARK                         _______ _______ _______ _____ _____    ______ ____
ROOT
ATOM      1  C   UNL     1       5.634   6.355  16.897  0.00  0.00    +0.000 A 
ATOM      2  C   UNL     1       4.516   6.129  17.699  0.00  0.00    +0.000 A 
ATOM      3  C   UNL     1       3.713   4.977  17.517  0.00  0.00    +0.000 A 
ATOM      4  C   UNL     1       4.000   4.015  16.563  0.00  0.00    +0.000 A 
ATOM      5  C   UNL     1       5.129   4.224  15.791  0.00  0.00    +0.000 A 
ATOM      6  C   UNL     1       5.926   5.375  15.944  0.00  0.00    +0.000 A 
ATOM      7  C   UNL     1       7.154   5.255  15.081  0.00  0.00    +0.000 C 
ATOM      8  C   UNL     1       6.757   4.150  14.095  0.00  0.00    +0.000 C 
ATOM      9  C   UNL     1       5.711   3.275  14.792  0.00  0.00    +0.000 C 
ATOM     10  C   UNL     1       2.523   4.989  18.428  0.00  0.00    +0.000 C 
ATOM     11  C   UNL     1       2.947   6.037  19.455  0.00  0.00    +0.000 C 
ATOM     12  C   UNL     1       3.870   7.020  18.722  0.00  0.00    +0.000 C 
ENDROOT
BRANCH   1  15
ATOM     13  O   UNL     1       8.082   6.903  18.389  0.00  0.00    +0.000 OA
ATOM     14  C   UNL     1       7.497   7.765  17.738  0.00  0.00    +0.000 C 
ATOM     15  N   UNL     1       6.388   7.543  16.931  0.00  0.00    +0.000 N 
ATOM     16  H   UNL     1       6.330   8.123  16.104  0.00  0.00    +0.000 HD
BRANCH  14  17
ATOM     17  C   UNL     1       7.921   9.227  17.750  0.00  0.00    +0.000 C 
BRANCH  17  18
ATOM     18  C   UNL     1       8.960   9.541  18.836  0.00  0.00    +0.000 C 
BRANCH  18  19
ATOM     19  N   UNL     1       9.157  10.992  19.046  0.00  0.00    +0.000 NA
ATOM     20  C   UNL     1       9.918  11.672  17.991  0.00  0.00    +0.000 C 
ATOM     21  C   UNL     1      11.368  11.584  18.418  0.00  0.00    +0.000 C 
ATOM     22  C   UNL     1      11.294  11.742  19.923  0.00  0.00    +0.000 C 
ATOM     23  C   UNL     1       9.895  11.260  20.299  0.00  0.00    +0.000 C 
ENDBRANCH  18  19
ENDBRANCH  17  18
ENDBRANCH  14  17
ENDBRANCH   1  15
TORSDOF 4
ENDMDL
MODEL 6
REMARK VINA RESULT:      -7.1      4.514      6.417
REMARK  Name = 
REMARK  4 active torsions:
REMARK  status: ('A' for Active; 'I' for Inactive)
REMARK    1  A    between atoms: C_2  and  C_3
REMARK    2  A    between atoms: C_3  and  C_4
REMARK    3  A    between atoms: C_4  and  N_5
REMARK    4  A    between atoms: N_10  and  C_11
REMARK                            x       y       z     vdW  Elec       q    Type
REMARK                         _______ _______ _______ _____ _____    ______ ____
ROOT
ATOM      1  C   UNL     1       5.531   6.544  16.639  0.00  0.00    +0.000 A 
ATOM      2  C   UNL     1       5.864   5.444  15.849  0.00  0.00    +0.000 A 
ATOM      3  C   UNL     1       5.109   4.249  15.915  0.00  0.00    +0.000 A 
ATOM      4  C   UNL     1       4.003   4.114  16.738  0.00  0.00    +0.000 A 
ATOM      5  C   UNL     1       3.654   5.218  17.494  0.00  0.00    +0.000 A 
ATOM      6  C   UNL     1       4.407   6.408  17.457  0.00  0.00    +0.000 A 
ATOM      7  C   UNL     1       3.708   7.470  18.262  0.00  0.00    +0.000 C 
ATOM      8  C   UNL     1       2.736   6.649  19.119  0.00  0.00    +0.000 C 
ATOM      9  C   UNL     1       2.436   5.357  18.354  0.00  0.00    +0.000 C 
ATOM     10  C   UNL     1       5.701   3.178  15.049  0.00  0.00    +0.000 C 
ATOM     11  C   UNL     1       6.615   4.002  14.143  0.00  0.00    +0.000 C 
ATOM     12  C   UNL     1       7.056   5.223  14.962  0.00  0.00    +0.000 C 
ENDROOT
BRANCH   1  15
ATOM     13  O   UNL     1       7.865   7.026  18.323  0.00  0.00    +0.000 OA
ATOM     14  C   UNL     1       7.365   7.901  17.621  0.00  0.00    +0.000 C 
ATOM     15  N   UNL     1       6.320   7.707  16.726  0.00  0.00    +0.000 N 
ATOM     16  H   UNL     1       6.349   8.281  15.893  0.00  0.00    +0.000 HD
BRANCH  14  17
ATOM     17  C   UNL     1       7.836   9.347  17.657  0.00  0.00    +0.000 C 
BRANCH  17  18
ATOM     18  C   UNL     1       8.907   9.603  18.727  0.00  0.00    +0.000 C 
BRANCH  18  19
ATOM     19  N   UNL     1       9.148  11.042  18.973  0.00  0.00    +0.000 NA
ATOM     20  C   UNL     1      10.162  11.655  18.107  0.00  0.00    +0.000 C 
ATOM     21  C   UNL     1      11.476  11.483  18.839  0.00  0.00    +0.000 C 
ATOM     22  C   UNL     1      11.088  11.668  20.292  0.00  0.00    +0.000 C 
ATOM     23  C   UNL     1       9.612  11.282  20.356  0.00  0.00    +0.000 C 
ENDBRANCH  18  19
ENDBRANCH  17  18
ENDBRANCH  14  17
ENDBRANCH   1  15
TORSDOF 4
ENDMDL
MODEL 7
REMARK VINA RESULT:      -7.1      1.857      2.759
REMARK  Name = 
REMARK  4 active torsions:
REMARK  status: ('A' for Active; 'I' for Inactive)
REMARK    1  A    between atoms: C_2  and  C_3
REMARK    2  A    between atoms: C_3  and  C_4
REMARK    3  A    between atoms: C_4  and  N_5
REMARK    4  A    between atoms: N_10  and  C_11
REMARK                            x       y       z     vdW  Elec       q    Type
REMARK                         _______ _______ _______ _____ _____    ______ ____
ROOT
ATOM      1  C   UNL     1       3.220   5.589  18.669  0.00  0.00    +0.000 A 
ATOM      2  C   UNL     1       2.985   4.633  19.658  0.00  0.00    +0.000 A 
ATOM      3  C   UNL     1       2.205   4.945  20.797  0.00  0.00    +0.000 A 
ATOM      4  C   UNL     1       1.624   6.189  20.981  0.00  0.00    +0.000 A 
ATOM      5  C   UNL     1       1.830   7.124  19.983  0.00  0.00    +0.000 A 
ATOM      6  C   UNL     1       2.621   6.837  18.853  0.00  0.00    +0.000 A 
ATOM      7  C   UNL     1       2.541   7.982  17.880  0.00  0.00    +0.000 C 
ATOM      8  C   UNL     1       2.004   9.122  18.754  0.00  0.00    +0.000 C 
ATOM      9  C   UNL     1       1.206   8.482  19.894  0.00  0.00    +0.000 C 
ATOM     10  C   UNL     1       2.161   3.799  21.762  0.00  0.00    +0.000 C 
ATOM     11  C   UNL     1       2.626   2.646  20.873  0.00  0.00    +0.000 C 
ATOM     12  C   UNL     1       3.563   3.256  19.821  0.00  0.00    +0.000 C 
ENDROOT
BRANCH   1  15
ATOM     13  O   UNL     1       3.144   3.493  16.639  0.00  0.00    +0.000 OA
ATOM     14  C   UNL     1       4.056   4.312  16.710  0.00  0.00    +0.000 C 
ATOM     15  N   UNL     1       4.098   5.389  17.587  0.00  0.00    +0.000 N 
ATOM     16  H   UNL     1       4.555   6.220  17.234  0.00  0.00    +0.000 HD
BRANCH  14  17
ATOM     17  C   UNL     1       5.294   4.235  15.828  0.00  0.00    +0.000 C 
BRANCH  17  18
ATOM     18  C   UNL     1       5.974   5.597  15.628  0.00  0.00    +0.000 C 
BRANCH  18  19
ATOM     19  N   UNL     1       7.331   5.659  16.214  0.00  0.00    +0.000 NA
ATOM     20  C   UNL     1       7.656   4.565  17.138  0.00  0.00    +0.000 C 
ATOM     21  C   UNL     1       7.226   5.051  18.506  0.00  0.00    +0.000 C 
ATOM     22  C   UNL     1       7.566   6.527  18.469  0.00  0.00    +0.000 C 
ATOM     23  C   UNL     1       7.527   6.902  16.990  0.00  0.00    +0.000 C 
ENDBRANCH  18  19
ENDBRANCH  17  18
ENDBRANCH  14  17
ENDBRANCH   1  15
TORSDOF 4
ENDMDL
MODEL 8
REMARK VINA RESULT:      -7.1      3.360      7.728
REMARK  Name = 
REMARK  4 active torsions:
REMARK  status: ('A' for Active; 'I' for Inactive)
REMARK    1  A    between atoms: C_2  and  C_3
REMARK    2  A    between atoms: C_3  and  C_4
REMARK    3  A    between atoms: C_4  and  N_5
REMARK    4  A    between atoms: N_10  and  C_11
REMARK                            x       y       z     vdW  Elec       q    Type
REMARK                         _______ _______ _______ _____ _____    ______ ____
ROOT
ATOM      1  C   UNL     1       2.774   5.754  18.704  0.00  0.00    +0.000 A 
ATOM      2  C   UNL     1       3.757   5.747  17.715  0.00  0.00    +0.000 A 
ATOM      3  C   UNL     1       4.178   4.533  17.119  0.00  0.00    +0.000 A 
ATOM      4  C   UNL     1       3.631   3.308  17.466  0.00  0.00    +0.000 A 
ATOM      5  C   UNL     1       2.633   3.322  18.423  0.00  0.00    +0.000 A 
ATOM      6  C   UNL     1       2.217   4.518  19.040  0.00  0.00    +0.000 A 
ATOM      7  C   UNL     1       1.027   4.243  19.920  0.00  0.00    +0.000 C 
ATOM      8  C   UNL     1       1.090   2.720  20.093  0.00  0.00    +0.000 C 
ATOM      9  C   UNL     1       1.809   2.154  18.866  0.00  0.00    +0.000 C 
ATOM     10  C   UNL     1       5.299   4.757  16.151  0.00  0.00    +0.000 C 
ATOM     11  C   UNL     1       5.193   6.264  15.918  0.00  0.00    +0.000 C 
ATOM     12  C   UNL     1       4.623   6.866  17.210  0.00  0.00    +0.000 C 
ENDROOT
BRANCH   1  15
ATOM     13  O   UNL     1       1.470   8.179  17.733  0.00  0.00    +0.000 OA
ATOM     14  C   UNL     1       1.877   8.063  18.886  0.00  0.00    +0.000 C 
ATOM     15  N   UNL     1       2.413   6.904  19.433  0.00  0.00    +0.000 N 
ATOM     16  H   UNL     1       2.222   6.758  20.416  0.00  0.00    +0.000 HD
BRANCH  14  17
ATOM     17  C   UNL     1       1.853   9.215  19.881  0.00  0.00    +0.000 C 
BRANCH  17  18
ATOM     18  C   UNL     1       1.255   8.822  21.240  0.00  0.00    +0.000 C 
BRANCH  18  19
ATOM     19  N   UNL     1      -0.179   9.163  21.362  0.00  0.00    +0.000 NA
ATOM     20  C   UNL     1      -0.573  10.419  20.712  0.00  0.00    +0.000 C 
ATOM     21  C   UNL     1      -0.402  11.491  21.767  0.00  0.00    +0.000 C 
ATOM     22  C   UNL     1      -0.830  10.791  23.041  0.00  0.00    +0.000 C 
ATOM     23  C   UNL     1      -0.580   9.308  22.777  0.00  0.00    +0.000 C 
ENDBRANCH  18  19
ENDBRANCH  17  18
ENDBRANCH  14  17
ENDBRANCH   1  15
TORSDOF 4
ENDMDL
MODEL 9
REMARK VINA RESULT:      -7.1      3.394      7.731
REMARK  Name = 
REMARK  4 active torsions:
REMARK  status: ('A' for Active; 'I' for Inactive)
REMARK    1  A    between atoms: C_2  and  C_3
REMARK    2  A    between atoms: C_3  and  C_4
REMARK    3  A    between atoms: C_4  and  N_5
REMARK    4  A    between atoms: N_10  and  C_11
REMARK                            x       y       z     vdW  Elec       q    Type
REMARK                         _______ _______ _______ _____ _____    ______ ____
ROOT
ATOM      1  C   UNL     1       2.870   5.869  18.592  0.00  0.00    +0.000 A 
ATOM      2  C   UNL     1       3.826   5.719  17.587  0.00  0.00    +0.000 A 
ATOM      3  C   UNL     1       4.181   4.434  17.110  0.00  0.00    +0.000 A 
ATOM      4  C   UNL     1       3.593   3.276  17.589  0.00  0.00    +0.000 A 
ATOM      5  C   UNL     1       2.621   3.429  18.561  0.00  0.00    +0.000 A 
ATOM      6  C   UNL     1       2.271   4.698  19.063  0.00  0.00    +0.000 A 
ATOM      7  C   UNL     1       1.093   4.565  19.991  0.00  0.00    +0.000 C 
ATOM      8  C   UNL     1       1.097   3.066  20.316  0.00  0.00    +0.000 C 
ATOM      9  C   UNL     1       1.761   2.348  19.138  0.00  0.00    +0.000 C 
ATOM     10  C   UNL     1       5.286   4.511  16.100  0.00  0.00    +0.000 C 
ATOM     11  C   UNL     1       5.235   5.990  15.718  0.00  0.00    +0.000 C 
ATOM     12  C   UNL     1       4.724   6.744  16.954  0.00  0.00    +0.000 C 
ENDROOT
BRANCH   1  15
ATOM     13  O   UNL     1       1.325   8.104  17.524  0.00  0.00    +0.000 OA
ATOM     14  C   UNL     1       1.909   8.159  18.603  0.00  0.00    +0.000 C 
ATOM     15  N   UNL     1       2.575   7.100  19.208  0.00  0.00    +0.000 N 
ATOM     16  H   UNL     1       2.544   7.088  20.219  0.00  0.00    +0.000 HD
BRANCH  14  17
ATOM     17  C   UNL     1       1.988   9.438  19.425  0.00  0.00    +0.000 C 
BRANCH  17  18
ATOM     18  C   UNL     1       0.685   9.752  20.173  0.00  0.00    +0.000 C 
BRANCH  18  19
ATOM     19  N   UNL     1       0.912  10.390  21.488  0.00  0.00    +0.000 NA
ATOM     20  C   UNL     1       0.962   9.463  22.625  0.00  0.00    +0.000 C 
ATOM     21  C   UNL     1      -0.466   9.348  23.116  0.00  0.00    +0.000 C 
ATOM     22  C   UNL     1      -1.007  10.751  22.931  0.00  0.00    +0.000 C 
ATOM     23  C   UNL     1      -0.162  11.354  21.812  0.00  0.00    +0.000 C 
ENDBRANCH  18  19
ENDBRANCH  17  18
ENDBRANCH  14  17
ENDBRANCH   1  15
TORSDOF 4
ENDMDL
