MODEL 1
REMARK VINA RESULT:      -8.4      0.000      0.000
REMARK  Name = 
REMARK  4 active torsions:
REMARK  status: ('A' for Active; 'I' for Inactive)
REMARK    1  A    between atoms: C_1  and  C_2
REMARK    2  A    between atoms: C_2  and  C_4
REMARK    3  A    between atoms: C_5  and  C_6
REMARK    4  A    between atoms: C_16  and  N_17
REMARK                            x       y       z     vdW  Elec       q    Type
REMARK                         _______ _______ _______ _____ _____    ______ ____
ROOT
ATOM      1  C   UNL     1       3.724   4.441  18.894  0.00  0.00    +0.000 A 
ATOM      2  C   UNL     1       4.230   4.981  17.683  0.00  0.00    +0.000 A 
ATOM      3  N   UNL     1       3.972   6.319  17.367  0.00  0.00    +0.000 N 
ATOM      4  O   UNL     1       4.454   6.850  16.318  0.00  0.00    +0.000 OA
ATOM      5  C   UNL     1       3.154   7.112  18.192  0.00  0.00    +0.000 A 
ATOM      6  C   UNL     1       2.818   8.451  17.873  0.00  0.00    +0.000 A 
ATOM      7  C   UNL     1       1.952   9.195  18.685  0.00  0.00    +0.000 A 
ATOM      8  F   UNL     1       1.644  10.436  18.286  0.00  0.00    +0.000 F 
ATOM      9  C   UNL     1       1.384   8.650  19.844  0.00  0.00    +0.000 A 
ATOM     10  C   UNL     1       1.801   7.352  20.179  0.00  0.00    +0.000 A 
ATOM     11  C   UNL     1       2.645   6.568  19.370  0.00  0.00    +0.000 A 
ATOM     12  N   UNL     1       2.965   5.248  19.744  0.00  0.00    +0.000 N 
ATOM     13  O   UNL     1       2.526   4.844  20.867  0.00  0.00    +0.000 OA
ENDROOT
BRANCH   9  14
ATOM     14  N   UNL     1       0.493   9.289  20.692  0.00  0.00    +0.000 N 
ATOM     15  C   UNL     1      -0.480  10.270  20.213  0.00  0.00    +0.000 C 
ATOM     16  C   UNL     1      -0.688  11.317  21.318  0.00  0.00    +0.000 C 
ATOM     17  C   UNL     1      -1.016  10.691  22.676  0.00  0.00    +0.000 C 
ATOM     18  C   UNL     1      -0.027   9.588  23.042  0.00  0.00    +0.000 C 
ATOM     19  C   UNL     1       0.075   8.573  21.909  0.00  0.00    +0.000 C 
ENDBRANCH   9  14
BRANCH   2  20
ATOM     20  C   UNL     1       5.059   4.331  16.619  0.00  0.00    +0.000 C 
ATOM     21  F   UNL     1       4.896   4.735  15.338  0.00  0.00    +0.000 F 
ATOM     22  F   UNL     1       6.397   4.525  16.821  0.00  0.00    +0.000 F 
ATOM     23  F   UNL     1       4.862   2.982  16.574  0.00  0.00    +0.000 F 
ENDBRANCH   2  20
BRANCH   1  25
ATOM     24  C   UNL     1       2.981   1.901  19.116  0.00  0.00    +0.000 C 
ATOM     25  C   UNL     1       3.957   3.031  19.356  0.00  0.00    +0.000 C 
ATOM     26  O   UNL     1       4.980   2.771  19.982  0.00  0.00    +0.000 OA
ENDBRANCH   1  25
TORSDOF 3
ENDMDL
MODEL 2
REMARK VINA RESULT:      -8.1      0.814      1.138
REMARK  Name = 
REMARK  4 active torsions:
REMARK  status: ('A' for Active; 'I' for Inactive)
REMARK    1  A    between atoms: C_1  and  C_2
REMARK    2  A    between atoms: C_2  and  C_4
REMARK    3  A    between atoms: C_5  and  C_6
REMARK    4  A    between atoms: C_16  and  N_17
REMARK                            x       y       z     vdW  Elec       q    Type
REMARK                         _______ _______ _______ _____ _____    ______ ____
ROOT
ATOM      1  C   UNL     1       3.192   4.199  19.298  0.00  0.00    +0.000 A 
ATOM      2  C   UNL     1       3.790   4.642  18.089  0.00  0.00    +0.000 A 
ATOM      3  N   UNL     1       3.680   5.987  17.722  0.00  0.00    +0.000 N 
ATOM      4  O   UNL     1       4.248   6.430  16.674  0.00  0.00    +0.000 OA
ATOM      5  C   UNL     1       2.922   6.888  18.491  0.00  0.00    +0.000 A 
ATOM      6  C   UNL     1       2.735   8.242  18.118  0.00  0.00    +0.000 A 
ATOM      7  C   UNL     1       1.923   9.097  18.873  0.00  0.00    +0.000 A 
ATOM      8  F   UNL     1       1.757  10.349  18.425  0.00  0.00    +0.000 F 
ATOM      9  C   UNL     1       1.265   8.655  20.029  0.00  0.00    +0.000 A 
ATOM     10  C   UNL     1       1.536   7.333  20.420  0.00  0.00    +0.000 A 
ATOM     11  C   UNL     1       2.322   6.440  19.666  0.00  0.00    +0.000 A 
ATOM     12  N   UNL     1       2.492   5.109  20.094  0.00  0.00    +0.000 N 
ATOM     13  O   UNL     1       1.977   4.791  21.212  0.00  0.00    +0.000 OA
ENDROOT
BRANCH   9  14
ATOM     14  N   UNL     1       0.418   9.410  20.823  0.00  0.00    +0.000 N 
ATOM     15  C   UNL     1      -0.347  10.542  20.301  0.00  0.00    +0.000 C 
ATOM     16  C   UNL     1      -0.480  11.587  21.418  0.00  0.00    +0.000 C 
ATOM     17  C   UNL     1      -1.015  10.994  22.725  0.00  0.00    +0.000 C 
ATOM     18  C   UNL     1      -0.245   9.741  23.133  0.00  0.00    +0.000 C 
ATOM     19  C   UNL     1      -0.208   8.745  21.979  0.00  0.00    +0.000 C 
ENDBRANCH   9  14
BRANCH   2  20
ATOM     20  C   UNL     1       4.582   3.875  17.077  0.00  0.00    +0.000 C 
ATOM     21  F   UNL     1       4.464   2.527  17.054  0.00  0.00    +0.000 F 
ATOM     22  F   UNL     1       4.252   4.222  15.797  0.00  0.00    +0.000 F 
ATOM     23  F   UNL     1       5.922   4.092  17.208  0.00  0.00    +0.000 F 
ENDBRANCH   2  20
BRANCH   1  25
ATOM     24  C   UNL     1       4.501   2.194  20.446  0.00  0.00    +0.000 C 
ATOM     25  C   UNL     1       3.264   2.790  19.812  0.00  0.00    +0.000 C 
ATOM     26  O   UNL     1       2.283   2.063  19.696  0.00  0.00    +0.000 OA
ENDBRANCH   1  25
TORSDOF 3
ENDMDL
MODEL 3
REMARK VINA RESULT:      -7.6      1.107      1.504
REMARK  Name = 
REMARK  4 active torsions:
REMARK  status: ('A' for Active; 'I' for Inactive)
REMARK    1  A    between atoms: C_1  and  C_2
REMARK    2  A    between atoms: C_2  and  C_4
REMARK    3  A    between atoms: C_5  and  C_6
REMARK    4  A    between atoms: C_16  and  N_17
REMARK                            x       y       z     vdW  Elec       q    Type
REMARK                         _______ _______ _______ _____ _____    ______ ____
ROOT
ATOM      1  C   UNL     1       2.899   4.520  19.234  0.00  0.00    +0.000 A 
ATOM      2  C   UNL     1       3.671   4.755  18.067  0.00  0.00    +0.000 A 
ATOM      3  N   UNL     1       3.763   6.053  17.554  0.00  0.00    +0.000 N 
ATOM      4  O   UNL     1       4.489   6.309  16.543  0.00  0.00    +0.000 OA
ATOM      5  C   UNL     1       3.040   7.111  18.132  0.00  0.00    +0.000 A 
ATOM      6  C   UNL     1       3.058   8.426  17.603  0.00  0.00    +0.000 A 
ATOM      7  C   UNL     1       2.277   9.445  18.166  0.00  0.00    +0.000 A 
ATOM      8  F   UNL     1       2.311  10.647  17.576  0.00  0.00    +0.000 F 
ATOM      9  C   UNL     1       1.451   9.210  19.273  0.00  0.00    +0.000 A 
ATOM     10  C   UNL     1       1.519   7.921  19.826  0.00  0.00    +0.000 A 
ATOM     11  C   UNL     1       2.268   6.869  19.266  0.00  0.00    +0.000 A 
ATOM     12  N   UNL     1       2.231   5.584  19.845  0.00  0.00    +0.000 N 
ATOM     13  O   UNL     1       1.565   5.454  20.920  0.00  0.00    +0.000 OA
ENDROOT
BRANCH   9  14
ATOM     14  N   UNL     1       0.620  10.138  19.880  0.00  0.00    +0.000 N 
ATOM     15  C   UNL     1       0.884  10.676  21.214  0.00  0.00    +0.000 C 
ATOM     16  C   UNL     1      -0.464  10.951  21.896  0.00  0.00    +0.000 C 
ATOM     17  C   UNL     1      -1.405  11.797  21.032  0.00  0.00    +0.000 C 
ATOM     18  C   UNL     1      -1.525  11.240  19.617  0.00  0.00    +0.000 C 
ATOM     19  C   UNL     1      -0.141  11.047  19.006  0.00  0.00    +0.000 C 
ENDBRANCH   9  14
BRANCH   2  20
ATOM     20  C   UNL     1       4.470   3.796  17.240  0.00  0.00    +0.000 C 
ATOM     21  F   UNL     1       4.447   3.931  15.894  0.00  0.00    +0.000 F 
ATOM     22  F   UNL     1       5.806   3.864  17.521  0.00  0.00    +0.000 F 
ATOM     23  F   UNL     1       4.092   2.503  17.454  0.00  0.00    +0.000 F 
ENDBRANCH   2  20
BRANCH   1  25
ATOM     24  C   UNL     1       1.518   2.309  19.745  0.00  0.00    +0.000 C 
ATOM     25  C   UNL     1       2.746   3.179  19.894  0.00  0.00    +0.000 C 
ATOM     26  O   UNL     1       3.649   2.764  20.614  0.00  0.00    +0.000 OA
ENDBRANCH   1  25
TORSDOF 3
ENDMDL
MODEL 4
REMARK VINA RESULT:      -7.5      0.903      1.355
REMARK  Name = 
REMARK  4 active torsions:
REMARK  status: ('A' for Active; 'I' for Inactive)
REMARK    1  A    between atoms: C_1  and  C_2
REMARK    2  A    between atoms: C_2  and  C_4
REMARK    3  A    between atoms: C_5  and  C_6
REMARK    4  A    between atoms: C_16  and  N_17
REMARK                            x       y       z     vdW  Elec       q    Type
REMARK                         _______ _______ _______ _____ _____    ______ ____
ROOT
ATOM      1  C   UNL     1       3.217   4.204  19.255  0.00  0.00    +0.000 A 
ATOM      2  C   UNL     1       3.761   4.590  18.002  0.00  0.00    +0.000 A 
ATOM      3  N   UNL     1       3.687   5.928  17.605  0.00  0.00    +0.000 N 
ATOM      4  O   UNL     1       4.212   6.319  16.515  0.00  0.00    +0.000 OA
ATOM      5  C   UNL     1       3.015   6.881  18.391  0.00  0.00    +0.000 A 
ATOM      6  C   UNL     1       2.865   8.232  17.993  0.00  0.00    +0.000 A 
ATOM      7  C   UNL     1       2.137   9.141  18.771  0.00  0.00    +0.000 A 
ATOM      8  F   UNL     1       1.999  10.387  18.299  0.00  0.00    +0.000 F 
ATOM      9  C   UNL     1       1.530   8.757  19.974  0.00  0.00    +0.000 A 
ATOM     10  C   UNL     1       1.766   7.435  20.385  0.00  0.00    +0.000 A 
ATOM     11  C   UNL     1       2.467   6.490  19.612  0.00  0.00    +0.000 A 
ATOM     12  N   UNL     1       2.604   5.163  20.065  0.00  0.00    +0.000 N 
ATOM     13  O   UNL     1       2.144   4.896  21.219  0.00  0.00    +0.000 OA
ENDROOT
BRANCH   9  14
ATOM     14  N   UNL     1       0.764   9.569  20.795  0.00  0.00    +0.000 N 
ATOM     15  C   UNL     1       0.785   9.454  22.253  0.00  0.00    +0.000 C 
ATOM     16  C   UNL     1      -0.614   9.805  22.782  0.00  0.00    +0.000 C 
ATOM     17  C   UNL     1      -1.134  11.142  22.246  0.00  0.00    +0.000 C 
ATOM     18  C   UNL     1      -1.002  11.231  20.728  0.00  0.00    +0.000 C 
ATOM     19  C   UNL     1       0.428  10.916  20.303  0.00  0.00    +0.000 C 
ENDBRANCH   9  14
BRANCH   2  20
ATOM     20  C   UNL     1       4.458   3.763  16.967  0.00  0.00    +0.000 C 
ATOM     21  F   UNL     1       4.228   4.036  15.661  0.00  0.00    +0.000 F 
ATOM     22  F   UNL     1       5.818   3.869  17.056  0.00  0.00    +0.000 F 
ATOM     23  F   UNL     1       4.161   2.437  17.090  0.00  0.00    +0.000 F 
ENDBRANCH   2  20
BRANCH   1  25
ATOM     24  C   UNL     1       4.493   2.185  20.416  0.00  0.00    +0.000 C 
ATOM     25  C   UNL     1       3.258   2.806  19.802  0.00  0.00    +0.000 C 
ATOM     26  O   UNL     1       2.251   2.109  19.732  0.00  0.00    +0.000 OA
ENDBRANCH   1  25
TORSDOF 3
ENDMDL
MODEL 5
REMARK VINA RESULT:      -7.5      0.618      1.392
REMARK  Name = 
REMARK  4 active torsions:
REMARK  status: ('A' for Active; 'I' for Inactive)
REMARK    1  A    between atoms: C_1  and  C_2
REMARK    2  A    between atoms: C_2  and  C_4
REMARK    3  A    between atoms: C_5  and  C_6
REMARK    4  A    between atoms: C_16  and  N_17
REMARK                            x       y       z     vdW  Elec       q    Type
REMARK                         _______ _______ _______ _____ _____    ______ ____
ROOT
ATOM      1  C   UNL     1       3.966   4.197  18.646  0.00  0.00    +0.000 A 
ATOM      2  C   UNL     1       4.471   4.680  17.410  0.00  0.00    +0.000 A 
ATOM      3  N   UNL     1       4.272   6.020  17.064  0.00  0.00    +0.000 N 
ATOM      4  O   UNL     1       4.756   6.500  15.992  0.00  0.00    +0.000 OA
ATOM      5  C   UNL     1       3.513   6.874  17.885  0.00  0.00    +0.000 A 
ATOM      6  C   UNL     1       3.236   8.219  17.538  0.00  0.00    +0.000 A 
ATOM      7  C   UNL     1       2.425   9.025  18.348  0.00  0.00    +0.000 A 
ATOM      8  F   UNL     1       2.169  10.270  17.923  0.00  0.00    +0.000 F 
ATOM      9  C   UNL     1       1.857   8.539  19.533  0.00  0.00    +0.000 A 
ATOM     10  C   UNL     1       2.217   7.231  19.893  0.00  0.00    +0.000 A 
ATOM     11  C   UNL     1       3.004   6.386  19.087  0.00  0.00    +0.000 A 
ATOM     12  N   UNL     1       3.266   5.062  19.490  0.00  0.00    +0.000 N 
ATOM     13  O   UNL     1       2.833   4.709  20.632  0.00  0.00    +0.000 OA
ENDROOT
BRANCH   9  14
ATOM     14  N   UNL     1       1.018   9.243  20.382  0.00  0.00    +0.000 N 
ATOM     15  C   UNL     1       1.001   9.024  21.828  0.00  0.00    +0.000 C 
ATOM     16  C   UNL     1      -0.432   9.253  22.331  0.00  0.00    +0.000 C 
ATOM     17  C   UNL     1      -1.016  10.592  21.872  0.00  0.00    +0.000 C 
ATOM     18  C   UNL     1      -0.843  10.799  20.371  0.00  0.00    +0.000 C 
ATOM     19  C   UNL     1       0.616  10.600  19.974  0.00  0.00    +0.000 C 
ENDBRANCH   9  14
BRANCH   2  20
ATOM     20  C   UNL     1       5.243   3.963  16.347  0.00  0.00    +0.000 C 
ATOM     21  F   UNL     1       5.228   2.610  16.341  0.00  0.00    +0.000 F 
ATOM     22  F   UNL     1       4.795   4.268  15.092  0.00  0.00    +0.000 F 
ATOM     23  F   UNL     1       6.569   4.283  16.376  0.00  0.00    +0.000 F 
ENDBRANCH   2  20
BRANCH   1  25
ATOM     24  C   UNL     1       3.247   1.641  18.723  0.00  0.00    +0.000 C 
ATOM     25  C   UNL     1       4.140   2.789  19.139  0.00  0.00    +0.000 C 
ATOM     26  O   UNL     1       5.036   2.546  19.941  0.00  0.00    +0.000 OA
ENDBRANCH   1  25
TORSDOF 3
ENDMDL
MODEL 6
REMARK VINA RESULT:      -7.5      1.219      1.526
REMARK  Name = 
REMARK  4 active torsions:
REMARK  status: ('A' for Active; 'I' for Inactive)
REMARK    1  A    between atoms: C_1  and  C_2
REMARK    2  A    between atoms: C_2  and  C_4
REMARK    3  A    between atoms: C_5  and  C_6
REMARK    4  A    between atoms: C_16  and  N_17
REMARK                            x       y       z     vdW  Elec       q    Type
REMARK                         _______ _______ _______ _____ _____    ______ ____
ROOT
ATOM      1  C   UNL     1       2.942   4.489  19.104  0.00  0.00    +0.000 A 
ATOM      2  C   UNL     1       3.758   4.782  17.979  0.00  0.00    +0.000 A 
ATOM      3  N   UNL     1       3.834   6.097  17.510  0.00  0.00    +0.000 N 
ATOM      4  O   UNL     1       4.596   6.405  16.540  0.00  0.00    +0.000 OA
ATOM      5  C   UNL     1       3.055   7.117  18.085  0.00  0.00    +0.000 A 
ATOM      6  C   UNL     1       3.057   8.447  17.597  0.00  0.00    +0.000 A 
ATOM      7  C   UNL     1       2.223   9.425  18.154  0.00  0.00    +0.000 A 
ATOM      8  F   UNL     1       2.246  10.645  17.601  0.00  0.00    +0.000 F 
ATOM      9  C   UNL     1       1.356   9.134  19.216  0.00  0.00    +0.000 A 
ATOM     10  C   UNL     1       1.438   7.830  19.733  0.00  0.00    +0.000 A 
ATOM     11  C   UNL     1       2.242   6.817  19.177  0.00  0.00    +0.000 A 
ATOM     12  N   UNL     1       2.217   5.515  19.714  0.00  0.00    +0.000 N 
ATOM     13  O   UNL     1       1.510   5.333  20.755  0.00  0.00    +0.000 OA
ENDROOT
BRANCH   9  14
ATOM     14  N   UNL     1       0.472  10.018  19.812  0.00  0.00    +0.000 N 
ATOM     15  C   UNL     1      -0.901  10.193  19.340  0.00  0.00    +0.000 C 
ATOM     16  C   UNL     1      -1.305  11.657  19.571  0.00  0.00    +0.000 C 
ATOM     17  C   UNL     1      -1.051  12.123  21.008  0.00  0.00    +0.000 C 
ATOM     18  C   UNL     1       0.365  11.787  21.468  0.00  0.00    +0.000 C 
ATOM     19  C   UNL     1       0.656  10.307  21.244  0.00  0.00    +0.000 C 
ENDBRANCH   9  14
BRANCH   2  20
ATOM     20  C   UNL     1       4.620   3.872  17.161  0.00  0.00    +0.000 C 
ATOM     21  F   UNL     1       4.398   2.539  17.231  0.00  0.00    +0.000 F 
ATOM     22  F   UNL     1       4.503   4.120  15.822  0.00  0.00    +0.000 F 
ATOM     23  F   UNL     1       5.942   4.009  17.470  0.00  0.00    +0.000 F 
ENDBRANCH   2  20
BRANCH   1  25
ATOM     24  C   UNL     1       3.771   2.559  20.729  0.00  0.00    +0.000 C 
ATOM     25  C   UNL     1       2.802   3.125  19.716  0.00  0.00    +0.000 C 
ATOM     26  O   UNL     1       1.867   2.410  19.367  0.00  0.00    +0.000 OA
ENDBRANCH   1  25
TORSDOF 3
ENDMDL
MODEL 7
REMARK VINA RESULT:      -7.4      3.337      8.034
REMARK  Name = 
REMARK  4 active torsions:
REMARK  status: ('A' for Active; 'I' for Inactive)
REMARK    1  A    between atoms: C_1  and  C_2
REMARK    2  A    between atoms: C_2  and  C_4
REMARK    3  A    between atoms: C_5  and  C_6
REMARK    4  A    between atoms: C_16  and  N_17
REMARK                            x       y       z     vdW  Elec       q    Type
REMARK                         _______ _______ _______ _____ _____    ______ ____
ROOT
ATOM      1  C   UNL     1       0.736  11.173  19.684  0.00  0.00    +0.000 A 
ATOM      2  C   UNL     1       0.225  10.844  20.967  0.00  0.00    +0.000 A 
ATOM      3  N   UNL     1       0.461   9.570  21.493  0.00  0.00    +0.000 N 
ATOM      4  O   UNL     1       0.065   9.259  22.660  0.00  0.00    +0.000 OA
ATOM      5  C   UNL     1       1.127   8.588  20.739  0.00  0.00    +0.000 A 
ATOM      6  C   UNL     1       1.329   7.268  21.213  0.00  0.00    +0.000 A 
ATOM      7  C   UNL     1       1.943   6.296  20.413  0.00  0.00    +0.000 A 
ATOM      8  F   UNL     1       2.050   5.058  20.915  0.00  0.00    +0.000 F 
ATOM      9  C   UNL     1       2.386   6.585  19.115  0.00  0.00    +0.000 A 
ATOM     10  C   UNL     1       2.249   7.921  18.705  0.00  0.00    +0.000 A 
ATOM     11  C   UNL     1       1.609   8.913  19.473  0.00  0.00    +0.000 A 
ATOM     12  N   UNL     1       1.453  10.217  18.962  0.00  0.00    +0.000 N 
ATOM     13  O   UNL     1       1.982  10.461  17.832  0.00  0.00    +0.000 OA
ENDROOT
BRANCH   9  14
ATOM     14  N   UNL     1       2.972   5.689  18.236  0.00  0.00    +0.000 N 
ATOM     15  C   UNL     1       2.248   4.545  17.682  0.00  0.00    +0.000 C 
ATOM     16  C   UNL     1       3.247   3.396  17.484  0.00  0.00    +0.000 C 
ATOM     17  C   UNL     1       4.490   3.819  16.694  0.00  0.00    +0.000 C 
ATOM     18  C   UNL     1       5.111   5.093  17.259  0.00  0.00    +0.000 C 
ATOM     19  C   UNL     1       4.056   6.189  17.374  0.00  0.00    +0.000 C 
ENDBRANCH   9  14
BRANCH   2  20
ATOM     20  C   UNL     1      -0.563  11.681  21.925  0.00  0.00    +0.000 C 
ATOM     21  F   UNL     1      -0.729  11.229  23.190  0.00  0.00    +0.000 F 
ATOM     22  F   UNL     1       0.006  12.908  22.122  0.00  0.00    +0.000 F 
ATOM     23  F   UNL     1      -1.833  11.906  21.480  0.00  0.00    +0.000 F 
ENDBRANCH   2  20
BRANCH   1  25
ATOM     24  C   UNL     1      -0.650  12.910  18.229  0.00  0.00    +0.000 C 
ATOM     25  C   UNL     1       0.573  12.513  19.026  0.00  0.00    +0.000 C 
ATOM     26  O   UNL     1       1.483  13.332  19.110  0.00  0.00    +0.000 OA
ENDBRANCH   1  25
TORSDOF 3
ENDMDL
MODEL 8
REMARK VINA RESULT:      -7.4      1.818      3.418
REMARK  Name = 
REMARK  4 active torsions:
REMARK  status: ('A' for Active; 'I' for Inactive)
REMARK    1  A    between atoms: C_1  and  C_2
REMARK    2  A    between atoms: C_2  and  C_4
REMARK    3  A    between atoms: C_5  and  C_6
REMARK    4  A    between atoms: C_16  and  N_17
REMARK                            x       y       z     vdW  Elec       q    Type
REMARK                         _______ _______ _______ _____ _____    ______ ____
ROOT
ATOM      1  C   UNL     1       4.253   6.246  17.603  0.00  0.00    +0.000 A 
ATOM      2  C   UNL     1       4.123   5.255  18.611  0.00  0.00    +0.000 A 
ATOM      3  N   UNL     1       3.185   5.435  19.633  0.00  0.00    +0.000 N 
ATOM      4  O   UNL     1       3.004   4.544  20.521  0.00  0.00    +0.000 OA
ATOM      5  C   UNL     1       2.426   6.615  19.719  0.00  0.00    +0.000 A 
ATOM      6  C   UNL     1       1.513   6.860  20.774  0.00  0.00    +0.000 A 
ATOM      7  C   UNL     1       0.817   8.073  20.864  0.00  0.00    +0.000 A 
ATOM      8  F   UNL     1       0.011   8.247  21.920  0.00  0.00    +0.000 F 
ATOM      9  C   UNL     1       0.991   9.092  19.917  0.00  0.00    +0.000 A 
ATOM     10  C   UNL     1       1.837   8.787  18.839  0.00  0.00    +0.000 A 
ATOM     11  C   UNL     1       2.574   7.592  18.736  0.00  0.00    +0.000 A 
ATOM     12  N   UNL     1       3.453   7.390  17.654  0.00  0.00    +0.000 N 
ATOM     13  O   UNL     1       3.481   8.290  16.757  0.00  0.00    +0.000 OA
ENDROOT
BRANCH   9  14
ATOM     14  N   UNL     1       0.378  10.334  19.936  0.00  0.00    +0.000 N 
ATOM     15  C   UNL     1       0.818  11.413  20.819  0.00  0.00    +0.000 C 
ATOM     16  C   UNL     1      -0.414  12.240  21.216  0.00  0.00    +0.000 C 
ATOM     17  C   UNL     1      -1.242  12.690  20.009  0.00  0.00    +0.000 C 
ATOM     18  C   UNL     1      -1.549  11.527  19.071  0.00  0.00    +0.000 C 
ATOM     19  C   UNL     1      -0.264  10.798  18.694  0.00  0.00    +0.000 C 
ENDBRANCH   9  14
BRANCH   2  20
ATOM     20  C   UNL     1       4.853   3.959  18.777  0.00  0.00    +0.000 C 
ATOM     21  F   UNL     1       4.831   3.357  19.989  0.00  0.00    +0.000 F 
ATOM     22  F   UNL     1       4.361   2.984  17.954  0.00  0.00    +0.000 F 
ATOM     23  F   UNL     1       6.180   4.081  18.487  0.00  0.00    +0.000 F 
ENDBRANCH   2  20
BRANCH   1  25
ATOM     24  C   UNL     1       5.071   5.133  15.334  0.00  0.00    +0.000 C 
ATOM     25  C   UNL     1       5.202   6.154  16.442  0.00  0.00    +0.000 C 
ATOM     26  O   UNL     1       6.153   6.927  16.389  0.00  0.00    +0.000 OA
ENDBRANCH   1  25
TORSDOF 3
ENDMDL
MODEL 9
REMARK VINA RESULT:      -7.4      1.869      3.443
REMARK  Name = 
REMARK  4 active torsions:
REMARK  status: ('A' for Active; 'I' for Inactive)
REMARK    1  A    between atoms: C_1  and  C_2
REMARK    2  A    between atoms: C_2  and  C_4
REMARK    3  A    between atoms: C_5  and  C_6
REMARK    4  A    between atoms: C_16  and  N_17
REMARK                            x       y       z     vdW  Elec       q    Type
REMARK                         _______ _______ _______ _____ _____    ______ ____
ROOT
ATOM      1  C   UNL     1       4.252   6.194  17.573  0.00  0.00    +0.000 A 
ATOM      2  C   UNL     1       4.109   5.259  18.631  0.00  0.00    +0.000 A 
ATOM      3  N   UNL     1       3.172   5.503  19.640  0.00  0.00    +0.000 N 
ATOM      4  O   UNL     1       2.980   4.662  20.574  0.00  0.00    +0.000 OA
ATOM      5  C   UNL     1       2.427   6.695  19.664  0.00  0.00    +0.000 A 
ATOM      6  C   UNL     1       1.515   7.006  20.702  0.00  0.00    +0.000 A 
ATOM      7  C   UNL     1       0.834   8.230  20.728  0.00  0.00    +0.000 A 
ATOM      8  F   UNL     1       0.029   8.468  21.772  0.00  0.00    +0.000 F 
ATOM      9  C   UNL     1       1.020   9.195  19.729  0.00  0.00    +0.000 A 
ATOM     10  C   UNL     1       1.865   8.825  18.670  0.00  0.00    +0.000 A 
ATOM     11  C   UNL     1       2.587   7.617  18.630  0.00  0.00    +0.000 A 
ATOM     12  N   UNL     1       3.466   7.348  17.562  0.00  0.00    +0.000 N 
ATOM     13  O   UNL     1       3.505   8.200  16.619  0.00  0.00    +0.000 OA
ENDROOT
BRANCH   9  14
ATOM     14  N   UNL     1       0.422  10.444  19.682  0.00  0.00    +0.000 N 
ATOM     15  C   UNL     1      -0.990  10.626  19.349  0.00  0.00    +0.000 C 
ATOM     16  C   UNL     1      -1.139  11.959  18.602  0.00  0.00    +0.000 C 
ATOM     17  C   UNL     1      -0.494  13.132  19.346  0.00  0.00    +0.000 C 
ATOM     18  C   UNL     1       0.937  12.813  19.770  0.00  0.00    +0.000 C 
ATOM     19  C   UNL     1       0.977  11.500  20.545  0.00  0.00    +0.000 C 
ENDBRANCH   9  14
BRANCH   2  20
ATOM     20  C   UNL     1       4.823   3.965  18.866  0.00  0.00    +0.000 C 
ATOM     21  F   UNL     1       4.744   3.398  20.093  0.00  0.00    +0.000 F 
ATOM     22  F   UNL     1       4.362   2.969  18.051  0.00  0.00    +0.000 F 
ATOM     23  F   UNL     1       6.163   4.072  18.631  0.00  0.00    +0.000 F 
ENDBRANCH   2  20
BRANCH   1  25
ATOM     24  C   UNL     1       5.041   4.975  15.349  0.00  0.00    +0.000 C 
ATOM     25  C   UNL     1       5.201   6.030  16.420  0.00  0.00    +0.000 C 
ATOM     26  O   UNL     1       6.177   6.770  16.343  0.00  0.00    +0.000 OA
ENDBRANCH   1  25
TORSDOF 3
ENDMDL
