MODEL 1
REMARK VINA RESULT:      -8.0      0.000      0.000
REMARK  Name = 
REMARK  2 active torsions:
REMARK  status: ('A' for Active; 'I' for Inactive)
REMARK    1  A    between atoms: C_7  and  C_8
REMARK    2  A    between atoms: N_13  and  C_14
REMARK                            x       y       z     vdW  Elec       q    Type
REMARK                         _______ _______ _______ _____ _____    ______ ____
ROOT
ATOM      1  C   UNL     1       3.966   5.572  19.374  0.00  0.00    +0.000 A 
ATOM      2  C   UNL     1       3.285   4.525  19.959  0.00  0.00    +0.000 A 
ATOM      3  C   UNL     1       2.059   4.835  20.483  0.00  0.00    +0.000 A 
ATOM      4  N   UNL     1       1.533   6.069  20.450  0.00  0.00    +0.000 NA
ATOM      5  C   UNL     1       2.253   7.029  19.855  0.00  0.00    +0.000 A 
ATOM      6  N   UNL     1       1.734   8.307  19.744  0.00  0.00    +0.000 N 
ATOM      7  N   UNL     1       3.463   6.825  19.314  0.00  0.00    +0.000 NA
ATOM      8  H   UNL     1       2.492   8.940  19.516  0.00  0.00    +0.000 HD
ENDROOT
BRANCH   1  15
ATOM      9  C   UNL     1       5.541   4.738  14.984  0.00  0.00    +0.000 A 
ATOM     10  C   UNL     1       6.907   4.501  15.059  0.00  0.00    +0.000 A 
ATOM     11  N   UNL     1       7.657   4.556  16.183  0.00  0.00    +0.000 NA
ATOM     12  C   UNL     1       6.935   4.865  17.276  0.00  0.00    +0.000 A 
ATOM     13  N   UNL     1       7.458   4.976  18.530  0.00  0.00    +0.000 N 
ATOM     14  C   UNL     1       6.461   5.269  19.427  0.00  0.00    +0.000 A 
ATOM     15  C   UNL     1       5.261   5.347  18.735  0.00  0.00    +0.000 A 
ATOM     16  C   UNL     1       5.568   5.116  17.355  0.00  0.00    +0.000 A 
ATOM     17  C   UNL     1       4.843   5.052  16.151  0.00  0.00    +0.000 A 
ATOM     18  H   UNL     1       8.437   4.837  18.738  0.00  0.00    +0.000 HD
ENDBRANCH   1  15
BRANCH   6  19
ATOM     19  C   UNL     1       0.783   8.748  20.761  0.00  0.00    +0.000 C 
ATOM     20  C   UNL     1       0.197  10.103  20.349  0.00  0.00    +0.000 C 
ATOM     21  C   UNL     1      -0.700  10.644  21.453  0.00  0.00    +0.000 C 
ATOM     22  O   UNL     1       0.018  10.742  22.682  0.00  0.00    +0.000 OA
ATOM     23  C   UNL     1       0.487   9.473  23.136  0.00  0.00    +0.000 C 
ATOM     24  C   UNL     1       1.457   8.867  22.131  0.00  0.00    +0.000 C 
ENDBRANCH   6  19
TORSDOF 2
ENDMDL
MODEL 2
REMARK VINA RESULT:      -7.6      2.244      3.469
REMARK  Name = 
REMARK  2 active torsions:
REMARK  status: ('A' for Active; 'I' for Inactive)
REMARK    1  A    between atoms: C_7  and  C_8
REMARK    2  A    between atoms: N_13  and  C_14
REMARK                            x       y       z     vdW  Elec       q    Type
REMARK                         _______ _______ _______ _____ _____    ______ ____
ROOT
ATOM      1  C   UNL     1       2.483   7.061  18.889  0.00  0.00    +0.000 A 
ATOM      2  C   UNL     1       2.304   7.829  17.759  0.00  0.00    +0.000 A 
ATOM      3  C   UNL     1       1.705   9.044  17.957  0.00  0.00    +0.000 A 
ATOM      4  N   UNL     1       1.303   9.481  19.160  0.00  0.00    +0.000 NA
ATOM      5  C   UNL     1       1.522   8.679  20.210  0.00  0.00    +0.000 A 
ATOM      6  N   UNL     1       1.176   9.103  21.482  0.00  0.00    +0.000 N 
ATOM      7  N   UNL     1       2.099   7.472  20.118  0.00  0.00    +0.000 NA
ATOM      8  H   UNL     1       1.166   8.296  22.095  0.00  0.00    +0.000 HD
ENDROOT
BRANCH   1  15
ATOM      9  C   UNL     1       1.194   2.507  18.643  0.00  0.00    +0.000 A 
ATOM     10  C   UNL     1       2.346   1.735  18.697  0.00  0.00    +0.000 A 
ATOM     11  N   UNL     1       3.611   2.208  18.754  0.00  0.00    +0.000 NA
ATOM     12  C   UNL     1       3.665   3.553  18.763  0.00  0.00    +0.000 A 
ATOM     13  N   UNL     1       4.823   4.271  18.822  0.00  0.00    +0.000 N 
ATOM     14  C   UNL     1       4.538   5.613  18.847  0.00  0.00    +0.000 A 
ATOM     15  C   UNL     1       3.160   5.768  18.806  0.00  0.00    +0.000 A 
ATOM     16  C   UNL     1       2.601   4.451  18.724  0.00  0.00    +0.000 A 
ATOM     17  C   UNL     1       1.310   3.898  18.657  0.00  0.00    +0.000 A 
ATOM     18  H   UNL     1       5.738   3.846  18.860  0.00  0.00    +0.000 HD
ENDBRANCH   1  15
BRANCH   6  19
ATOM     19  C   UNL     1       0.069  10.047  21.609  0.00  0.00    +0.000 C 
ATOM     20  C   UNL     1       0.576  11.461  21.299  0.00  0.00    +0.000 C 
ATOM     21  C   UNL     1      -0.527  12.479  21.549  0.00  0.00    +0.000 C 
ATOM     22  O   UNL     1      -1.008  12.382  22.889  0.00  0.00    +0.000 OA
ATOM     23  C   UNL     1      -1.577  11.103  23.167  0.00  0.00    +0.000 C 
ATOM     24  C   UNL     1      -0.533  10.006  23.016  0.00  0.00    +0.000 C 
ENDBRANCH   6  19
TORSDOF 2
ENDMDL
MODEL 3
REMARK VINA RESULT:      -7.6      2.897      4.045
REMARK  Name = 
REMARK  2 active torsions:
REMARK  status: ('A' for Active; 'I' for Inactive)
REMARK    1  A    between atoms: C_7  and  C_8
REMARK    2  A    between atoms: N_13  and  C_14
REMARK                            x       y       z     vdW  Elec       q    Type
REMARK                         _______ _______ _______ _____ _____    ______ ____
ROOT
ATOM      1  C   UNL     1       2.294   7.401  19.013  0.00  0.00    +0.000 A 
ATOM      2  C   UNL     1       1.926   7.277  20.336  0.00  0.00    +0.000 A 
ATOM      3  C   UNL     1       1.283   8.358  20.876  0.00  0.00    +0.000 A 
ATOM      4  N   UNL     1       1.022   9.480  20.188  0.00  0.00    +0.000 NA
ATOM      5  C   UNL     1       1.404   9.518  18.905  0.00  0.00    +0.000 A 
ATOM      6  N   UNL     1       1.110  10.630  18.134  0.00  0.00    +0.000 N 
ATOM      7  N   UNL     1       2.039   8.512  18.287  0.00  0.00    +0.000 NA
ATOM      8  H   UNL     1       1.684  10.599  17.300  0.00  0.00    +0.000 HD
ENDROOT
BRANCH   1  15
ATOM      9  C   UNL     1       1.495   2.765  18.446  0.00  0.00    +0.000 A 
ATOM     10  C   UNL     1       2.566   2.231  17.742  0.00  0.00    +0.000 A 
ATOM     11  N   UNL     1       3.619   2.928  17.259  0.00  0.00    +0.000 NA
ATOM     12  C   UNL     1       3.545   4.243  17.537  0.00  0.00    +0.000 A 
ATOM     13  N   UNL     1       4.486   5.156  17.163  0.00  0.00    +0.000 N 
ATOM     14  C   UNL     1       4.137   6.401  17.625  0.00  0.00    +0.000 A 
ATOM     15  C   UNL     1       2.939   6.289  18.317  0.00  0.00    +0.000 A 
ATOM     16  C   UNL     1       2.546   4.913  18.238  0.00  0.00    +0.000 A 
ATOM     17  C   UNL     1       1.473   4.135  18.708  0.00  0.00    +0.000 A 
ATOM     18  H   UNL     1       5.317   4.916  16.642  0.00  0.00    +0.000 HD
ENDBRANCH   1  15
BRANCH   6  19
ATOM     19  C   UNL     1       0.991  11.918  18.812  0.00  0.00    +0.000 C 
ATOM     20  C   UNL     1      -0.426  12.465  18.610  0.00  0.00    +0.000 C 
ATOM     21  C   UNL     1      -0.537  13.864  19.197  0.00  0.00    +0.000 C 
ATOM     22  O   UNL     1       0.440  14.731  18.623  0.00  0.00    +0.000 OA
ATOM     23  C   UNL     1       1.772  14.293  18.887  0.00  0.00    +0.000 C 
ATOM     24  C   UNL     1       2.018  12.920  18.276  0.00  0.00    +0.000 C 
ENDBRANCH   6  19
TORSDOF 2
ENDMDL
MODEL 4
REMARK VINA RESULT:      -7.6      2.376      4.081
REMARK  Name = 
REMARK  2 active torsions:
REMARK  status: ('A' for Active; 'I' for Inactive)
REMARK    1  A    between atoms: C_7  and  C_8
REMARK    2  A    between atoms: N_13  and  C_14
REMARK                            x       y       z     vdW  Elec       q    Type
REMARK                         _______ _______ _______ _____ _____    ______ ____
ROOT
ATOM      1  C   UNL     1       2.185   7.545  19.137  0.00  0.00    +0.000 A 
ATOM      2  C   UNL     1       1.981   8.219  17.952  0.00  0.00    +0.000 A 
ATOM      3  C   UNL     1       1.369   9.438  18.063  0.00  0.00    +0.000 A 
ATOM      4  N   UNL     1       0.977   9.964  19.233  0.00  0.00    +0.000 NA
ATOM      5  C   UNL     1       1.220   9.250  20.340  0.00  0.00    +0.000 A 
ATOM      6  N   UNL     1       0.886   9.770  21.578  0.00  0.00    +0.000 N 
ATOM      7  N   UNL     1       1.812   8.047  20.335  0.00  0.00    +0.000 NA
ATOM      8  H   UNL     1       0.895   9.014  22.254  0.00  0.00    +0.000 HD
ENDROOT
BRANCH   1  15
ATOM      9  C   UNL     1       1.566   3.314  21.181  0.00  0.00    +0.000 A 
ATOM     10  C   UNL     1       2.663   2.524  20.865  0.00  0.00    +0.000 A 
ATOM     11  N   UNL     1       3.694   2.887  20.069  0.00  0.00    +0.000 NA
ATOM     12  C   UNL     1       3.568   4.139  19.592  0.00  0.00    +0.000 A 
ATOM     13  N   UNL     1       4.479   4.738  18.773  0.00  0.00    +0.000 N 
ATOM     14  C   UNL     1       4.078   6.021  18.490  0.00  0.00    +0.000 A 
ATOM     15  C   UNL     1       2.878   6.257  19.147  0.00  0.00    +0.000 A 
ATOM     16  C   UNL     1       2.538   5.044  19.830  0.00  0.00    +0.000 A 
ATOM     17  C   UNL     1       1.490   4.606  20.659  0.00  0.00    +0.000 A 
ATOM     18  H   UNL     1       5.323   4.285  18.454  0.00  0.00    +0.000 HD
ENDBRANCH   1  15
BRANCH   6  19
ATOM     19  C   UNL     1      -0.231  10.708  21.646  0.00  0.00    +0.000 C 
ATOM     20  C   UNL     1       0.297  12.135  21.456  0.00  0.00    +0.000 C 
ATOM     21  C   UNL     1      -0.829  13.140  21.650  0.00  0.00    +0.000 C 
ATOM     22  O   UNL     1      -1.435  12.977  22.931  0.00  0.00    +0.000 OA
ATOM     23  C   UNL     1      -2.023  11.687  23.091  0.00  0.00    +0.000 C 
ATOM     24  C   UNL     1      -0.964  10.597  22.986  0.00  0.00    +0.000 C 
ENDBRANCH   6  19
TORSDOF 2
ENDMDL
MODEL 5
REMARK VINA RESULT:      -7.5      2.534      3.301
REMARK  Name = 
REMARK  2 active torsions:
REMARK  status: ('A' for Active; 'I' for Inactive)
REMARK    1  A    between atoms: C_7  and  C_8
REMARK    2  A    between atoms: N_13  and  C_14
REMARK                            x       y       z     vdW  Elec       q    Type
REMARK                         _______ _______ _______ _____ _____    ______ ____
ROOT
ATOM      1  C   UNL     1       2.575   6.842  18.769  0.00  0.00    +0.000 A 
ATOM      2  C   UNL     1       2.165   6.683  20.075  0.00  0.00    +0.000 A 
ATOM      3  C   UNL     1       1.541   7.764  20.636  0.00  0.00    +0.000 A 
ATOM      4  N   UNL     1       1.335   8.918  19.983  0.00  0.00    +0.000 NA
ATOM      5  C   UNL     1       1.755   8.989  18.713  0.00  0.00    +0.000 A 
ATOM      6  N   UNL     1       1.520  10.137  17.976  0.00  0.00    +0.000 N 
ATOM      7  N   UNL     1       2.376   7.986  18.077  0.00  0.00    +0.000 NA
ATOM      8  H   UNL     1       2.116  10.118  17.157  0.00  0.00    +0.000 HD
ENDROOT
BRANCH   1  15
ATOM      9  C   UNL     1       6.754   6.016  16.692  0.00  0.00    +0.000 A 
ATOM     10  C   UNL     1       6.685   4.774  16.076  0.00  0.00    +0.000 A 
ATOM     11  N   UNL     1       5.628   3.931  16.114  0.00  0.00    +0.000 NA
ATOM     12  C   UNL     1       4.595   4.423  16.824  0.00  0.00    +0.000 A 
ATOM     13  N   UNL     1       3.414   3.766  17.007  0.00  0.00    +0.000 N 
ATOM     14  C   UNL     1       2.559   4.544  17.748  0.00  0.00    +0.000 A 
ATOM     15  C   UNL     1       3.204   5.735  18.050  0.00  0.00    +0.000 A 
ATOM     16  C   UNL     1       4.517   5.646  17.483  0.00  0.00    +0.000 A 
ATOM     17  C   UNL     1       5.651   6.475  17.414  0.00  0.00    +0.000 A 
ATOM     18  H   UNL     1       3.221   2.853  16.623  0.00  0.00    +0.000 HD
ENDBRANCH   1  15
BRANCH   6  19
ATOM     19  C   UNL     1       1.422  11.403  18.697  0.00  0.00    +0.000 C 
ATOM     20  C   UNL     1      -0.006  11.947  18.567  0.00  0.00    +0.000 C 
ATOM     21  C   UNL     1      -0.100  13.327  19.202  0.00  0.00    +0.000 C 
ATOM     22  O   UNL     1       0.849  14.217  18.615  0.00  0.00    +0.000 OA
ATOM     23  C   UNL     1       2.193  13.779  18.813  0.00  0.00    +0.000 C 
ATOM     24  C   UNL     1       2.421  12.427  18.151  0.00  0.00    +0.000 C 
ENDBRANCH   6  19
TORSDOF 2
ENDMDL
MODEL 6
REMARK VINA RESULT:      -7.4      2.107      2.314
REMARK  Name = 
REMARK  2 active torsions:
REMARK  status: ('A' for Active; 'I' for Inactive)
REMARK    1  A    between atoms: C_7  and  C_8
REMARK    2  A    between atoms: N_13  and  C_14
REMARK                            x       y       z     vdW  Elec       q    Type
REMARK                         _______ _______ _______ _____ _____    ______ ____
ROOT
ATOM      1  C   UNL     1       4.206   6.852  17.888  0.00  0.00    +0.000 A 
ATOM      2  C   UNL     1       3.809   5.999  18.896  0.00  0.00    +0.000 A 
ATOM      3  C   UNL     1       2.623   6.311  19.503  0.00  0.00    +0.000 A 
ATOM      4  N   UNL     1       1.878   7.374  19.165  0.00  0.00    +0.000 NA
ATOM      5  C   UNL     1       2.328   8.148  18.168  0.00  0.00    +0.000 A 
ATOM      6  N   UNL     1       1.572   9.226  17.742  0.00  0.00    +0.000 N 
ATOM      7  N   UNL     1       3.476   7.926  17.514  0.00  0.00    +0.000 NA
ATOM      8  H   UNL     1       2.164   9.831  17.186  0.00  0.00    +0.000 HD
ENDROOT
BRANCH   1  15
ATOM      9  C   UNL     1       5.478   4.104  14.243  0.00  0.00    +0.000 A 
ATOM     10  C   UNL     1       6.849   4.233  14.071  0.00  0.00    +0.000 A 
ATOM     11  N   UNL     1       7.661   5.045  14.784  0.00  0.00    +0.000 NA
ATOM     12  C   UNL     1       7.002   5.744  15.727  0.00  0.00    +0.000 A 
ATOM     13  N   UNL     1       7.598   6.626  16.580  0.00  0.00    +0.000 N 
ATOM     14  C   UNL     1       6.662   7.148  17.438  0.00  0.00    +0.000 A 
ATOM     15  C   UNL     1       5.429   6.587  17.134  0.00  0.00    +0.000 A 
ATOM     16  C   UNL     1       5.642   5.709  16.021  0.00  0.00    +0.000 A 
ATOM     17  C   UNL     1       4.847   4.852  15.239  0.00  0.00    +0.000 A 
ATOM     18  H   UNL     1       8.587   6.828  16.569  0.00  0.00    +0.000 HD
ENDBRANCH   1  15
BRANCH   6  19
ATOM     19  C   UNL     1       0.691   9.869  18.713  0.00  0.00    +0.000 C 
ATOM     20  C   UNL     1      -0.683  10.100  18.073  0.00  0.00    +0.000 C 
ATOM     21  C   UNL     1      -1.578  10.884  19.021  0.00  0.00    +0.000 C 
ATOM     22  O   UNL     1      -0.964  12.118  19.390  0.00  0.00    +0.000 OA
ATOM     23  C   UNL     1       0.271  11.922  20.079  0.00  0.00    +0.000 C 
ATOM     24  C   UNL     1       1.275  11.203  19.189  0.00  0.00    +0.000 C 
ENDBRANCH   6  19
TORSDOF 2
ENDMDL
MODEL 7
REMARK VINA RESULT:      -7.4      1.945      2.124
REMARK  Name = 
REMARK  2 active torsions:
REMARK  status: ('A' for Active; 'I' for Inactive)
REMARK    1  A    between atoms: C_7  and  C_8
REMARK    2  A    between atoms: N_13  and  C_14
REMARK                            x       y       z     vdW  Elec       q    Type
REMARK                         _______ _______ _______ _____ _____    ______ ____
ROOT
ATOM      1  C   UNL     1       3.985   6.267  18.788  0.00  0.00    +0.000 A 
ATOM      2  C   UNL     1       3.295   5.649  19.808  0.00  0.00    +0.000 A 
ATOM      3  C   UNL     1       2.100   6.224  20.149  0.00  0.00    +0.000 A 
ATOM      4  N   UNL     1       1.613   7.322  19.552  0.00  0.00    +0.000 NA
ATOM      5  C   UNL     1       2.340   7.857  18.563  0.00  0.00    +0.000 A 
ATOM      6  N   UNL     1       1.858   8.959  17.876  0.00  0.00    +0.000 N 
ATOM      7  N   UNL     1       3.520   7.368  18.157  0.00  0.00    +0.000 NA
ATOM      8  H   UNL     1       2.625   9.376  17.363  0.00  0.00    +0.000 HD
ENDROOT
BRANCH   1  15
ATOM      9  C   UNL     1       5.874   5.166  14.584  0.00  0.00    +0.000 A 
ATOM     10  C   UNL     1       7.099   4.555  14.814  0.00  0.00    +0.000 A 
ATOM     11  N   UNL     1       7.669   4.362  16.025  0.00  0.00    +0.000 NA
ATOM     12  C   UNL     1       6.913   4.826  17.037  0.00  0.00    +0.000 A 
ATOM     13  N   UNL     1       7.265   4.745  18.352  0.00  0.00    +0.000 N 
ATOM     14  C   UNL     1       6.270   5.277  19.134  0.00  0.00    +0.000 A 
ATOM     15  C   UNL     1       5.246   5.710  18.303  0.00  0.00    +0.000 A 
ATOM     16  C   UNL     1       5.669   5.446  16.960  0.00  0.00    +0.000 A 
ATOM     17  C   UNL     1       5.132   5.626  15.673  0.00  0.00    +0.000 A 
ATOM     18  H   UNL     1       8.129   4.332  18.672  0.00  0.00    +0.000 HD
ENDBRANCH   1  15
BRANCH   6  19
ATOM     19  C   UNL     1       0.962   9.867  18.586  0.00  0.00    +0.000 C 
ATOM     20  C   UNL     1      -0.404   9.875  17.889  0.00  0.00    +0.000 C 
ATOM     21  C   UNL     1      -1.314  10.910  18.533  0.00  0.00    +0.000 C 
ATOM     22  O   UNL     1      -0.710  12.202  18.503  0.00  0.00    +0.000 OA
ATOM     23  C   UNL     1       0.516  12.241  19.234  0.00  0.00    +0.000 C 
ATOM     24  C   UNL     1       1.534  11.287  18.626  0.00  0.00    +0.000 C 
ENDBRANCH   6  19
TORSDOF 2
ENDMDL
MODEL 8
REMARK VINA RESULT:      -7.3      3.094      8.389
REMARK  Name = 
REMARK  2 active torsions:
REMARK  status: ('A' for Active; 'I' for Inactive)
REMARK    1  A    between atoms: C_7  and  C_8
REMARK    2  A    between atoms: N_13  and  C_14
REMARK                            x       y       z     vdW  Elec       q    Type
REMARK                         _______ _______ _______ _____ _____    ______ ____
ROOT
ATOM      1  C   UNL     1       1.151   9.016  19.929  0.00  0.00    +0.000 A 
ATOM      2  C   UNL     1       1.197   9.781  18.784  0.00  0.00    +0.000 A 
ATOM      3  C   UNL     1       1.939   9.265  17.756  0.00  0.00    +0.000 A 
ATOM      4  N   UNL     1       2.595   8.098  17.833  0.00  0.00    +0.000 NA
ATOM      5  C   UNL     1       2.493   7.410  18.978  0.00  0.00    +0.000 A 
ATOM      6  N   UNL     1       3.105   6.173  19.092  0.00  0.00    +0.000 N 
ATOM      7  N   UNL     1       1.792   7.831  20.040  0.00  0.00    +0.000 NA
ATOM      8  H   UNL     1       3.146   5.928  20.074  0.00  0.00    +0.000 HD
ENDROOT
BRANCH   1  15
ATOM      9  C   UNL     1      -0.416  13.122  21.700  0.00  0.00    +0.000 A 
ATOM     10  C   UNL     1      -1.059  12.851  22.901  0.00  0.00    +0.000 A 
ATOM     11  N   UNL     1      -1.248  11.623  23.435  0.00  0.00    +0.000 NA
ATOM     12  C   UNL     1      -0.730  10.640  22.676  0.00  0.00    +0.000 A 
ATOM     13  N   UNL     1      -0.786   9.316  23.000  0.00  0.00    +0.000 N 
ATOM     14  C   UNL     1      -0.142   8.574  22.041  0.00  0.00    +0.000 A 
ATOM     15  C   UNL     1       0.345   9.442  21.072  0.00  0.00    +0.000 A 
ATOM     16  C   UNL     1      -0.055  10.761  21.464  0.00  0.00    +0.000 A 
ATOM     17  C   UNL     1       0.103  12.062  20.956  0.00  0.00    +0.000 A 
ATOM     18  H   UNL     1      -1.226   8.967  23.839  0.00  0.00    +0.000 HD
ENDBRANCH   1  15
BRANCH   6  19
ATOM     19  C   UNL     1       4.304   5.929  18.296  0.00  0.00    +0.000 C 
ATOM     20  C   UNL     1       3.989   4.886  17.217  0.00  0.00    +0.000 C 
ATOM     21  C   UNL     1       5.255   4.521  16.456  0.00  0.00    +0.000 C 
ATOM     22  O   UNL     1       6.264   4.053  17.351  0.00  0.00    +0.000 OA
ATOM     23  C   UNL     1       6.644   5.047  18.302  0.00  0.00    +0.000 C 
ATOM     24  C   UNL     1       5.459   5.438  19.174  0.00  0.00    +0.000 C 
ENDBRANCH   6  19
TORSDOF 2
ENDMDL
MODEL 9
REMARK VINA RESULT:      -7.3      3.001      4.708
REMARK  Name = 
REMARK  2 active torsions:
REMARK  status: ('A' for Active; 'I' for Inactive)
REMARK    1  A    between atoms: C_7  and  C_8
REMARK    2  A    between atoms: N_13  and  C_14
REMARK                            x       y       z     vdW  Elec       q    Type
REMARK                         _______ _______ _______ _____ _____    ______ ____
ROOT
ATOM      1  C   UNL     1       1.851   7.755  19.749  0.00  0.00    +0.000 A 
ATOM      2  C   UNL     1       1.446   7.824  21.064  0.00  0.00    +0.000 A 
ATOM      3  C   UNL     1       0.907   9.020  21.456  0.00  0.00    +0.000 A 
ATOM      4  N   UNL     1       0.777  10.074  20.637  0.00  0.00    +0.000 NA
ATOM      5  C   UNL     1       1.186   9.923  19.370  0.00  0.00    +0.000 A 
ATOM      6  N   UNL     1       1.025  10.961  18.468  0.00  0.00    +0.000 N 
ATOM      7  N   UNL     1       1.727   8.793  18.893  0.00  0.00    +0.000 NA
ATOM      8  H   UNL     1       1.609  10.775  17.661  0.00  0.00    +0.000 HD
ENDROOT
BRANCH   1  15
ATOM      9  C   UNL     1       1.235   3.116  20.495  0.00  0.00    +0.000 A 
ATOM     10  C   UNL     1       2.152   2.433  19.709  0.00  0.00    +0.000 A 
ATOM     11  N   UNL     1       3.025   2.996  18.844  0.00  0.00    +0.000 NA
ATOM     12  C   UNL     1       2.934   4.339  18.813  0.00  0.00    +0.000 A 
ATOM     13  N   UNL     1       3.710   5.138  18.026  0.00  0.00    +0.000 N 
ATOM     14  C   UNL     1       3.395   6.456  18.248  0.00  0.00    +0.000 A 
ATOM     15  C   UNL     1       2.392   6.510  19.205  0.00  0.00    +0.000 A 
ATOM     16  C   UNL     1       2.077   5.154  19.547  0.00  0.00    +0.000 A 
ATOM     17  C   UNL     1       1.187   4.509  20.423  0.00  0.00    +0.000 A 
ATOM     18  H   UNL     1       4.416   4.783  17.398  0.00  0.00    +0.000 HD
ENDBRANCH   1  15
BRANCH   6  19
ATOM     19  C   UNL     1       1.026  12.324  18.990  0.00  0.00    +0.000 C 
ATOM     20  C   UNL     1      -0.185  13.079  18.429  0.00  0.00    +0.000 C 
ATOM     21  C   UNL     1      -0.136  14.539  18.855  0.00  0.00    +0.000 C 
ATOM     22  O   UNL     1       1.088  15.144  18.443  0.00  0.00    +0.000 OA
ATOM     23  C   UNL     1       2.226  14.518  19.036  0.00  0.00    +0.000 C 
ATOM     24  C   UNL     1       2.316  13.058  18.614  0.00  0.00    +0.000 C 
ENDBRANCH   6  19
TORSDOF 2
ENDMDL
