MODEL 1
REMARK VINA RESULT:      -6.8      0.000      0.000
REMARK  Name = 
REMARK  3 active torsions:
REMARK  status: ('A' for Active; 'I' for Inactive)
REMARK    1  A    between atoms: C_2  and  C_12
REMARK    2  A    between atoms: N_3  and  C_4
REMARK    3  A    between atoms: C_10  and  O_11
REMARK                            x       y       z     vdW  Elec       q    Type
REMARK                         _______ _______ _______ _____ _____    ______ ____
ROOT
ATOM      1  O   UNL     1       5.043   2.267  19.679  0.00  0.00    +0.000 OA
ATOM      2  C   UNL     1       4.099   3.005  19.411  0.00  0.00    +0.000 C 
ATOM      3  N   UNL     1       4.122   3.967  18.414  0.00  0.00    +0.000 N 
ATOM      4  H   UNL     1       3.364   4.639  18.391  0.00  0.00    +0.000 HD
ENDROOT
BRANCH   3   5
ATOM      5  C   UNL     1       5.199   4.207  17.524  0.00  0.00    +0.000 A 
ATOM      6  C   UNL     1       5.119   3.966  16.149  0.00  0.00    +0.000 A 
ATOM      7  C   UNL     1       6.221   4.183  15.325  0.00  0.00    +0.000 A 
ATOM      8 CL   UNL     1       6.098   3.865  13.637  0.00  0.00    +0.000 Cl
ATOM      9  C   UNL     1       7.419   4.653  15.854  0.00  0.00    +0.000 A 
ATOM     10  C   UNL     1       7.510   4.930  17.219  0.00  0.00    +0.000 A 
ATOM     11  C   UNL     1       6.399   4.721  18.042  0.00  0.00    +0.000 A 
BRANCH  11  12
ATOM     12  O   UNL     1       6.479   5.003  19.384  0.00  0.00    +0.000 OA
ATOM     13  H   UNL     1       5.888   5.747  19.578  0.00  0.00    +0.000 HD
ENDBRANCH  11  12
ENDBRANCH   3   5
BRANCH   2  14
ATOM     14  C   UNL     1       2.876   2.926  20.185  0.00  0.00    +0.000 A 
ATOM     15  C   UNL     1       1.584   3.220  19.790  0.00  0.00    +0.000 A 
ATOM     16  C   UNL     1       0.755   3.018  20.914  0.00  0.00    +0.000 A 
ATOM     17  C   UNL     1       1.591   2.619  21.931  0.00  0.00    +0.000 A 
ATOM     18  O   UNL     1       2.880   2.547  21.499  0.00  0.00    +0.000 OA
ENDBRANCH   2  14
TORSDOF 3
ENDMDL
MODEL 2
REMARK VINA RESULT:      -6.7      0.874      1.074
REMARK  Name = 
REMARK  3 active torsions:
REMARK  status: ('A' for Active; 'I' for Inactive)
REMARK    1  A    between atoms: C_2  and  C_12
REMARK    2  A    between atoms: N_3  and  C_4
REMARK    3  A    between atoms: C_10  and  O_11
REMARK                            x       y       z     vdW  Elec       q    Type
REMARK                         _______ _______ _______ _____ _____    ______ ____
ROOT
ATOM      1  O   UNL     1       5.187   2.944  19.631  0.00  0.00    +0.000 OA
ATOM      2  C   UNL     1       4.138   3.455  19.247  0.00  0.00    +0.000 C 
ATOM      3  N   UNL     1       4.022   4.221  18.098  0.00  0.00    +0.000 N 
ATOM      4  H   UNL     1       3.162   4.742  17.965  0.00  0.00    +0.000 HD
ENDROOT
BRANCH   3   5
ATOM      5  C   UNL     1       5.062   4.483  17.172  0.00  0.00    +0.000 A 
ATOM      6  C   UNL     1       5.038   4.024  15.850  0.00  0.00    +0.000 A 
ATOM      7  C   UNL     1       6.106   4.278  14.992  0.00  0.00    +0.000 A 
ATOM      8 CL   UNL     1       6.056   3.690  13.375  0.00  0.00    +0.000 Cl
ATOM      9  C   UNL     1       7.212   5.000  15.432  0.00  0.00    +0.000 A 
ATOM     10  C   UNL     1       7.240   5.494  16.737  0.00  0.00    +0.000 A 
ATOM     11  C   UNL     1       6.162   5.246  17.593  0.00  0.00    +0.000 A 
BRANCH  11  12
ATOM     12  O   UNL     1       6.180   5.740  18.875  0.00  0.00    +0.000 OA
ATOM     13  H   UNL     1       7.036   5.527  19.275  0.00  0.00    +0.000 HD
ENDBRANCH  11  12
ENDBRANCH   3   5
BRANCH   2  14
ATOM     14  C   UNL     1       2.930   3.305  20.033  0.00  0.00    +0.000 A 
ATOM     15  C   UNL     1       2.761   2.658  21.243  0.00  0.00    +0.000 A 
ATOM     16  C   UNL     1       1.394   2.761  21.577  0.00  0.00    +0.000 A 
ATOM     17  C   UNL     1       0.807   3.461  20.548  0.00  0.00    +0.000 A 
ATOM     18  O   UNL     1       1.731   3.808  19.609  0.00  0.00    +0.000 OA
ENDBRANCH   2  14
TORSDOF 3
ENDMDL
MODEL 3
REMARK VINA RESULT:      -6.6      1.295      1.295
REMARK  Name = 
REMARK  3 active torsions:
REMARK  status: ('A' for Active; 'I' for Inactive)
REMARK    1  A    between atoms: C_2  and  C_12
REMARK    2  A    between atoms: N_3  and  C_4
REMARK    3  A    between atoms: C_10  and  O_11
REMARK                            x       y       z     vdW  Elec       q    Type
REMARK                         _______ _______ _______ _____ _____    ______ ____
ROOT
ATOM      1  O   UNL     1       2.633   5.068  17.905  0.00  0.00    +0.000 OA
ATOM      2  C   UNL     1       3.230   4.232  18.577  0.00  0.00    +0.000 C 
ATOM      3  N   UNL     1       4.510   3.781  18.298  0.00  0.00    +0.000 N 
ATOM      4  H   UNL     1       4.843   2.967  18.803  0.00  0.00    +0.000 HD
ENDROOT
BRANCH   3   5
ATOM      5  C   UNL     1       5.339   4.246  17.247  0.00  0.00    +0.000 A 
ATOM      6  C   UNL     1       5.217   3.799  15.927  0.00  0.00    +0.000 A 
ATOM      7  C   UNL     1       6.085   4.262  14.939  0.00  0.00    +0.000 A 
ATOM      8 CL   UNL     1       5.921   3.685  13.325  0.00  0.00    +0.000 Cl
ATOM      9  C   UNL     1       7.081   5.184  15.246  0.00  0.00    +0.000 A 
ATOM     10  C   UNL     1       7.198   5.666  16.551  0.00  0.00    +0.000 A 
ATOM     11  C   UNL     1       6.320   5.208  17.538  0.00  0.00    +0.000 A 
BRANCH  11  12
ATOM     12  O   UNL     1       6.422   5.688  18.821  0.00  0.00    +0.000 OA
ATOM     13  H   UNL     1       5.655   6.253  19.001  0.00  0.00    +0.000 HD
ENDBRANCH  11  12
ENDBRANCH   3   5
BRANCH   2  14
ATOM     14  C   UNL     1       2.580   3.624  19.722  0.00  0.00    +0.000 A 
ATOM     15  C   UNL     1       1.242   3.648  20.067  0.00  0.00    +0.000 A 
ATOM     16  C   UNL     1       1.120   2.942  21.284  0.00  0.00    +0.000 A 
ATOM     17  C   UNL     1       2.393   2.535  21.612  0.00  0.00    +0.000 A 
ATOM     18  O   UNL     1       3.288   2.933  20.665  0.00  0.00    +0.000 OA
ENDBRANCH   2  14
TORSDOF 3
ENDMDL
MODEL 4
REMARK VINA RESULT:      -6.6      2.979      6.297
REMARK  Name = 
REMARK  3 active torsions:
REMARK  status: ('A' for Active; 'I' for Inactive)
REMARK    1  A    between atoms: C_2  and  C_12
REMARK    2  A    between atoms: N_3  and  C_4
REMARK    3  A    between atoms: C_10  and  O_11
REMARK                            x       y       z     vdW  Elec       q    Type
REMARK                         _______ _______ _______ _____ _____    ______ ____
ROOT
ATOM      1  O   UNL     1       5.021   5.833  15.987  0.00  0.00    +0.000 OA
ATOM      2  C   UNL     1       5.376   4.728  15.586  0.00  0.00    +0.000 C 
ATOM      3  N   UNL     1       5.120   3.541  16.254  0.00  0.00    +0.000 N 
ATOM      4  H   UNL     1       5.605   2.709  15.936  0.00  0.00    +0.000 HD
ENDROOT
BRANCH   3   5
ATOM      5  C   UNL     1       4.373   3.411  17.451  0.00  0.00    +0.000 A 
ATOM      6  C   UNL     1       3.027   3.031  17.471  0.00  0.00    +0.000 A 
ATOM      7  C   UNL     1       2.329   2.957  18.675  0.00  0.00    +0.000 A 
ATOM      8 CL   UNL     1       0.669   2.500  18.669  0.00  0.00    +0.000 Cl
ATOM      9  C   UNL     1       2.961   3.250  19.880  0.00  0.00    +0.000 A 
ATOM     10  C   UNL     1       4.313   3.600  19.883  0.00  0.00    +0.000 A 
ATOM     11  C   UNL     1       5.013   3.664  18.675  0.00  0.00    +0.000 A 
BRANCH  11  12
ATOM     12  O   UNL     1       6.346   3.996  18.674  0.00  0.00    +0.000 OA
ATOM     13  H   UNL     1       6.512   4.605  17.939  0.00  0.00    +0.000 HD
ENDBRANCH  11  12
ENDBRANCH   3   5
BRANCH   2  14
ATOM     14  C   UNL     1       6.145   4.613  14.363  0.00  0.00    +0.000 A 
ATOM     15  C   UNL     1       5.976   3.725  13.318  0.00  0.00    +0.000 A 
ATOM     16  C   UNL     1       6.997   3.994  12.381  0.00  0.00    +0.000 A 
ATOM     17  C   UNL     1       7.734   5.026  12.914  0.00  0.00    +0.000 A 
ATOM     18  O   UNL     1       7.220   5.420  14.113  0.00  0.00    +0.000 OA
ENDBRANCH   2  14
TORSDOF 3
ENDMDL
MODEL 5
REMARK VINA RESULT:      -6.5      3.107      6.396
REMARK  Name = 
REMARK  3 active torsions:
REMARK  status: ('A' for Active; 'I' for Inactive)
REMARK    1  A    between atoms: C_2  and  C_12
REMARK    2  A    between atoms: N_3  and  C_4
REMARK    3  A    between atoms: C_10  and  O_11
REMARK                            x       y       z     vdW  Elec       q    Type
REMARK                         _______ _______ _______ _____ _____    ______ ____
ROOT
ATOM      1  O   UNL     1       6.916   4.442  16.981  0.00  0.00    +0.000 OA
ATOM      2  C   UNL     1       6.119   4.582  16.056  0.00  0.00    +0.000 C 
ATOM      3  N   UNL     1       4.749   4.707  16.222  0.00  0.00    +0.000 N 
ATOM      4  H   UNL     1       4.167   4.638  15.395  0.00  0.00    +0.000 HD
ENDROOT
BRANCH   3   5
ATOM      5  C   UNL     1       4.069   4.751  17.465  0.00  0.00    +0.000 A 
ATOM      6  C   UNL     1       3.504   5.922  17.982  0.00  0.00    +0.000 A 
ATOM      7  C   UNL     1       2.880   5.917  19.228  0.00  0.00    +0.000 A 
ATOM      8 CL   UNL     1       2.204   7.375  19.847  0.00  0.00    +0.000 Cl
ATOM      9  C   UNL     1       2.799   4.746  19.976  0.00  0.00    +0.000 A 
ATOM     10  C   UNL     1       3.329   3.561  19.463  0.00  0.00    +0.000 A 
ATOM     11  C   UNL     1       3.946   3.566  18.208  0.00  0.00    +0.000 A 
BRANCH  11  12
ATOM     12  O   UNL     1       4.458   2.400  17.693  0.00  0.00    +0.000 OA
ATOM     13  H   UNL     1       5.125   2.625  17.026  0.00  0.00    +0.000 HD
ENDBRANCH  11  12
ENDBRANCH   3   5
BRANCH   2  14
ATOM     14  C   UNL     1       6.593   4.583  14.686  0.00  0.00    +0.000 A 
ATOM     15  C   UNL     1       6.166   3.808  13.625  0.00  0.00    +0.000 A 
ATOM     16  C   UNL     1       6.962   4.160  12.513  0.00  0.00    +0.000 A 
ATOM     17  C   UNL     1       7.832   5.125  12.964  0.00  0.00    +0.000 A 
ATOM     18  O   UNL     1       7.611   5.400  14.280  0.00  0.00    +0.000 OA
ENDBRANCH   2  14
TORSDOF 3
ENDMDL
MODEL 6
REMARK VINA RESULT:      -6.5      3.220      6.392
REMARK  Name = 
REMARK  3 active torsions:
REMARK  status: ('A' for Active; 'I' for Inactive)
REMARK    1  A    between atoms: C_2  and  C_12
REMARK    2  A    between atoms: N_3  and  C_4
REMARK    3  A    between atoms: C_10  and  O_11
REMARK                            x       y       z     vdW  Elec       q    Type
REMARK                         _______ _______ _______ _____ _____    ______ ____
ROOT
ATOM      1  O   UNL     1       6.982   4.327  16.744  0.00  0.00    +0.000 OA
ATOM      2  C   UNL     1       6.196   4.531  15.822  0.00  0.00    +0.000 C 
ATOM      3  N   UNL     1       4.830   4.693  15.988  0.00  0.00    +0.000 N 
ATOM      4  H   UNL     1       4.250   4.678  15.156  0.00  0.00    +0.000 HD
ENDROOT
BRANCH   3   5
ATOM      5  C   UNL     1       4.144   4.707  17.228  0.00  0.00    +0.000 A 
ATOM      6  C   UNL     1       3.601   3.558  17.811  0.00  0.00    +0.000 A 
ATOM      7  C   UNL     1       2.903   3.635  19.015  0.00  0.00    +0.000 A 
ATOM      8 CL   UNL     1       2.233   2.206  19.703  0.00  0.00    +0.000 Cl
ATOM      9  C   UNL     1       2.741   4.856  19.663  0.00  0.00    +0.000 A 
ATOM     10  C   UNL     1       3.303   6.009  19.113  0.00  0.00    +0.000 A 
ATOM     11  C   UNL     1       4.012   5.927  17.911  0.00  0.00    +0.000 A 
BRANCH  11  12
ATOM     12  O   UNL     1       4.578   7.057  17.372  0.00  0.00    +0.000 OA
ATOM     13  H   UNL     1       5.358   6.796  16.858  0.00  0.00    +0.000 HD
ENDBRANCH  11  12
ENDBRANCH   3   5
BRANCH   2  14
ATOM     14  C   UNL     1       6.677   4.575  14.456  0.00  0.00    +0.000 A 
ATOM     15  C   UNL     1       6.259   3.830  13.369  0.00  0.00    +0.000 A 
ATOM     16  C   UNL     1       7.060   4.217  12.274  0.00  0.00    +0.000 A 
ATOM     17  C   UNL     1       7.924   5.171  12.758  0.00  0.00    +0.000 A 
ATOM     18  O   UNL     1       7.695   5.406  14.080  0.00  0.00    +0.000 OA
ENDBRANCH   2  14
TORSDOF 3
ENDMDL
MODEL 7
REMARK VINA RESULT:      -6.4      2.939      6.298
REMARK  Name = 
REMARK  3 active torsions:
REMARK  status: ('A' for Active; 'I' for Inactive)
REMARK    1  A    between atoms: C_2  and  C_12
REMARK    2  A    between atoms: N_3  and  C_4
REMARK    3  A    between atoms: C_10  and  O_11
REMARK                            x       y       z     vdW  Elec       q    Type
REMARK                         _______ _______ _______ _____ _____    ______ ____
ROOT
ATOM      1  O   UNL     1       5.683   4.266  18.127  0.00  0.00    +0.000 OA
ATOM      2  C   UNL     1       5.033   4.245  17.085  0.00  0.00    +0.000 C 
ATOM      3  N   UNL     1       3.654   4.119  17.031  0.00  0.00    +0.000 N 
ATOM      4  H   UNL     1       3.233   3.935  16.127  0.00  0.00    +0.000 HD
ENDROOT
BRANCH   3   5
ATOM      5  C   UNL     1       2.787   4.053  18.150  0.00  0.00    +0.000 A 
ATOM      6  C   UNL     1       2.495   5.160  18.954  0.00  0.00    +0.000 A 
ATOM      7  C   UNL     1       1.666   5.030  20.066  0.00  0.00    +0.000 A 
ATOM      8 CL   UNL     1       1.335   6.406  21.046  0.00  0.00    +0.000 Cl
ATOM      9  C   UNL     1       1.104   3.798  20.391  0.00  0.00    +0.000 A 
ATOM     10  C   UNL     1       1.358   2.689  19.583  0.00  0.00    +0.000 A 
ATOM     11  C   UNL     1       2.182   2.824  18.462  0.00  0.00    +0.000 A 
BRANCH  11  12
ATOM     12  O   UNL     1       2.425   1.739  17.656  0.00  0.00    +0.000 OA
ATOM     13  H   UNL     1       2.772   1.019  18.204  0.00  0.00    +0.000 HD
ENDBRANCH  11  12
ENDBRANCH   3   5
BRANCH   2  14
ATOM     14  C   UNL     1       5.712   4.318  15.806  0.00  0.00    +0.000 A 
ATOM     15  C   UNL     1       5.354   3.734  14.605  0.00  0.00    +0.000 A 
ATOM     16  C   UNL     1       6.356   4.073  13.670  0.00  0.00    +0.000 A 
ATOM     17  C   UNL     1       7.269   4.838  14.358  0.00  0.00    +0.000 A 
ATOM     18  O   UNL     1       6.884   5.005  15.654  0.00  0.00    +0.000 OA
ENDBRANCH   2  14
TORSDOF 3
ENDMDL
MODEL 8
REMARK VINA RESULT:      -6.4      2.001      2.396
REMARK  Name = 
REMARK  3 active torsions:
REMARK  status: ('A' for Active; 'I' for Inactive)
REMARK    1  A    between atoms: C_2  and  C_12
REMARK    2  A    between atoms: N_3  and  C_4
REMARK    3  A    between atoms: C_10  and  O_11
REMARK                            x       y       z     vdW  Elec       q    Type
REMARK                         _______ _______ _______ _____ _____    ______ ____
ROOT
ATOM      1  O   UNL     1       5.171   2.862  19.794  0.00  0.00    +0.000 OA
ATOM      2  C   UNL     1       4.177   3.529  19.520  0.00  0.00    +0.000 C 
ATOM      3  N   UNL     1       4.170   4.579  18.616  0.00  0.00    +0.000 N 
ATOM      4  H   UNL     1       3.350   5.176  18.594  0.00  0.00    +0.000 HD
ENDROOT
BRANCH   3   5
ATOM      5  C   UNL     1       5.275   5.004  17.836  0.00  0.00    +0.000 A 
ATOM      6  C   UNL     1       5.959   6.201  18.073  0.00  0.00    +0.000 A 
ATOM      7  C   UNL     1       7.015   6.589  17.251  0.00  0.00    +0.000 A 
ATOM      8 CL   UNL     1       7.830   8.074  17.558  0.00  0.00    +0.000 Cl
ATOM      9  C   UNL     1       7.414   5.789  16.185  0.00  0.00    +0.000 A 
ATOM     10  C   UNL     1       6.764   4.575  15.951  0.00  0.00    +0.000 A 
ATOM     11  C   UNL     1       5.712   4.183  16.784  0.00  0.00    +0.000 A 
BRANCH  11  12
ATOM     12  O   UNL     1       5.077   2.984  16.567  0.00  0.00    +0.000 OA
ATOM     13  H   UNL     1       5.730   2.272  16.645  0.00  0.00    +0.000 HD
ENDBRANCH  11  12
ENDBRANCH   3   5
BRANCH   2  14
ATOM     14  C   UNL     1       2.918   3.261  20.188  0.00  0.00    +0.000 A 
ATOM     15  C   UNL     1       2.705   2.768  21.461  0.00  0.00    +0.000 A 
ATOM     16  C   UNL     1       1.308   2.653  21.628  0.00  0.00    +0.000 A 
ATOM     17  C   UNL     1       0.752   3.077  20.444  0.00  0.00    +0.000 A 
ATOM     18  O   UNL     1       1.718   3.460  19.564  0.00  0.00    +0.000 OA
ENDBRANCH   2  14
TORSDOF 3
ENDMDL
MODEL 9
REMARK VINA RESULT:      -6.4      2.853      6.189
REMARK  Name = 
REMARK  3 active torsions:
REMARK  status: ('A' for Active; 'I' for Inactive)
REMARK    1  A    between atoms: C_2  and  C_12
REMARK    2  A    between atoms: N_3  and  C_4
REMARK    3  A    between atoms: C_10  and  O_11
REMARK                            x       y       z     vdW  Elec       q    Type
REMARK                         _______ _______ _______ _____ _____    ______ ____
ROOT
ATOM      1  O   UNL     1       6.184   5.432  17.952  0.00  0.00    +0.000 OA
ATOM      2  C   UNL     1       5.529   4.850  17.092  0.00  0.00    +0.000 C 
ATOM      3  N   UNL     1       4.300   4.252  17.322  0.00  0.00    +0.000 N 
ATOM      4  H   UNL     1       3.927   3.648  16.598  0.00  0.00    +0.000 HD
ENDROOT
BRANCH   3   5
ATOM      5  C   UNL     1       3.593   4.267  18.550  0.00  0.00    +0.000 A 
ATOM      6  C   UNL     1       2.901   5.390  19.017  0.00  0.00    +0.000 A 
ATOM      7  C   UNL     1       2.254   5.362  20.251  0.00  0.00    +0.000 A 
ATOM      8 CL   UNL     1       1.422   6.763  20.807  0.00  0.00    +0.000 Cl
ATOM      9  C   UNL     1       2.276   4.213  21.036  0.00  0.00    +0.000 A 
ATOM     10  C   UNL     1       2.933   3.072  20.573  0.00  0.00    +0.000 A 
ATOM     11  C   UNL     1       3.573   3.100  19.330  0.00  0.00    +0.000 A 
BRANCH  11  12
ATOM     12  O   UNL     1       4.210   1.976  18.864  0.00  0.00    +0.000 OA
ATOM     13  H   UNL     1       3.562   1.422  18.404  0.00  0.00    +0.000 HD
ENDBRANCH  11  12
ENDBRANCH   3   5
BRANCH   2  14
ATOM     14  C   UNL     1       6.051   4.724  15.745  0.00  0.00    +0.000 A 
ATOM     15  C   UNL     1       5.582   3.940  14.708  0.00  0.00    +0.000 A 
ATOM     16  C   UNL     1       6.453   4.141  13.615  0.00  0.00    +0.000 A 
ATOM     17  C   UNL     1       7.405   5.032  14.053  0.00  0.00    +0.000 A 
ATOM     18  O   UNL     1       7.166   5.403  15.341  0.00  0.00    +0.000 OA
ENDBRANCH   2  14
TORSDOF 3
ENDMDL
