MODEL 1
REMARK VINA RESULT:      -7.9      0.000      0.000
REMARK  Name = 
REMARK  4 active torsions:
REMARK  status: ('A' for Active; 'I' for Inactive)
REMARK    1  A    between atoms: C_2  and  C_3
REMARK    2  A    between atoms: C_7  and  N_8
REMARK    3  A    between atoms: N_8  and  C_9
REMARK    4  A    between atoms: C_9  and  C_10
REMARK                            x       y       z     vdW  Elec       q    Type
REMARK                         _______ _______ _______ _____ _____    ______ ____
ROOT
ATOM      1  C   UNL     1       3.146   6.620  18.866  0.00  0.00    +0.000 A 
ATOM      2  C   UNL     1       3.452   7.089  17.597  0.00  0.00    +0.000 A 
ATOM      3  N   UNL     1       2.941   8.244  17.116  0.00  0.00    +0.000 NA
ATOM      4  C   UNL     1       2.139   8.910  17.985  0.00  0.00    +0.000 A 
ATOM      5  C   UNL     1       1.802   8.454  19.271  0.00  0.00    +0.000 A 
ATOM      6  N   UNL     1       2.330   7.303  19.725  0.00  0.00    +0.000 NA
ENDROOT
BRANCH   1   8
ATOM      7  O   UNL     1       4.997   5.356  19.530  0.00  0.00    +0.000 OA
ATOM      8  C   UNL     1       3.784   5.348  19.317  0.00  0.00    +0.000 C 
ATOM      9  N   UNL     1       3.013   4.193  19.475  0.00  0.00    +0.000 N 
ATOM     10  C   UNL     1       1.622   4.021  19.069  0.00  0.00    +0.000 C 
ATOM     11  C   UNL     1       0.751   3.815  20.304  0.00  0.00    +0.000 C 
ATOM     12  C   UNL     1       1.261   2.621  21.116  0.00  0.00    +0.000 C 
ATOM     13  C   UNL     1       2.751   2.765  21.443  0.00  0.00    +0.000 C 
ATOM     14  C   UNL     1       3.579   3.053  20.190  0.00  0.00    +0.000 C 
ENDBRANCH   1   8
BRANCH   5  15
ATOM     15  N   UNL     1       1.000   9.271  20.098  0.00  0.00    +0.000 N 
ATOM     16  H   UNL     1       1.612   9.919  20.585  0.00  0.00    +0.000 HD
BRANCH  15  17
ATOM     17  C   UNL     1      -0.060  10.016  19.404  0.00  0.00    +0.000 C 
BRANCH  17  18
ATOM     18  C   UNL     1       0.214  11.542  19.456  0.00  0.00    +0.000 C 
ATOM     19  C   UNL     1       1.019  11.900  20.708  0.00  0.00    +0.000 C 
ATOM     20  O   UNL     1       0.330  11.559  21.918  0.00  0.00    +0.000 OA
ATOM     21  C   UNL     1      -0.985  11.946  21.961  0.00  0.00    +0.000 A 
ATOM     22  C   UNL     1      -1.632  11.805  23.188  0.00  0.00    +0.000 A 
ATOM     23  C   UNL     1      -2.977  12.151  23.314  0.00  0.00    +0.000 A 
ATOM     24  C   UNL     1      -3.666  12.675  22.221  0.00  0.00    +0.000 A 
ATOM     25  C   UNL     1      -3.024  12.806  20.990  0.00  0.00    +0.000 A 
ATOM     26  C   UNL     1      -1.693  12.395  20.840  0.00  0.00    +0.000 A 
ATOM     27  C   UNL     1      -1.040  12.426  19.488  0.00  0.00    +0.000 C 
ENDBRANCH  17  18
ENDBRANCH  15  17
ENDBRANCH   5  15
TORSDOF 4
ENDMDL
MODEL 2
REMARK VINA RESULT:      -7.6      2.356      8.835
REMARK  Name = 
REMARK  4 active torsions:
REMARK  status: ('A' for Active; 'I' for Inactive)
REMARK    1  A    between atoms: C_2  and  C_3
REMARK    2  A    between atoms: C_7  and  N_8
REMARK    3  A    between atoms: N_8  and  C_9
REMARK    4  A    between atoms: C_9  and  C_10
REMARK                            x       y       z     vdW  Elec       q    Type
REMARK                         _______ _______ _______ _____ _____    ______ ____
ROOT
ATOM      1  C   UNL     1       0.155  10.342  20.414  0.00  0.00    +0.000 A 
ATOM      2  C   UNL     1       0.043  10.660  21.759  0.00  0.00    +0.000 A 
ATOM      3  N   UNL     1       0.584   9.887  22.727  0.00  0.00    +0.000 NA
ATOM      4  C   UNL     1       1.264   8.805  22.269  0.00  0.00    +0.000 A 
ATOM      5  C   UNL     1       1.384   8.452  20.915  0.00  0.00    +0.000 A 
ATOM      6  N   UNL     1       0.840   9.243  19.973  0.00  0.00    +0.000 NA
ENDROOT
BRANCH   1   8
ATOM      7  O   UNL     1      -1.628  11.094  19.103  0.00  0.00    +0.000 OA
ATOM      8  C   UNL     1      -0.452  11.275  19.419  0.00  0.00    +0.000 C 
ATOM      9  N   UNL     1       0.312  12.307  18.867  0.00  0.00    +0.000 N 
ATOM     10  C   UNL     1       1.751  12.494  19.019  0.00  0.00    +0.000 C 
ATOM     11  C   UNL     1       2.020  13.778  19.795  0.00  0.00    +0.000 C 
ATOM     12  C   UNL     1       1.362  14.968  19.091  0.00  0.00    +0.000 C 
ATOM     13  C   UNL     1      -0.128  14.713  18.842  0.00  0.00    +0.000 C 
ATOM     14  C   UNL     1      -0.362  13.376  18.136  0.00  0.00    +0.000 C 
ENDBRANCH   1   8
BRANCH   5  15
ATOM     15  N   UNL     1       2.168   7.328  20.568  0.00  0.00    +0.000 N 
ATOM     16  H   UNL     1       1.692   6.498  20.908  0.00  0.00    +0.000 HD
BRANCH  15  17
ATOM     17  C   UNL     1       2.455   7.184  19.134  0.00  0.00    +0.000 C 
BRANCH  17  18
ATOM     18  C   UNL     1       2.469   5.688  18.723  0.00  0.00    +0.000 C 
ATOM     19  C   UNL     1       3.125   4.838  19.815  0.00  0.00    +0.000 C 
ATOM     20  O   UNL     1       4.486   5.215  20.058  0.00  0.00    +0.000 OA
ATOM     21  C   UNL     1       5.250   5.376  18.930  0.00  0.00    +0.000 A 
ATOM     22  C   UNL     1       6.618   5.554  19.130  0.00  0.00    +0.000 A 
ATOM     23  C   UNL     1       7.465   5.750  18.039  0.00  0.00    +0.000 A 
ATOM     24  C   UNL     1       6.949   5.731  16.745  0.00  0.00    +0.000 A 
ATOM     25  C   UNL     1       5.579   5.565  16.544  0.00  0.00    +0.000 A 
ATOM     26  C   UNL     1       4.714   5.437  17.639  0.00  0.00    +0.000 A 
ATOM     27  C   UNL     1       3.228   5.377  17.426  0.00  0.00    +0.000 C 
ENDBRANCH  17  18
ENDBRANCH  15  17
ENDBRANCH   5  15
TORSDOF 4
ENDMDL
MODEL 3
REMARK VINA RESULT:      -7.6      1.375      1.821
REMARK  Name = 
REMARK  4 active torsions:
REMARK  status: ('A' for Active; 'I' for Inactive)
REMARK    1  A    between atoms: C_2  and  C_3
REMARK    2  A    between atoms: C_7  and  N_8
REMARK    3  A    between atoms: N_8  and  C_9
REMARK    4  A    between atoms: C_9  and  C_10
REMARK                            x       y       z     vdW  Elec       q    Type
REMARK                         _______ _______ _______ _____ _____    ______ ____
ROOT
ATOM      1  C   UNL     1       2.786   6.979  18.725  0.00  0.00    +0.000 A 
ATOM      2  C   UNL     1       2.360   6.723  20.020  0.00  0.00    +0.000 A 
ATOM      3  N   UNL     1       1.594   7.597  20.710  0.00  0.00    +0.000 NA
ATOM      4  C   UNL     1       1.257   8.717  20.020  0.00  0.00    +0.000 A 
ATOM      5  C   UNL     1       1.684   9.008  18.714  0.00  0.00    +0.000 A 
ATOM      6  N   UNL     1       2.442   8.117  18.049  0.00  0.00    +0.000 NA
ENDROOT
BRANCH   1   8
ATOM      7  O   UNL     1       4.796   6.178  17.842  0.00  0.00    +0.000 OA
ATOM      8  C   UNL     1       3.605   5.938  18.037  0.00  0.00    +0.000 C 
ATOM      9  N   UNL     1       3.014   4.740  17.624  0.00  0.00    +0.000 N 
ATOM     10  C   UNL     1       1.588   4.433  17.627  0.00  0.00    +0.000 C 
ATOM     11  C   UNL     1       1.310   3.307  18.618  0.00  0.00    +0.000 C 
ATOM     12  C   UNL     1       2.157   2.079  18.272  0.00  0.00    +0.000 C 
ATOM     13  C   UNL     1       3.642   2.439  18.166  0.00  0.00    +0.000 C 
ATOM     14  C   UNL     1       3.871   3.626  17.228  0.00  0.00    +0.000 C 
ENDBRANCH   1   8
BRANCH   5  15
ATOM     15  N   UNL     1       1.216  10.186  18.088  0.00  0.00    +0.000 N 
ATOM     16  H   UNL     1       1.050   9.974  17.108  0.00  0.00    +0.000 HD
BRANCH  15  17
ATOM     17  C   UNL     1       0.006  10.772  18.681  0.00  0.00    +0.000 C 
BRANCH  17  18
ATOM     18  C   UNL     1       0.217  12.278  18.990  0.00  0.00    +0.000 C 
ATOM     19  C   UNL     1       1.161  12.453  20.182  0.00  0.00    +0.000 C 
ATOM     20  O   UNL     1       0.650  11.851  21.378  0.00  0.00    +0.000 OA
ATOM     21  C   UNL     1      -0.664  12.134  21.650  0.00  0.00    +0.000 A 
ATOM     22  C   UNL     1      -1.141  11.726  22.895  0.00  0.00    +0.000 A 
ATOM     23  C   UNL     1      -2.472  11.952  23.244  0.00  0.00    +0.000 A 
ATOM     24  C   UNL     1      -3.319  12.620  22.360  0.00  0.00    +0.000 A 
ATOM     25  C   UNL     1      -2.848  13.018  21.110  0.00  0.00    +0.000 A 
ATOM     26  C   UNL     1      -1.530  12.732  20.727  0.00  0.00    +0.000 A 
ATOM     27  C   UNL     1      -1.060  13.055  19.338  0.00  0.00    +0.000 C 
ENDBRANCH  17  18
ENDBRANCH  15  17
ENDBRANCH   5  15
TORSDOF 4
ENDMDL
MODEL 4
REMARK VINA RESULT:      -7.6      2.441      9.049
REMARK  Name = 
REMARK  4 active torsions:
REMARK  status: ('A' for Active; 'I' for Inactive)
REMARK    1  A    between atoms: C_2  and  C_3
REMARK    2  A    between atoms: C_7  and  N_8
REMARK    3  A    between atoms: N_8  and  C_9
REMARK    4  A    between atoms: C_9  and  C_10
REMARK                            x       y       z     vdW  Elec       q    Type
REMARK                         _______ _______ _______ _____ _____    ______ ____
ROOT
ATOM      1  C   UNL     1       0.338   9.955  19.780  0.00  0.00    +0.000 A 
ATOM      2  C   UNL     1      -0.176   9.888  21.067  0.00  0.00    +0.000 A 
ATOM      3  N   UNL     1       0.190   8.920  21.937  0.00  0.00    +0.000 NA
ATOM      4  C   UNL     1       1.116   8.051  21.456  0.00  0.00    +0.000 A 
ATOM      5  C   UNL     1       1.645   8.088  20.155  0.00  0.00    +0.000 A 
ATOM      6  N   UNL     1       1.266   9.065  19.312  0.00  0.00    +0.000 NA
ENDROOT
BRANCH   1   8
ATOM      7  O   UNL     1      -1.045  10.872  18.134  0.00  0.00    +0.000 OA
ATOM      8  C   UNL     1      -0.106  11.078  18.905  0.00  0.00    +0.000 C 
ATOM      9  N   UNL     1       0.544  12.315  18.964  0.00  0.00    +0.000 N 
ATOM     10  C   UNL     1       1.775  12.609  19.688  0.00  0.00    +0.000 C 
ATOM     11  C   UNL     1       1.484  13.602  20.809  0.00  0.00    +0.000 C 
ATOM     12  C   UNL     1       0.840  14.869  20.238  0.00  0.00    +0.000 C 
ATOM     13  C   UNL     1      -0.391  14.534  19.391  0.00  0.00    +0.000 C 
ATOM     14  C   UNL     1      -0.078  13.475  18.332  0.00  0.00    +0.000 C 
ENDBRANCH   1   8
BRANCH   5  15
ATOM     15  N   UNL     1       2.646   7.156  19.797  0.00  0.00    +0.000 N 
ATOM     16  H   UNL     1       2.674   6.438  20.515  0.00  0.00    +0.000 HD
BRANCH  15  17
ATOM     17  C   UNL     1       2.480   6.534  18.477  0.00  0.00    +0.000 C 
BRANCH  17  18
ATOM     18  C   UNL     1       2.466   4.987  18.595  0.00  0.00    +0.000 C 
ATOM     19  C   UNL     1       3.348   4.531  19.761  0.00  0.00    +0.000 C 
ATOM     20  O   UNL     1       4.716   4.924  19.600  0.00  0.00    +0.000 OA
ATOM     21  C   UNL     1       5.245   4.675  18.359  0.00  0.00    +0.000 A 
ATOM     22  C   UNL     1       6.620   4.866  18.222  0.00  0.00    +0.000 A 
ATOM     23  C   UNL     1       7.236   4.660  16.988  0.00  0.00    +0.000 A 
ATOM     24  C   UNL     1       6.483   4.225  15.898  0.00  0.00    +0.000 A 
ATOM     25  C   UNL     1       5.107   4.044  16.030  0.00  0.00    +0.000 A 
ATOM     26  C   UNL     1       4.472   4.317  17.249  0.00  0.00    +0.000 A 
ATOM     27  C   UNL     1       2.975   4.237  17.356  0.00  0.00    +0.000 C 
ENDBRANCH  17  18
ENDBRANCH  15  17
ENDBRANCH   5  15
TORSDOF 4
ENDMDL
MODEL 5
REMARK VINA RESULT:      -7.6      2.657      8.865
REMARK  Name = 
REMARK  4 active torsions:
REMARK  status: ('A' for Active; 'I' for Inactive)
REMARK    1  A    between atoms: C_2  and  C_3
REMARK    2  A    between atoms: C_7  and  N_8
REMARK    3  A    between atoms: N_8  and  C_9
REMARK    4  A    between atoms: C_9  and  C_10
REMARK                            x       y       z     vdW  Elec       q    Type
REMARK                         _______ _______ _______ _____ _____    ______ ____
ROOT
ATOM      1  C   UNL     1       0.562   9.791  19.380  0.00  0.00    +0.000 A 
ATOM      2  C   UNL     1       0.370   9.599  20.740  0.00  0.00    +0.000 A 
ATOM      3  N   UNL     1       0.947   8.576  21.409  0.00  0.00    +0.000 NA
ATOM      4  C   UNL     1       1.745   7.784  20.648  0.00  0.00    +0.000 A 
ATOM      5  C   UNL     1       1.948   7.948  19.267  0.00  0.00    +0.000 A 
ATOM      6  N   UNL     1       1.365   8.978  18.629  0.00  0.00    +0.000 NA
ENDROOT
BRANCH   1   8
ATOM      7  O   UNL     1      -1.191  10.794  18.203  0.00  0.00    +0.000 OA
ATOM      8  C   UNL     1      -0.096  10.967  18.738  0.00  0.00    +0.000 C 
ATOM      9  N   UNL     1       0.535  12.215  18.744  0.00  0.00    +0.000 N 
ATOM     10  C   UNL     1       1.903  12.489  19.171  0.00  0.00    +0.000 C 
ATOM     11  C   UNL     1       1.883  13.378  20.410  0.00  0.00    +0.000 C 
ATOM     12  C   UNL     1       1.106  14.666  20.123  0.00  0.00    +0.000 C 
ATOM     13  C   UNL     1      -0.292  14.362  19.573  0.00  0.00    +0.000 C 
ATOM     14  C   UNL     1      -0.235  13.401  18.384  0.00  0.00    +0.000 C 
ENDBRANCH   1   8
BRANCH   5  15
ATOM     15  N   UNL     1       2.849   7.086  18.602  0.00  0.00    +0.000 N 
ATOM     16  H   UNL     1       3.778   7.490  18.673  0.00  0.00    +0.000 HD
BRANCH  15  17
ATOM     17  C   UNL     1       2.871   5.702  19.094  0.00  0.00    +0.000 C 
BRANCH  17  18
ATOM     18  C   UNL     1       3.488   4.750  18.036  0.00  0.00    +0.000 C 
ATOM     19  C   UNL     1       4.371   3.697  18.711  0.00  0.00    +0.000 C 
ATOM     20  O   UNL     1       5.463   4.281  19.433  0.00  0.00    +0.000 OA
ATOM     21  C   UNL     1       6.156   5.247  18.749  0.00  0.00    +0.000 A 
ATOM     22  C   UNL     1       7.335   5.699  19.341  0.00  0.00    +0.000 A 
ATOM     23  C   UNL     1       8.089   6.698  18.726  0.00  0.00    +0.000 A 
ATOM     24  C   UNL     1       7.683   7.219  17.498  0.00  0.00    +0.000 A 
ATOM     25  C   UNL     1       6.499   6.777  16.910  0.00  0.00    +0.000 A 
ATOM     26  C   UNL     1       5.702   5.823  17.558  0.00  0.00    +0.000 A 
ATOM     27  C   UNL     1       4.370   5.435  16.982  0.00  0.00    +0.000 C 
ENDBRANCH  17  18
ENDBRANCH  15  17
ENDBRANCH   5  15
TORSDOF 4
ENDMDL
MODEL 6
REMARK VINA RESULT:      -7.6      2.166      8.660
REMARK  Name = 
REMARK  4 active torsions:
REMARK  status: ('A' for Active; 'I' for Inactive)
REMARK    1  A    between atoms: C_2  and  C_3
REMARK    2  A    between atoms: C_7  and  N_8
REMARK    3  A    between atoms: N_8  and  C_9
REMARK    4  A    between atoms: C_9  and  C_10
REMARK                            x       y       z     vdW  Elec       q    Type
REMARK                         _______ _______ _______ _____ _____    ______ ____
ROOT
ATOM      1  C   UNL     1       1.355   9.444  19.603  0.00  0.00    +0.000 A 
ATOM      2  C   UNL     1       1.752   9.903  18.356  0.00  0.00    +0.000 A 
ATOM      3  N   UNL     1       2.410   9.115  17.477  0.00  0.00    +0.000 NA
ATOM      4  C   UNL     1       2.617   7.843  17.905  0.00  0.00    +0.000 A 
ATOM      5  C   UNL     1       2.236   7.355  19.166  0.00  0.00    +0.000 A 
ATOM      6  N   UNL     1       1.578   8.160  20.019  0.00  0.00    +0.000 NA
ENDROOT
BRANCH   1   8
ATOM      7  O   UNL     1       1.202  10.854  21.461  0.00  0.00    +0.000 OA
ATOM      8  C   UNL     1       0.607  10.383  20.491  0.00  0.00    +0.000 C 
ATOM      9  N   UNL     1      -0.728  10.693  20.219  0.00  0.00    +0.000 N 
ATOM     10  C   UNL     1      -1.580  10.050  19.224  0.00  0.00    +0.000 C 
ATOM     11  C   UNL     1      -1.951  11.058  18.142  0.00  0.00    +0.000 C 
ATOM     12  C   UNL     1      -2.629  12.280  18.769  0.00  0.00    +0.000 C 
ATOM     13  C   UNL     1      -1.770  12.881  19.886  0.00  0.00    +0.000 C 
ATOM     14  C   UNL     1      -1.349  11.822  20.907  0.00  0.00    +0.000 C 
ENDBRANCH   1   8
BRANCH   5  15
ATOM     15  N   UNL     1       2.461   5.992  19.468  0.00  0.00    +0.000 N 
ATOM     16  H   UNL     1       1.855   5.740  20.243  0.00  0.00    +0.000 HD
BRANCH  15  17
ATOM     17  C   UNL     1       2.252   5.061  18.351  0.00  0.00    +0.000 C 
BRANCH  17  18
ATOM     18  C   UNL     1       3.066   3.757  18.561  0.00  0.00    +0.000 C 
ATOM     19  C   UNL     1       4.135   3.960  19.638  0.00  0.00    +0.000 C 
ATOM     20  O   UNL     1       5.074   4.986  19.290  0.00  0.00    +0.000 OA
ATOM     21  C   UNL     1       5.565   4.908  18.012  0.00  0.00    +0.000 A 
ATOM     22  C   UNL     1       6.618   5.768  17.700  0.00  0.00    +0.000 A 
ATOM     23  C   UNL     1       7.161   5.773  16.415  0.00  0.00    +0.000 A 
ATOM     24  C   UNL     1       6.675   4.890  15.451  0.00  0.00    +0.000 A 
ATOM     25  C   UNL     1       5.615   4.038  15.758  0.00  0.00    +0.000 A 
ATOM     26  C   UNL     1       5.020   4.078  17.026  0.00  0.00    +0.000 A 
ATOM     27  C   UNL     1       3.804   3.245  17.317  0.00  0.00    +0.000 C 
ENDBRANCH  17  18
ENDBRANCH  15  17
ENDBRANCH   5  15
TORSDOF 4
ENDMDL
MODEL 7
REMARK VINA RESULT:      -7.5      2.422      8.377
REMARK  Name = 
REMARK  4 active torsions:
REMARK  status: ('A' for Active; 'I' for Inactive)
REMARK    1  A    between atoms: C_2  and  C_3
REMARK    2  A    between atoms: C_7  and  N_8
REMARK    3  A    between atoms: N_8  and  C_9
REMARK    4  A    between atoms: C_9  and  C_10
REMARK                            x       y       z     vdW  Elec       q    Type
REMARK                         _______ _______ _______ _____ _____    ______ ____
ROOT
ATOM      1  C   UNL     1       0.771   9.553  18.991  0.00  0.00    +0.000 A 
ATOM      2  C   UNL     1       0.727   9.234  20.340  0.00  0.00    +0.000 A 
ATOM      3  N   UNL     1       1.420   8.193  20.855  0.00  0.00    +0.000 NA
ATOM      4  C   UNL     1       2.177   7.519  19.952  0.00  0.00    +0.000 A 
ATOM      5  C   UNL     1       2.232   7.812  18.579  0.00  0.00    +0.000 A 
ATOM      6  N   UNL     1       1.536   8.857  18.095  0.00  0.00    +0.000 NA
ENDROOT
BRANCH   1   8
ATOM      7  O   UNL     1      -1.132  10.544  18.064  0.00  0.00    +0.000 OA
ATOM      8  C   UNL     1      -0.006  10.738  18.524  0.00  0.00    +0.000 C 
ATOM      9  N   UNL     1       0.549  12.019  18.604  0.00  0.00    +0.000 N 
ATOM     10  C   UNL     1       1.930  12.341  18.945  0.00  0.00    +0.000 C 
ATOM     11  C   UNL     1       1.965  13.106  20.265  0.00  0.00    +0.000 C 
ATOM     12  C   UNL     1       1.092  14.361  20.171  0.00  0.00    +0.000 C 
ATOM     13  C   UNL     1      -0.327  14.018  19.707  0.00  0.00    +0.000 C 
ATOM     14  C   UNL     1      -0.317  13.180  18.427  0.00  0.00    +0.000 C 
ENDBRANCH   1   8
BRANCH   5  15
ATOM     15  N   UNL     1       3.105   7.066  17.755  0.00  0.00    +0.000 N 
ATOM     16  H   UNL     1       3.560   7.712  17.117  0.00  0.00    +0.000 HD
BRANCH  15  17
ATOM     17  C   UNL     1       4.117   6.276  18.469  0.00  0.00    +0.000 C 
BRANCH  17  18
ATOM     18  C   UNL     1       4.245   4.858  17.852  0.00  0.00    +0.000 C 
ATOM     19  C   UNL     1       2.939   4.453  17.163  0.00  0.00    +0.000 C 
ATOM     20  O   UNL     1       1.830   4.415  18.071  0.00  0.00    +0.000 OA
ATOM     21  C   UNL     1       2.074   3.760  19.251  0.00  0.00    +0.000 A 
ATOM     22  C   UNL     1       0.971   3.535  20.073  0.00  0.00    +0.000 A 
ATOM     23  C   UNL     1       1.133   2.898  21.304  0.00  0.00    +0.000 A 
ATOM     24  C   UNL     1       2.394   2.451  21.695  0.00  0.00    +0.000 A 
ATOM     25  C   UNL     1       3.501   2.685  20.879  0.00  0.00    +0.000 A 
ATOM     26  C   UNL     1       3.355   3.386  19.674  0.00  0.00    +0.000 A 
ATOM     27  C   UNL     1       4.563   3.740  18.855  0.00  0.00    +0.000 C 
ENDBRANCH  17  18
ENDBRANCH  15  17
ENDBRANCH   5  15
TORSDOF 4
ENDMDL
MODEL 8
REMARK VINA RESULT:      -7.4      2.604      8.118
REMARK  Name = 
REMARK  4 active torsions:
REMARK  status: ('A' for Active; 'I' for Inactive)
REMARK    1  A    between atoms: C_2  and  C_3
REMARK    2  A    between atoms: C_7  and  N_8
REMARK    3  A    between atoms: N_8  and  C_9
REMARK    4  A    between atoms: C_9  and  C_10
REMARK                            x       y       z     vdW  Elec       q    Type
REMARK                         _______ _______ _______ _____ _____    ______ ____
ROOT
ATOM      1  C   UNL     1      -0.338  11.299  18.701  0.00  0.00    +0.000 A 
ATOM      2  C   UNL     1       0.371  12.475  18.893  0.00  0.00    +0.000 A 
ATOM      3  N   UNL     1       1.707  12.548  18.697  0.00  0.00    +0.000 NA
ATOM      4  C   UNL     1       2.278  11.393  18.271  0.00  0.00    +0.000 A 
ATOM      5  C   UNL     1       1.587  10.184  18.079  0.00  0.00    +0.000 A 
ATOM      6  N   UNL     1       0.257  10.142  18.277  0.00  0.00    +0.000 NA
ENDROOT
BRANCH   1   8
ATOM      7  O   UNL     1      -2.241  11.903  19.916  0.00  0.00    +0.000 OA
ATOM      8  C   UNL     1      -1.815  11.326  18.915  0.00  0.00    +0.000 C 
ATOM      9  N   UNL     1      -2.669  10.700  18.003  0.00  0.00    +0.000 N 
ATOM     10  C   UNL     1      -2.269   9.831  16.901  0.00  0.00    +0.000 C 
ATOM     11  C   UNL     1      -2.627  10.491  15.574  0.00  0.00    +0.000 C 
ATOM     12  C   UNL     1      -4.124  10.814  15.532  0.00  0.00    +0.000 C 
ATOM     13  C   UNL     1      -4.550  11.637  16.752  0.00  0.00    +0.000 C 
ATOM     14  C   UNL     1      -4.100  10.984  18.060  0.00  0.00    +0.000 C 
ENDBRANCH   1   8
BRANCH   5  15
ATOM     15  N   UNL     1       2.291   9.066  17.577  0.00  0.00    +0.000 N 
ATOM     16  H   UNL     1       3.280   9.216  17.753  0.00  0.00    +0.000 HD
BRANCH  15  17
ATOM     17  C   UNL     1       1.879   7.768  18.128  0.00  0.00    +0.000 C 
BRANCH  17  18
ATOM     18  C   UNL     1       3.018   7.144  18.977  0.00  0.00    +0.000 C 
ATOM     19  C   UNL     1       3.901   6.242  18.110  0.00  0.00    +0.000 C 
ATOM     20  O   UNL     1       3.170   5.155  17.530  0.00  0.00    +0.000 OA
ATOM     21  C   UNL     1       2.353   4.479  18.401  0.00  0.00    +0.000 A 
ATOM     22  C   UNL     1       1.776   3.304  17.922  0.00  0.00    +0.000 A 
ATOM     23  C   UNL     1       0.913   2.567  18.733  0.00  0.00    +0.000 A 
ATOM     24  C   UNL     1       0.656   2.987  20.038  0.00  0.00    +0.000 A 
ATOM     25  C   UNL     1       1.223   4.168  20.514  0.00  0.00    +0.000 A 
ATOM     26  C   UNL     1       2.036   4.948  19.681  0.00  0.00    +0.000 A 
ATOM     27  C   UNL     1       2.549   6.278  20.155  0.00  0.00    +0.000 C 
ENDBRANCH  17  18
ENDBRANCH  15  17
ENDBRANCH   5  15
TORSDOF 4
ENDMDL
MODEL 9
REMARK VINA RESULT:      -7.4      5.644      7.857
REMARK  Name = 
REMARK  4 active torsions:
REMARK  status: ('A' for Active; 'I' for Inactive)
REMARK    1  A    between atoms: C_2  and  C_3
REMARK    2  A    between atoms: C_7  and  N_8
REMARK    3  A    between atoms: N_8  and  C_9
REMARK    4  A    between atoms: C_9  and  C_10
REMARK                            x       y       z     vdW  Elec       q    Type
REMARK                         _______ _______ _______ _____ _____    ______ ____
ROOT
ATOM      1  C   UNL     1       5.959   5.798  17.684  0.00  0.00    +0.000 A 
ATOM      2  C   UNL     1       6.588   5.188  18.759  0.00  0.00    +0.000 A 
ATOM      3  N   UNL     1       7.705   5.700  19.322  0.00  0.00    +0.000 NA
ATOM      4  C   UNL     1       8.131   6.864  18.769  0.00  0.00    +0.000 A 
ATOM      5  C   UNL     1       7.522   7.498  17.673  0.00  0.00    +0.000 A 
ATOM      6  N   UNL     1       6.408   6.968  17.136  0.00  0.00    +0.000 NA
ENDROOT
BRANCH   1   8
ATOM      7  O   UNL     1       4.798   4.515  16.112  0.00  0.00    +0.000 OA
ATOM      8  C   UNL     1       4.714   5.170  17.151  0.00  0.00    +0.000 C 
ATOM      9  N   UNL     1       3.498   5.343  17.819  0.00  0.00    +0.000 N 
ATOM     10  C   UNL     1       3.248   6.249  18.936  0.00  0.00    +0.000 C 
ATOM     11  C   UNL     1       2.910   5.439  20.184  0.00  0.00    +0.000 C 
ATOM     12  C   UNL     1       1.713   4.524  19.911  0.00  0.00    +0.000 C 
ATOM     13  C   UNL     1       1.948   3.655  18.671  0.00  0.00    +0.000 C 
ATOM     14  C   UNL     1       2.365   4.495  17.463  0.00  0.00    +0.000 C 
ENDBRANCH   1   8
BRANCH   5  15
ATOM     15  N   UNL     1       8.034   8.737  17.228  0.00  0.00    +0.000 N 
ATOM     16  H   UNL     1       7.466   9.046  16.444  0.00  0.00    +0.000 HD
BRANCH  15  17
ATOM     17  C   UNL     1       8.091   9.794  18.247  0.00  0.00    +0.000 C 
BRANCH  17  18
ATOM     18  C   UNL     1       9.560  10.101  18.641  0.00  0.00    +0.000 C 
ATOM     19  C   UNL     1       9.653  10.455  20.128  0.00  0.00    +0.000 C 
ATOM     20  O   UNL     1       8.881  11.615  20.464  0.00  0.00    +0.000 OA
ATOM     21  C   UNL     1       9.043  12.681  19.617  0.00  0.00    +0.000 A 
ATOM     22  C   UNL     1       8.461  13.883  20.016  0.00  0.00    +0.000 A 
ATOM     23  C   UNL     1       8.556  15.012  19.202  0.00  0.00    +0.000 A 
ATOM     24  C   UNL     1       9.268  14.948  18.005  0.00  0.00    +0.000 A 
ATOM     25  C   UNL     1       9.841  13.744  17.598  0.00  0.00    +0.000 A 
ATOM     26  C   UNL     1       9.689  12.590  18.379  0.00  0.00    +0.000 A 
ATOM     27  C   UNL     1      10.205  11.269  17.883  0.00  0.00    +0.000 C 
ENDBRANCH  17  18
ENDBRANCH  15  17
ENDBRANCH   5  15
TORSDOF 4
ENDMDL
