MODEL 1
REMARK VINA RESULT:      -8.6      0.000      0.000
REMARK  Name = 
REMARK  11 active torsions:
REMARK  status: ('A' for Active; 'I' for Inactive)
REMARK    1  A    between atoms: C_1  and  N_2
REMARK    2  A    between atoms: N_2  and  C_3
REMARK    3  A    between atoms: C_3  and  C_4
REMARK    4  A    between atoms: C_9  and  N_10
REMARK    5  A    between atoms: N_10  and  S_11
REMARK    6  A    between atoms: S_11  and  C_14
REMARK    7  A    between atoms: N_25  and  C_26
REMARK    8  A    between atoms: C_26  and  C_27
REMARK    9  A    between atoms: C_26  and  C_28
REMARK   10  A    between atoms: C_28  and  O_29
REMARK   11  A    between atoms: C_31  and  C_32
REMARK                            x       y       z     vdW  Elec       q    Type
REMARK                         _______ _______ _______ _____ _____    ______ ____
ROOT
ATOM      1  C   UNL     1       3.838   3.591  19.162  0.00  0.00    +0.000 C 
ATOM      2  O   UNL     1       3.733   4.690  20.091  0.00  0.00    +0.000 OA
ATOM      3  C   UNL     1       3.394   5.905  19.589  0.00  0.00    +0.000 A 
ATOM      4  C   UNL     1       2.341   6.530  20.264  0.00  0.00    +0.000 A 
ATOM      5  C   UNL     1       1.707   7.634  19.697  0.00  0.00    +0.000 A 
ATOM      6  C   UNL     1       2.158   8.142  18.482  0.00  0.00    +0.000 A 
ATOM      7  C   UNL     1       3.297   7.614  17.873  0.00  0.00    +0.000 A 
ATOM      8  C   UNL     1       3.913   6.482  18.433  0.00  0.00    +0.000 A 
ATOM      9  C   UNL     1       5.102   5.966  17.740  0.00  0.00    +0.000 C 
ATOM     10  O   UNL     1       6.182   6.482  18.016  0.00  0.00    +0.000 OA
ATOM     11  N   UNL     1       4.924   5.074  16.685  0.00  0.00    +0.000 N 
ATOM     12  C   UNL     1       3.930   3.991  16.619  0.00  0.00    +0.000 C 
ATOM     13  C   UNL     1       3.030   3.643  17.821  0.00  0.00    +0.000 C 
ATOM     14  C   UNL     1       1.688   4.375  17.748  0.00  0.00    +0.000 C 
ENDROOT
BRANCH   6  15
ATOM     15  N   UNL     1       1.382   9.149  17.849  0.00  0.00    +0.000 N 
ATOM     16  H   UNL     1       0.663   8.870  17.185  0.00  0.00    +0.000 HD
BRANCH  15  17
ATOM     17  S   UNL     1       0.928  10.500  18.761  0.00  0.00    +0.000 S 
ATOM     18  O   UNL     1       0.993  10.096  20.147  0.00  0.00    +0.000 OA
ATOM     19  O   UNL     1       1.647  11.661  18.281  0.00  0.00    +0.000 OA
BRANCH  17  20
ATOM     20  C   UNL     1      -0.796  10.702  18.370  0.00  0.00    +0.000 A 
ATOM     21  C   UNL     1      -1.538  11.682  19.039  0.00  0.00    +0.000 A 
ATOM     22  C   UNL     1      -2.903  11.810  18.766  0.00  0.00    +0.000 A 
ATOM     23  C   UNL     1      -3.513  10.974  17.823  0.00  0.00    +0.000 A 
ATOM     24 CL   UNL     1      -5.200  11.131  17.511  0.00  0.00    +0.000 Cl
ATOM     25  C   UNL     1      -2.767  10.017  17.140  0.00  0.00    +0.000 A 
ATOM     26  C   UNL     1      -1.401   9.880  17.408  0.00  0.00    +0.000 A 
ENDBRANCH  17  20
ENDBRANCH  15  17
ENDBRANCH   6  15
BRANCH  11  27
ATOM     27  C   UNL     1       5.970   5.095  15.634  0.00  0.00    +0.000 C 
ATOM     28  C   UNL     1       5.390   4.958  14.220  0.00  0.00    +0.000 C 
BRANCH  27  29
ATOM     29  C   UNL     1       7.093   4.066  15.873  0.00  0.00    +0.000 C 
BRANCH  29  30
ATOM     30  O   UNL     1       7.946   4.475  16.942  0.00  0.00    +0.000 OA
ATOM     31  H   UNL     1       8.600   3.765  17.071  0.00  0.00    +0.000 HD
ENDBRANCH  29  30
ENDBRANCH  27  29
ENDBRANCH  11  27
BRANCH   1  32
ATOM     32  C   UNL     1       3.459   2.330  19.997  0.00  0.00    +0.000 C 
BRANCH  32  34
ATOM     33  C   UNL     1       1.401   2.692  21.264  0.00  0.00    +0.000 C 
ATOM     34  N   UNL     1       2.849   2.560  21.316  0.00  0.00    +0.000 NA
ATOM     35  H   UNL     1       3.091   1.780  21.928  0.00  0.00    +0.000 HD
ENDBRANCH  32  34
ENDBRANCH   1  32
TORSDOF 8
ENDMDL
MODEL 2
REMARK VINA RESULT:      -7.8      1.530      1.772
REMARK  Name = 
REMARK  11 active torsions:
REMARK  status: ('A' for Active; 'I' for Inactive)
REMARK    1  A    between atoms: C_1  and  N_2
REMARK    2  A    between atoms: N_2  and  C_3
REMARK    3  A    between atoms: C_3  and  C_4
REMARK    4  A    between atoms: C_9  and  N_10
REMARK    5  A    between atoms: N_10  and  S_11
REMARK    6  A    between atoms: S_11  and  C_14
REMARK    7  A    between atoms: N_25  and  C_26
REMARK    8  A    between atoms: C_26  and  C_27
REMARK    9  A    between atoms: C_26  and  C_28
REMARK   10  A    between atoms: C_28  and  O_29
REMARK   11  A    between atoms: C_31  and  C_32
REMARK                            x       y       z     vdW  Elec       q    Type
REMARK                         _______ _______ _______ _____ _____    ______ ____
ROOT
ATOM      1  C   UNL     1       3.524   2.906  18.561  0.00  0.00    +0.000 C 
ATOM      2  O   UNL     1       3.190   3.394  19.877  0.00  0.00    +0.000 OA
ATOM      3  C   UNL     1       3.028   4.734  20.027  0.00  0.00    +0.000 A 
ATOM      4  C   UNL     1       1.842   5.097  20.673  0.00  0.00    +0.000 A 
ATOM      5  C   UNL     1       1.412   6.423  20.645  0.00  0.00    +0.000 A 
ATOM      6  C   UNL     1       2.190   7.389  20.015  0.00  0.00    +0.000 A 
ATOM      7  C   UNL     1       3.441   7.061  19.493  0.00  0.00    +0.000 A 
ATOM      8  C   UNL     1       3.856   5.719  19.496  0.00  0.00    +0.000 A 
ATOM      9  C   UNL     1       5.178   5.434  18.923  0.00  0.00    +0.000 C 
ATOM     10  O   UNL     1       6.152   5.560  19.662  0.00  0.00    +0.000 OA
ATOM     11  N   UNL     1       5.280   5.231  17.548  0.00  0.00    +0.000 N 
ATOM     12  C   UNL     1       4.320   4.502  16.703  0.00  0.00    +0.000 C 
ATOM     13  C   UNL     1       3.117   3.751  17.306  0.00  0.00    +0.000 C 
ATOM     14  C   UNL     1       1.862   4.626  17.330  0.00  0.00    +0.000 C 
ENDROOT
BRANCH   6  15
ATOM     15  N   UNL     1       1.639   8.688  19.850  0.00  0.00    +0.000 N 
ATOM     16  H   UNL     1       1.907   9.421  20.502  0.00  0.00    +0.000 HD
BRANCH  15  17
ATOM     17  S   UNL     1       1.424   9.273  18.276  0.00  0.00    +0.000 S 
ATOM     18  O   UNL     1       2.403  10.321  18.094  0.00  0.00    +0.000 OA
ATOM     19  O   UNL     1       1.338   8.155  17.362  0.00  0.00    +0.000 OA
BRANCH  17  20
ATOM     20  C   UNL     1      -0.167  10.069  18.346  0.00  0.00    +0.000 A 
ATOM     21  C   UNL     1      -0.409  11.022  19.340  0.00  0.00    +0.000 A 
ATOM     22  C   UNL     1      -1.673  11.614  19.425  0.00  0.00    +0.000 A 
ATOM     23  C   UNL     1      -2.676  11.264  18.514  0.00  0.00    +0.000 A 
ATOM     24 CL   UNL     1      -4.234  11.988  18.641  0.00  0.00    +0.000 Cl
ATOM     25  C   UNL     1      -2.423  10.333  17.509  0.00  0.00    +0.000 A 
ATOM     26  C   UNL     1      -1.163   9.734  17.418  0.00  0.00    +0.000 A 
ENDBRANCH  17  20
ENDBRANCH  15  17
ENDBRANCH   6  15
BRANCH  11  27
ATOM     27  C   UNL     1       6.575   5.605  16.929  0.00  0.00    +0.000 C 
ATOM     28  C   UNL     1       6.827   7.118  16.958  0.00  0.00    +0.000 C 
BRANCH  27  29
ATOM     29  C   UNL     1       6.754   5.041  15.506  0.00  0.00    +0.000 C 
BRANCH  29  30
ATOM     30  O   UNL     1       7.832   5.688  14.829  0.00  0.00    +0.000 OA
ATOM     31  H   UNL     1       8.244   6.297  15.468  0.00  0.00    +0.000 HD
ENDBRANCH  29  30
ENDBRANCH  27  29
ENDBRANCH  11  27
BRANCH   1  32
ATOM     32  C   UNL     1       2.903   1.477  18.500  0.00  0.00    +0.000 C 
BRANCH  32  34
ATOM     33  C   UNL     1       0.545   2.026  18.835  0.00  0.00    +0.000 C 
ATOM     34  N   UNL     1       1.685   1.242  19.290  0.00  0.00    +0.000 NA
ATOM     35  H   UNL     1       1.449   0.251  19.240  0.00  0.00    +0.000 HD
ENDBRANCH  32  34
ENDBRANCH   1  32
TORSDOF 8
ENDMDL
MODEL 3
REMARK VINA RESULT:      -7.7      0.666      1.262
REMARK  Name = 
REMARK  11 active torsions:
REMARK  status: ('A' for Active; 'I' for Inactive)
REMARK    1  A    between atoms: C_1  and  N_2
REMARK    2  A    between atoms: N_2  and  C_3
REMARK    3  A    between atoms: C_3  and  C_4
REMARK    4  A    between atoms: C_9  and  N_10
REMARK    5  A    between atoms: N_10  and  S_11
REMARK    6  A    between atoms: S_11  and  C_14
REMARK    7  A    between atoms: N_25  and  C_26
REMARK    8  A    between atoms: C_26  and  C_27
REMARK    9  A    between atoms: C_26  and  C_28
REMARK   10  A    between atoms: C_28  and  O_29
REMARK   11  A    between atoms: C_31  and  C_32
REMARK                            x       y       z     vdW  Elec       q    Type
REMARK                         _______ _______ _______ _____ _____    ______ ____
ROOT
ATOM      1  C   UNL     1       3.375   3.751  19.108  0.00  0.00    +0.000 C 
ATOM      2  O   UNL     1       3.298   4.837  20.055  0.00  0.00    +0.000 OA
ATOM      3  C   UNL     1       3.100   6.086  19.563  0.00  0.00    +0.000 A 
ATOM      4  C   UNL     1       2.058   6.786  20.180  0.00  0.00    +0.000 A 
ATOM      5  C   UNL     1       1.562   7.952  19.600  0.00  0.00    +0.000 A 
ATOM      6  C   UNL     1       2.138   8.442  18.431  0.00  0.00    +0.000 A 
ATOM      7  C   UNL     1       3.267   7.830  17.889  0.00  0.00    +0.000 A 
ATOM      8  C   UNL     1       3.744   6.639  18.459  0.00  0.00    +0.000 A 
ATOM      9  C   UNL     1       4.931   6.035  17.837  0.00  0.00    +0.000 C 
ATOM     10  O   UNL     1       6.030   6.451  18.199  0.00  0.00    +0.000 OA
ATOM     11  N   UNL     1       4.753   5.183  16.749  0.00  0.00    +0.000 N 
ATOM     12  C   UNL     1       3.678   4.191  16.589  0.00  0.00    +0.000 C 
ATOM     13  C   UNL     1       2.670   3.899  17.717  0.00  0.00    +0.000 C 
ATOM     14  C   UNL     1       1.402   4.745  17.572  0.00  0.00    +0.000 C 
ENDROOT
BRANCH   6  15
ATOM     15  N   UNL     1       1.496   9.525  17.773  0.00  0.00    +0.000 N 
ATOM     16  H   UNL     1       0.867   9.325  16.999  0.00  0.00    +0.000 HD
BRANCH  15  17
ATOM     17  S   UNL     1       0.969  10.832  18.710  0.00  0.00    +0.000 S 
ATOM     18  O   UNL     1       1.152  10.443  20.090  0.00  0.00    +0.000 OA
ATOM     19  O   UNL     1       1.546  12.053  18.190  0.00  0.00    +0.000 OA
BRANCH  17  20
ATOM     20  C   UNL     1      -0.786  10.867  18.420  0.00  0.00    +0.000 A 
ATOM     21  C   UNL     1      -1.346   9.957  17.516  0.00  0.00    +0.000 A 
ATOM     22  C   UNL     1      -2.718  10.014  17.253  0.00  0.00    +0.000 A 
ATOM     23  C   UNL     1      -3.519  10.963  17.898  0.00  0.00    +0.000 A 
ATOM     24 CL   UNL     1      -5.205  11.033  17.549  0.00  0.00    +0.000 Cl
ATOM     25  C   UNL     1      -2.963  11.850  18.816  0.00  0.00    +0.000 A 
ATOM     26  C   UNL     1      -1.592  11.802  19.085  0.00  0.00    +0.000 A 
ENDBRANCH  17  20
ENDBRANCH  15  17
ENDBRANCH   6  15
BRANCH  11  27
ATOM     27  C   UNL     1       5.868   5.134  15.772  0.00  0.00    +0.000 C 
ATOM     28  C   UNL     1       5.378   5.039  14.322  0.00  0.00    +0.000 C 
BRANCH  27  29
ATOM     29  C   UNL     1       6.899   4.031  16.082  0.00  0.00    +0.000 C 
BRANCH  29  30
ATOM     30  O   UNL     1       7.960   4.533  16.895  0.00  0.00    +0.000 OA
ATOM     31  H   UNL     1       7.792   4.225  17.803  0.00  0.00    +0.000 HD
ENDBRANCH  29  30
ENDBRANCH  27  29
ENDBRANCH  11  27
BRANCH   1  32
ATOM     32  C   UNL     1       2.832   2.512  19.883  0.00  0.00    +0.000 C 
BRANCH  32  34
ATOM     33  C   UNL     1       3.988   0.928  18.424  0.00  0.00    +0.000 C 
ATOM     34  N   UNL     1       2.765   1.240  19.148  0.00  0.00    +0.000 NA
ATOM     35  H   UNL     1       2.569   0.489  19.810  0.00  0.00    +0.000 HD
ENDBRANCH  32  34
ENDBRANCH   1  32
TORSDOF 8
ENDMDL
MODEL 4
REMARK VINA RESULT:      -7.7      2.303      2.730
REMARK  Name = 
REMARK  11 active torsions:
REMARK  status: ('A' for Active; 'I' for Inactive)
REMARK    1  A    between atoms: C_1  and  N_2
REMARK    2  A    between atoms: N_2  and  C_3
REMARK    3  A    between atoms: C_3  and  C_4
REMARK    4  A    between atoms: C_9  and  N_10
REMARK    5  A    between atoms: N_10  and  S_11
REMARK    6  A    between atoms: S_11  and  C_14
REMARK    7  A    between atoms: N_25  and  C_26
REMARK    8  A    between atoms: C_26  and  C_27
REMARK    9  A    between atoms: C_26  and  C_28
REMARK   10  A    between atoms: C_28  and  O_29
REMARK   11  A    between atoms: C_31  and  C_32
REMARK                            x       y       z     vdW  Elec       q    Type
REMARK                         _______ _______ _______ _____ _____    ______ ____
ROOT
ATOM      1  C   UNL     1       3.669   3.723  19.207  0.00  0.00    +0.000 C 
ATOM      2  O   UNL     1       3.538   4.840  20.110  0.00  0.00    +0.000 OA
ATOM      3  C   UNL     1       3.246   6.052  19.570  0.00  0.00    +0.000 A 
ATOM      4  C   UNL     1       2.172   6.706  20.180  0.00  0.00    +0.000 A 
ATOM      5  C   UNL     1       1.588   7.811  19.563  0.00  0.00    +0.000 A 
ATOM      6  C   UNL     1       2.108   8.288  18.363  0.00  0.00    +0.000 A 
ATOM      7  C   UNL     1       3.265   7.729  17.822  0.00  0.00    +0.000 A 
ATOM      8  C   UNL     1       3.832   6.598  18.431  0.00  0.00    +0.000 A 
ATOM      9  C   UNL     1       5.045   6.048  17.809  0.00  0.00    +0.000 C 
ATOM     10  O   UNL     1       6.119   6.550  18.130  0.00  0.00    +0.000 OA
ATOM     11  N   UNL     1       4.904   5.140  16.762  0.00  0.00    +0.000 N 
ATOM     12  C   UNL     1       3.895   4.073  16.666  0.00  0.00    +0.000 C 
ATOM     13  C   UNL     1       2.930   3.763  17.826  0.00  0.00    +0.000 C 
ATOM     14  C   UNL     1       1.606   4.516  17.674  0.00  0.00    +0.000 C 
ENDROOT
BRANCH   6  15
ATOM     15  N   UNL     1       1.382   9.297  17.675  0.00  0.00    +0.000 N 
ATOM     16  H   UNL     1       1.104   9.129  16.711  0.00  0.00    +0.000 HD
BRANCH  15  17
ATOM     17  S   UNL     1       0.224  10.179  18.537  0.00  0.00    +0.000 S 
ATOM     18  O   UNL     1      -0.954  10.230  17.699  0.00  0.00    +0.000 OA
ATOM     19  O   UNL     1       0.160   9.682  19.894  0.00  0.00    +0.000 OA
BRANCH  17  20
ATOM     20  C   UNL     1       0.898  11.825  18.568  0.00  0.00    +0.000 A 
ATOM     21  C   UNL     1       0.052  12.904  18.845  0.00  0.00    +0.000 A 
ATOM     22  C   UNL     1       0.571  14.202  18.824  0.00  0.00    +0.000 A 
ATOM     23  C   UNL     1       1.925  14.413  18.544  0.00  0.00    +0.000 A 
ATOM     24 CL   UNL     1       2.547  16.019  18.504  0.00  0.00    +0.000 Cl
ATOM     25  C   UNL     1       2.771  13.335  18.295  0.00  0.00    +0.000 A 
ATOM     26  C   UNL     1       2.261  12.033  18.311  0.00  0.00    +0.000 A 
ENDBRANCH  17  20
ENDBRANCH  15  17
ENDBRANCH   6  15
BRANCH  11  27
ATOM     27  C   UNL     1       6.001   5.123  15.764  0.00  0.00    +0.000 C 
ATOM     28  C   UNL     1       5.535   4.649  14.381  0.00  0.00    +0.000 C 
BRANCH  27  29
ATOM     29  C   UNL     1       7.237   4.330  16.233  0.00  0.00    +0.000 C 
BRANCH  29  30
ATOM     30  O   UNL     1       7.163   4.042  17.630  0.00  0.00    +0.000 OA
ATOM     31  H   UNL     1       8.002   3.614  17.876  0.00  0.00    +0.000 HD
ENDBRANCH  29  30
ENDBRANCH  27  29
ENDBRANCH  11  27
BRANCH   1  32
ATOM     32  C   UNL     1       3.225   2.484  20.044  0.00  0.00    +0.000 C 
BRANCH  32  34
ATOM     33  C   UNL     1       1.443   2.637  21.710  0.00  0.00    +0.000 C 
ATOM     34  N   UNL     1       1.788   2.347  20.326  0.00  0.00    +0.000 NA
ATOM     35  H   UNL     1       1.273   2.980  19.714  0.00  0.00    +0.000 HD
ENDBRANCH  32  34
ENDBRANCH   1  32
TORSDOF 8
ENDMDL
MODEL 5
REMARK VINA RESULT:      -7.6      2.554      2.704
REMARK  Name = 
REMARK  11 active torsions:
REMARK  status: ('A' for Active; 'I' for Inactive)
REMARK    1  A    between atoms: C_1  and  N_2
REMARK    2  A    between atoms: N_2  and  C_3
REMARK    3  A    between atoms: C_3  and  C_4
REMARK    4  A    between atoms: C_9  and  N_10
REMARK    5  A    between atoms: N_10  and  S_11
REMARK    6  A    between atoms: S_11  and  C_14
REMARK    7  A    between atoms: N_25  and  C_26
REMARK    8  A    between atoms: C_26  and  C_27
REMARK    9  A    between atoms: C_26  and  C_28
REMARK   10  A    between atoms: C_28  and  O_29
REMARK   11  A    between atoms: C_31  and  C_32
REMARK                            x       y       z     vdW  Elec       q    Type
REMARK                         _______ _______ _______ _____ _____    ______ ____
ROOT
ATOM      1  C   UNL     1       3.626   2.802  18.605  0.00  0.00    +0.000 C 
ATOM      2  O   UNL     1       3.238   3.289  19.907  0.00  0.00    +0.000 OA
ATOM      3  C   UNL     1       3.051   4.626  20.046  0.00  0.00    +0.000 A 
ATOM      4  C   UNL     1       1.838   4.975  20.648  0.00  0.00    +0.000 A 
ATOM      5  C   UNL     1       1.390   6.294  20.600  0.00  0.00    +0.000 A 
ATOM      6  C   UNL     1       2.176   7.270  19.994  0.00  0.00    +0.000 A 
ATOM      7  C   UNL     1       3.449   6.958  19.518  0.00  0.00    +0.000 A 
ATOM      8  C   UNL     1       3.883   5.622  19.541  0.00  0.00    +0.000 A 
ATOM      9  C   UNL     1       5.230   5.354  19.017  0.00  0.00    +0.000 C 
ATOM     10  O   UNL     1       6.174   5.497  19.790  0.00  0.00    +0.000 OA
ATOM     11  N   UNL     1       5.383   5.148  17.647  0.00  0.00    +0.000 N 
ATOM     12  C   UNL     1       4.465   4.403  16.772  0.00  0.00    +0.000 C 
ATOM     13  C   UNL     1       3.253   3.637  17.333  0.00  0.00    +0.000 C 
ATOM     14  C   UNL     1       1.984   4.494  17.309  0.00  0.00    +0.000 C 
ENDROOT
BRANCH   6  15
ATOM     15  N   UNL     1       1.613   8.560  19.805  0.00  0.00    +0.000 N 
ATOM     16  H   UNL     1       1.130   8.761  18.932  0.00  0.00    +0.000 HD
BRANCH  15  17
ATOM     17  S   UNL     1       0.888   9.319  21.132  0.00  0.00    +0.000 S 
ATOM     18  O   UNL     1      -0.417   8.714  21.283  0.00  0.00    +0.000 OA
ATOM     19  O   UNL     1       1.830   9.360  22.229  0.00  0.00    +0.000 OA
BRANCH  17  20
ATOM     20  C   UNL     1       0.615  10.981  20.558  0.00  0.00    +0.000 A 
ATOM     21  C   UNL     1      -0.038  11.893  21.395  0.00  0.00    +0.000 A 
ATOM     22  C   UNL     1      -0.295  13.185  20.928  0.00  0.00    +0.000 A 
ATOM     23  C   UNL     1       0.112  13.562  19.642  0.00  0.00    +0.000 A 
ATOM     24 CL   UNL     1      -0.227  15.152  19.073  0.00  0.00    +0.000 Cl
ATOM     25  C   UNL     1       0.784  12.660  18.822  0.00  0.00    +0.000 A 
ATOM     26  C   UNL     1       1.044  11.364  19.279  0.00  0.00    +0.000 A 
ENDBRANCH  17  20
ENDBRANCH  15  17
ENDBRANCH   6  15
BRANCH  11  27
ATOM     27  C   UNL     1       6.694   5.540  17.075  0.00  0.00    +0.000 C 
ATOM     28  C   UNL     1       6.821   7.055  16.871  0.00  0.00    +0.000 C 
BRANCH  27  29
ATOM     29  C   UNL     1       7.045   4.776  15.782  0.00  0.00    +0.000 C 
BRANCH  29  30
ATOM     30  O   UNL     1       7.633   5.646  14.815  0.00  0.00    +0.000 OA
ATOM     31  H   UNL     1       8.536   5.844  15.123  0.00  0.00    +0.000 HD
ENDBRANCH  29  30
ENDBRANCH  27  29
ENDBRANCH  11  27
BRANCH   1  32
ATOM     32  C   UNL     1       3.028   1.364  18.527  0.00  0.00    +0.000 C 
BRANCH  32  34
ATOM     33  C   UNL     1       0.657   1.890  18.799  0.00  0.00    +0.000 C 
ATOM     34  N   UNL     1       1.790   1.112  19.280  0.00  0.00    +0.000 NA
ATOM     35  H   UNL     1       1.564   0.119  19.214  0.00  0.00    +0.000 HD
ENDBRANCH  32  34
ENDBRANCH   1  32
TORSDOF 8
ENDMDL
MODEL 6
REMARK VINA RESULT:      -7.5      2.399      4.476
REMARK  Name = 
REMARK  11 active torsions:
REMARK  status: ('A' for Active; 'I' for Inactive)
REMARK    1  A    between atoms: C_1  and  N_2
REMARK    2  A    between atoms: N_2  and  C_3
REMARK    3  A    between atoms: C_3  and  C_4
REMARK    4  A    between atoms: C_9  and  N_10
REMARK    5  A    between atoms: N_10  and  S_11
REMARK    6  A    between atoms: S_11  and  C_14
REMARK    7  A    between atoms: N_25  and  C_26
REMARK    8  A    between atoms: C_26  and  C_27
REMARK    9  A    between atoms: C_26  and  C_28
REMARK   10  A    between atoms: C_28  and  O_29
REMARK   11  A    between atoms: C_31  and  C_32
REMARK                            x       y       z     vdW  Elec       q    Type
REMARK                         _______ _______ _______ _____ _____    ______ ____
ROOT
ATOM      1  C   UNL     1       5.630   4.414  17.080  0.00  0.00    +0.000 C 
ATOM      2  O   UNL     1       4.922   5.401  16.302  0.00  0.00    +0.000 OA
ATOM      3  C   UNL     1       3.941   6.104  16.923  0.00  0.00    +0.000 A 
ATOM      4  C   UNL     1       4.039   7.489  16.762  0.00  0.00    +0.000 A 
ATOM      5  C   UNL     1       3.279   8.340  17.564  0.00  0.00    +0.000 A 
ATOM      6  C   UNL     1       2.389   7.804  18.490  0.00  0.00    +0.000 A 
ATOM      7  C   UNL     1       2.180   6.427  18.557  0.00  0.00    +0.000 A 
ATOM      8  C   UNL     1       2.970   5.573  17.769  0.00  0.00    +0.000 A 
ATOM      9  C   UNL     1       2.711   4.132  17.891  0.00  0.00    +0.000 C 
ATOM     10  O   UNL     1       1.811   3.661  17.199  0.00  0.00    +0.000 OA
ATOM     11  N   UNL     1       3.350   3.423  18.906  0.00  0.00    +0.000 N 
ATOM     12  C   UNL     1       4.737   3.613  19.359  0.00  0.00    +0.000 C 
ATOM     13  C   UNL     1       5.702   4.574  18.637  0.00  0.00    +0.000 C 
ATOM     14  C   UNL     1       5.697   5.964  19.278  0.00  0.00    +0.000 C 
ENDROOT
BRANCH   6  15
ATOM     15  N   UNL     1       1.767   8.691  19.409  0.00  0.00    +0.000 N 
ATOM     16  H   UNL     1       2.246   8.913  20.278  0.00  0.00    +0.000 HD
BRANCH  15  17
ATOM     17  S   UNL     1       0.910  10.013  18.790  0.00  0.00    +0.000 S 
ATOM     18  O   UNL     1       1.889  11.044  18.525  0.00  0.00    +0.000 OA
ATOM     19  O   UNL     1       0.004   9.553  17.761  0.00  0.00    +0.000 OA
BRANCH  17  20
ATOM     20  C   UNL     1      -0.050  10.570  20.181  0.00  0.00    +0.000 A 
ATOM     21  C   UNL     1      -0.966  11.613  20.004  0.00  0.00    +0.000 A 
ATOM     22  C   UNL     1      -1.687  12.082  21.106  0.00  0.00    +0.000 A 
ATOM     23  C   UNL     1      -1.502  11.502  22.366  0.00  0.00    +0.000 A 
ATOM     24 CL   UNL     1      -2.384  12.103  23.719  0.00  0.00    +0.000 Cl
ATOM     25  C   UNL     1      -0.609  10.447  22.534  0.00  0.00    +0.000 A 
ATOM     26  C   UNL     1       0.119   9.972  21.438  0.00  0.00    +0.000 A 
ENDBRANCH  17  20
ENDBRANCH  15  17
ENDBRANCH   6  15
BRANCH  11  27
ATOM     27  C   UNL     1       2.627   2.237  19.425  0.00  0.00    +0.000 C 
ATOM     28  C   UNL     1       2.072   2.455  20.838  0.00  0.00    +0.000 C 
BRANCH  27  29
ATOM     29  C   UNL     1       3.456   0.939  19.351  0.00  0.00    +0.000 C 
BRANCH  29  30
ATOM     30  O   UNL     1       4.016   0.761  18.049  0.00  0.00    +0.000 OA
ATOM     31  H   UNL     1       4.984   0.806  18.148  0.00  0.00    +0.000 HD
ENDBRANCH  29  30
ENDBRANCH  27  29
ENDBRANCH  11  27
BRANCH   1  32
ATOM     32  C   UNL     1       7.058   4.367  16.455  0.00  0.00    +0.000 C 
BRANCH  32  34
ATOM     33  C   UNL     1       7.237   4.884  14.073  0.00  0.00    +0.000 C 
ATOM     34  N   UNL     1       7.375   5.378  15.435  0.00  0.00    +0.000 NA
ATOM     35  H   UNL     1       6.755   6.178  15.564  0.00  0.00    +0.000 HD
ENDBRANCH  32  34
ENDBRANCH   1  32
TORSDOF 8
ENDMDL
MODEL 7
REMARK VINA RESULT:      -7.5      2.601      3.111
REMARK  Name = 
REMARK  11 active torsions:
REMARK  status: ('A' for Active; 'I' for Inactive)
REMARK    1  A    between atoms: C_1  and  N_2
REMARK    2  A    between atoms: N_2  and  C_3
REMARK    3  A    between atoms: C_3  and  C_4
REMARK    4  A    between atoms: C_9  and  N_10
REMARK    5  A    between atoms: N_10  and  S_11
REMARK    6  A    between atoms: S_11  and  C_14
REMARK    7  A    between atoms: N_25  and  C_26
REMARK    8  A    between atoms: C_26  and  C_27
REMARK    9  A    between atoms: C_26  and  C_28
REMARK   10  A    between atoms: C_28  and  O_29
REMARK   11  A    between atoms: C_31  and  C_32
REMARK                            x       y       z     vdW  Elec       q    Type
REMARK                         _______ _______ _______ _____ _____    ______ ____
ROOT
ATOM      1  C   UNL     1       3.868   3.673  18.981  0.00  0.00    +0.000 C 
ATOM      2  O   UNL     1       3.865   4.790  19.894  0.00  0.00    +0.000 OA
ATOM      3  C   UNL     1       3.474   5.996  19.409  0.00  0.00    +0.000 A 
ATOM      4  C   UNL     1       2.500   6.636  20.182  0.00  0.00    +0.000 A 
ATOM      5  C   UNL     1       1.809   7.731  19.666  0.00  0.00    +0.000 A 
ATOM      6  C   UNL     1       2.126   8.214  18.400  0.00  0.00    +0.000 A 
ATOM      7  C   UNL     1       3.191   7.672  17.682  0.00  0.00    +0.000 A 
ATOM      8  C   UNL     1       3.864   6.550  18.192  0.00  0.00    +0.000 A 
ATOM      9  C   UNL     1       4.970   6.017  17.385  0.00  0.00    +0.000 C 
ATOM     10  O   UNL     1       6.075   6.536  17.532  0.00  0.00    +0.000 OA
ATOM     11  N   UNL     1       4.679   5.106  16.373  0.00  0.00    +0.000 N 
ATOM     12  C   UNL     1       3.683   4.024  16.436  0.00  0.00    +0.000 C 
ATOM     13  C   UNL     1       2.919   3.701  17.734  0.00  0.00    +0.000 C 
ATOM     14  C   UNL     1       1.577   4.435  17.794  0.00  0.00    +0.000 C 
ENDROOT
BRANCH   6  15
ATOM     15  N   UNL     1       1.286   9.211  17.836  0.00  0.00    +0.000 N 
ATOM     16  H   UNL     1       0.810   9.013  16.958  0.00  0.00    +0.000 HD
BRANCH  15  17
ATOM     17  S   UNL     1       0.343  10.149  18.882  0.00  0.00    +0.000 S 
ATOM     18  O   UNL     1      -0.827  10.545  18.131  0.00  0.00    +0.000 OA
ATOM     19  O   UNL     1       0.227   9.471  20.155  0.00  0.00    +0.000 OA
BRANCH  17  20
ATOM     20  C   UNL     1       1.321  11.618  19.113  0.00  0.00    +0.000 A 
ATOM     21  C   UNL     1       2.182  12.032  18.091  0.00  0.00    +0.000 A 
ATOM     22  C   UNL     1       2.985  13.159  18.289  0.00  0.00    +0.000 A 
ATOM     23  C   UNL     1       2.913  13.870  19.492  0.00  0.00    +0.000 A 
ATOM     24 CL   UNL     1       3.922  15.247  19.729  0.00  0.00    +0.000 Cl
ATOM     25  C   UNL     1       2.036  13.472  20.497  0.00  0.00    +0.000 A 
ATOM     26  C   UNL     1       1.231  12.344  20.309  0.00  0.00    +0.000 A 
ENDBRANCH  17  20
ENDBRANCH  15  17
ENDBRANCH   6  15
BRANCH  11  27
ATOM     27  C   UNL     1       5.604   5.104  15.214  0.00  0.00    +0.000 C 
ATOM     28  C   UNL     1       5.132   4.182  14.082  0.00  0.00    +0.000 C 
BRANCH  27  29
ATOM     29  C   UNL     1       7.065   4.800  15.603  0.00  0.00    +0.000 C 
BRANCH  29  30
ATOM     30  O   UNL     1       7.979   5.473  14.736  0.00  0.00    +0.000 OA
ATOM     31  H   UNL     1       7.769   6.423  14.786  0.00  0.00    +0.000 HD
ENDBRANCH  29  30
ENDBRANCH  27  29
ENDBRANCH  11  27
BRANCH   1  32
ATOM     32  C   UNL     1       3.581   2.429  19.876  0.00  0.00    +0.000 C 
BRANCH  32  34
ATOM     33  C   UNL     1       1.469   2.654  21.086  0.00  0.00    +0.000 C 
ATOM     34  N   UNL     1       2.922   2.673  21.168  0.00  0.00    +0.000 NA
ATOM     35  H   UNL     1       3.228   1.960  21.831  0.00  0.00    +0.000 HD
ENDBRANCH  32  34
ENDBRANCH   1  32
TORSDOF 8
ENDMDL
MODEL 8
REMARK VINA RESULT:      -7.5      2.444      2.721
REMARK  Name = 
REMARK  11 active torsions:
REMARK  status: ('A' for Active; 'I' for Inactive)
REMARK    1  A    between atoms: C_1  and  N_2
REMARK    2  A    between atoms: N_2  and  C_3
REMARK    3  A    between atoms: C_3  and  C_4
REMARK    4  A    between atoms: C_9  and  N_10
REMARK    5  A    between atoms: N_10  and  S_11
REMARK    6  A    between atoms: S_11  and  C_14
REMARK    7  A    between atoms: N_25  and  C_26
REMARK    8  A    between atoms: C_26  and  C_27
REMARK    9  A    between atoms: C_26  and  C_28
REMARK   10  A    between atoms: C_28  and  O_29
REMARK   11  A    between atoms: C_31  and  C_32
REMARK                            x       y       z     vdW  Elec       q    Type
REMARK                         _______ _______ _______ _____ _____    ______ ____
ROOT
ATOM      1  C   UNL     1       3.810   2.794  18.730  0.00  0.00    +0.000 C 
ATOM      2  O   UNL     1       3.617   3.372  20.037  0.00  0.00    +0.000 OA
ATOM      3  C   UNL     1       3.271   4.684  20.098  0.00  0.00    +0.000 A 
ATOM      4  C   UNL     1       2.162   4.946  20.908  0.00  0.00    +0.000 A 
ATOM      5  C   UNL     1       1.529   6.186  20.842  0.00  0.00    +0.000 A 
ATOM      6  C   UNL     1       2.034   7.177  20.006  0.00  0.00    +0.000 A 
ATOM      7  C   UNL     1       3.221   6.973  19.304  0.00  0.00    +0.000 A 
ATOM      8  C   UNL     1       3.838   5.711  19.349  0.00  0.00    +0.000 A 
ATOM      9  C   UNL     1       5.081   5.554  18.581  0.00  0.00    +0.000 C 
ATOM     10  O   UNL     1       6.127   5.898  19.125  0.00  0.00    +0.000 OA
ATOM     11  N   UNL     1       4.992   5.217  17.232  0.00  0.00    +0.000 N 
ATOM     12  C   UNL     1       4.038   4.271  16.632  0.00  0.00    +0.000 C 
ATOM     13  C   UNL     1       3.080   3.429  17.497  0.00  0.00    +0.000 C 
ATOM     14  C   UNL     1       1.722   4.115  17.664  0.00  0.00    +0.000 C 
ENDROOT
BRANCH   6  15
ATOM     15  N   UNL     1       1.266   8.359  19.829  0.00  0.00    +0.000 N 
ATOM     16  H   UNL     1       0.590   8.396  19.070  0.00  0.00    +0.000 HD
BRANCH  15  17
ATOM     17  S   UNL     1       0.729   9.178  21.210  0.00  0.00    +0.000 S 
ATOM     18  O   UNL     1      -0.543   8.588  21.564  0.00  0.00    +0.000 OA
ATOM     19  O   UNL     1       1.812   9.260  22.165  0.00  0.00    +0.000 OA
BRANCH  17  20
ATOM     20  C   UNL     1       0.380  10.816  20.608  0.00  0.00    +0.000 A 
ATOM     21  C   UNL     1       0.888  11.208  19.365  0.00  0.00    +0.000 A 
ATOM     22  C   UNL     1       0.654  12.510  18.912  0.00  0.00    +0.000 A 
ATOM     23  C   UNL     1      -0.093  13.401  19.690  0.00  0.00    +0.000 A 
ATOM     24 CL   UNL     1      -0.359  15.008  19.128  0.00  0.00    +0.000 Cl
ATOM     25  C   UNL     1      -0.620  12.999  20.915  0.00  0.00    +0.000 A 
ATOM     26  C   UNL     1      -0.389  11.700  21.378  0.00  0.00    +0.000 A 
ENDBRANCH  17  20
ENDBRANCH  15  17
ENDBRANCH   6  15
BRANCH  11  27
ATOM     27  C   UNL     1       6.097   5.700  16.368  0.00  0.00    +0.000 C 
ATOM     28  C   UNL     1       5.593   6.458  15.133  0.00  0.00    +0.000 C 
BRANCH  27  29
ATOM     29  C   UNL     1       7.087   4.587  15.968  0.00  0.00    +0.000 C 
BRANCH  29  30
ATOM     30  O   UNL     1       7.919   4.221  17.068  0.00  0.00    +0.000 OA
ATOM     31  H   UNL     1       8.357   3.384  16.827  0.00  0.00    +0.000 HD
ENDBRANCH  29  30
ENDBRANCH  27  29
ENDBRANCH  11  27
BRANCH   1  32
ATOM     32  C   UNL     1       3.420   1.294  18.900  0.00  0.00    +0.000 C 
BRANCH  32  34
ATOM     33  C   UNL     1       5.221   0.429  20.308  0.00  0.00    +0.000 C 
ATOM     34  N   UNL     1       4.521   0.328  19.035  0.00  0.00    +0.000 NA
ATOM     35  H   UNL     1       4.143  -0.615  18.937  0.00  0.00    +0.000 HD
ENDBRANCH  32  34
ENDBRANCH   1  32
TORSDOF 8
ENDMDL
MODEL 9
REMARK VINA RESULT:      -7.5      2.924      4.846
REMARK  Name = 
REMARK  11 active torsions:
REMARK  status: ('A' for Active; 'I' for Inactive)
REMARK    1  A    between atoms: C_1  and  N_2
REMARK    2  A    between atoms: N_2  and  C_3
REMARK    3  A    between atoms: C_3  and  C_4
REMARK    4  A    between atoms: C_9  and  N_10
REMARK    5  A    between atoms: N_10  and  S_11
REMARK    6  A    between atoms: S_11  and  C_14
REMARK    7  A    between atoms: N_25  and  C_26
REMARK    8  A    between atoms: C_26  and  C_27
REMARK    9  A    between atoms: C_26  and  C_28
REMARK   10  A    between atoms: C_28  and  O_29
REMARK   11  A    between atoms: C_31  and  C_32
REMARK                            x       y       z     vdW  Elec       q    Type
REMARK                         _______ _______ _______ _____ _____    ______ ____
ROOT
ATOM      1  C   UNL     1       5.579   4.502  17.033  0.00  0.00    +0.000 C 
ATOM      2  O   UNL     1       4.871   5.546  16.332  0.00  0.00    +0.000 OA
ATOM      3  C   UNL     1       3.898   6.207  17.010  0.00  0.00    +0.000 A 
ATOM      4  C   UNL     1       4.003   7.600  16.947  0.00  0.00    +0.000 A 
ATOM      5  C   UNL     1       3.253   8.395  17.813  0.00  0.00    +0.000 A 
ATOM      6  C   UNL     1       2.366   7.799  18.705  0.00  0.00    +0.000 A 
ATOM      7  C   UNL     1       2.151   6.422  18.675  0.00  0.00    +0.000 A 
ATOM      8  C   UNL     1       2.931   5.623  17.823  0.00  0.00    +0.000 A 
ATOM      9  C   UNL     1       2.665   4.177  17.844  0.00  0.00    +0.000 C 
ATOM     10  O   UNL     1       1.758   3.761  17.128  0.00  0.00    +0.000 OA
ATOM     11  N   UNL     1       3.308   3.395  18.801  0.00  0.00    +0.000 N 
ATOM     12  C   UNL     1       4.699   3.546  19.256  0.00  0.00    +0.000 C 
ATOM     13  C   UNL     1       5.663   4.550  18.596  0.00  0.00    +0.000 C 
ATOM     14  C   UNL     1       5.670   5.891  19.335  0.00  0.00    +0.000 C 
ENDROOT
BRANCH   6  15
ATOM     15  N   UNL     1       1.756   8.621  19.690  0.00  0.00    +0.000 N 
ATOM     16  H   UNL     1       2.329   8.991  20.444  0.00  0.00    +0.000 HD
BRANCH  15  17
ATOM     17  S   UNL     1       0.561   9.712  19.193  0.00  0.00    +0.000 S 
ATOM     18  O   UNL     1       0.350   9.469  17.783  0.00  0.00    +0.000 OA
ATOM     19  O   UNL     1      -0.536   9.677  20.135  0.00  0.00    +0.000 OA
BRANCH  17  20
ATOM     20  C   UNL     1       1.367  11.293  19.322  0.00  0.00    +0.000 A 
ATOM     21  C   UNL     1       1.270  12.013  20.518  0.00  0.00    +0.000 A 
ATOM     22  C   UNL     1       1.863  13.276  20.605  0.00  0.00    +0.000 A 
ATOM     23  C   UNL     1       2.558  13.803  19.510  0.00  0.00    +0.000 A 
ATOM     24 CL   UNL     1       3.268  15.368  19.626  0.00  0.00    +0.000 Cl
ATOM     25  C   UNL     1       2.675  13.074  18.330  0.00  0.00    +0.000 A 
ATOM     26  C   UNL     1       2.083  11.810  18.233  0.00  0.00    +0.000 A 
ENDBRANCH  17  20
ENDBRANCH  15  17
ENDBRANCH   6  15
BRANCH  11  27
ATOM     27  C   UNL     1       2.582   2.178  19.240  0.00  0.00    +0.000 C 
ATOM     28  C   UNL     1       1.738   2.416  20.498  0.00  0.00    +0.000 C 
BRANCH  27  29
ATOM     29  C   UNL     1       3.501   0.952  19.413  0.00  0.00    +0.000 C 
BRANCH  29  30
ATOM     30  O   UNL     1       4.090   0.572  18.169  0.00  0.00    +0.000 OA
ATOM     31  H   UNL     1       4.995   0.930  18.162  0.00  0.00    +0.000 HD
ENDBRANCH  29  30
ENDBRANCH  27  29
ENDBRANCH  11  27
BRANCH   1  32
ATOM     32  C   UNL     1       7.002   4.493  16.395  0.00  0.00    +0.000 C 
BRANCH  32  34
ATOM     33  C   UNL     1       7.085   4.761  13.967  0.00  0.00    +0.000 C 
ATOM     34  N   UNL     1       7.234   5.404  15.264  0.00  0.00    +0.000 NA
ATOM     35  H   UNL     1       6.575   6.180  15.329  0.00  0.00    +0.000 HD
ENDBRANCH  32  34
ENDBRANCH   1  32
TORSDOF 8
ENDMDL
