MODEL 1
REMARK VINA RESULT:      -8.6      0.000      0.000
REMARK  Name = 
REMARK  7 active torsions:
REMARK  status: ('A' for Active; 'I' for Inactive)
REMARK    1  A    between atoms: C_1  and  O_2
REMARK    2  A    between atoms: O_2  and  C_3
REMARK    3  A    between atoms: C_6  and  C_7
REMARK    4  A    between atoms: C_7  and  C_8
REMARK    5  A    between atoms: C_7  and  N_15
REMARK    6  A    between atoms: C_8  and  C_9
REMARK    7  A    between atoms: N_15  and  C_16
REMARK                            x       y       z     vdW  Elec       q    Type
REMARK                         _______ _______ _______ _____ _____    ______ ____
ROOT
ATOM      1  C   UNL     1       3.180   6.772  18.550  0.00  0.00    +0.000 C 
ENDROOT
BRANCH   1   5
ATOM      2  C   UNL     1       0.285   9.912  19.331  0.00  0.00    +0.000 A 
ATOM      3  C   UNL     1       0.798   9.129  20.363  0.00  0.00    +0.000 A 
ATOM      4  C   UNL     1       1.790   8.178  20.112  0.00  0.00    +0.000 A 
ATOM      5  C   UNL     1       2.272   7.973  18.809  0.00  0.00    +0.000 A 
ATOM      6  C   UNL     1       1.760   8.774  17.777  0.00  0.00    +0.000 A 
ATOM      7  C   UNL     1       0.781   9.745  18.039  0.00  0.00    +0.000 A 
BRANCH   2   9
ATOM      8  C   UNL     1      -1.054  11.796  18.799  0.00  0.00    +0.000 C 
ATOM      9  O   UNL     1      -0.743  10.736  19.692  0.00  0.00    +0.000 OA
ENDBRANCH   2   9
ENDBRANCH   1   5
BRANCH   1  10
ATOM     10  N   UNL     1       4.298   7.005  17.623  0.00  0.00    +0.000 NA
ATOM     11  H   UNL     1       4.770   7.877  17.852  0.00  0.00    +0.000 HD
BRANCH  10  12
ATOM     12  C   UNL     1       5.271   5.922  17.434  0.00  0.00    +0.000 C 
ATOM     13  C   UNL     1       5.779   5.408  18.825  0.00  0.00    +0.000 C 
ATOM     14  N   UNL     1       7.255   5.259  18.889  0.00  0.00    +0.000 NA
ATOM     15  C   UNL     1       7.709   4.377  17.796  0.00  0.00    +0.000 C 
ATOM     16  C   UNL     1       7.291   4.910  16.417  0.00  0.00    +0.000 C 
ATOM     17  C   UNL     1       6.526   6.241  16.582  0.00  0.00    +0.000 C 
ATOM     18  C   UNL     1       7.462   7.205  17.330  0.00  0.00    +0.000 C 
ATOM     19  C   UNL     1       7.848   6.602  18.692  0.00  0.00    +0.000 C 
ENDBRANCH  10  12
ENDBRANCH   1  10
BRANCH   1  20
ATOM     20  C   UNL     1       2.239   5.629  18.043  0.00  0.00    +0.000 C 
BRANCH  20  21
ATOM     21  C   UNL     1       1.933   4.543  19.045  0.00  0.00    +0.000 A 
ATOM     22  C   UNL     1       1.223   3.397  18.666  0.00  0.00    +0.000 A 
ATOM     23  C   UNL     1       0.877   2.438  19.618  0.00  0.00    +0.000 A 
ATOM     24  C   UNL     1       1.252   2.608  20.950  0.00  0.00    +0.000 A 
ATOM     25  C   UNL     1       2.004   3.719  21.326  0.00  0.00    +0.000 A 
ATOM     26  C   UNL     1       2.352   4.678  20.376  0.00  0.00    +0.000 A 
ENDBRANCH  20  21
ENDBRANCH   1  20
TORSDOF 6
ENDMDL
MODEL 2
REMARK VINA RESULT:      -8.5      0.313      1.015
REMARK  Name = 
REMARK  7 active torsions:
REMARK  status: ('A' for Active; 'I' for Inactive)
REMARK    1  A    between atoms: C_1  and  O_2
REMARK    2  A    between atoms: O_2  and  C_3
REMARK    3  A    between atoms: C_6  and  C_7
REMARK    4  A    between atoms: C_7  and  C_8
REMARK    5  A    between atoms: C_7  and  N_15
REMARK    6  A    between atoms: C_8  and  C_9
REMARK    7  A    between atoms: N_15  and  C_16
REMARK                            x       y       z     vdW  Elec       q    Type
REMARK                         _______ _______ _______ _____ _____    ______ ____
ROOT
ATOM      1  C   UNL     1       3.172   6.814  18.643  0.00  0.00    +0.000 C 
ENDROOT
BRANCH   1   5
ATOM      2  C   UNL     1       0.228   9.927  19.350  0.00  0.00    +0.000 A 
ATOM      3  C   UNL     1       0.719   9.145  20.395  0.00  0.00    +0.000 A 
ATOM      4  C   UNL     1       1.726   8.204  20.169  0.00  0.00    +0.000 A 
ATOM      5  C   UNL     1       2.246   8.006  18.880  0.00  0.00    +0.000 A 
ATOM      6  C   UNL     1       1.756   8.806  17.836  0.00  0.00    +0.000 A 
ATOM      7  C   UNL     1       0.761   9.767  18.072  0.00  0.00    +0.000 A 
BRANCH   2   9
ATOM      8  C   UNL     1      -0.488  12.054  20.114  0.00  0.00    +0.000 C 
ATOM      9  O   UNL     1      -0.817  10.740  19.685  0.00  0.00    +0.000 OA
ENDBRANCH   2   9
ENDBRANCH   1   5
BRANCH   1  10
ATOM     10  N   UNL     1       4.286   7.046  17.711  0.00  0.00    +0.000 NA
ATOM     11  H   UNL     1       4.779   7.901  17.957  0.00  0.00    +0.000 HD
BRANCH  10  12
ATOM     12  C   UNL     1       5.233   5.947  17.486  0.00  0.00    +0.000 C 
ATOM     13  C   UNL     1       5.799   5.437  18.855  0.00  0.00    +0.000 C 
ATOM     14  N   UNL     1       7.274   5.266  18.850  0.00  0.00    +0.000 NA
ATOM     15  C   UNL     1       7.662   4.369  17.745  0.00  0.00    +0.000 C 
ATOM     16  C   UNL     1       7.187   4.897  16.382  0.00  0.00    +0.000 C 
ATOM     17  C   UNL     1       6.450   6.241  16.572  0.00  0.00    +0.000 C 
ATOM     18  C   UNL     1       7.435   7.196  17.267  0.00  0.00    +0.000 C 
ATOM     19  C   UNL     1       7.876   6.598  18.615  0.00  0.00    +0.000 C 
ENDBRANCH  10  12
ENDBRANCH   1  10
BRANCH   1  20
ATOM     20  C   UNL     1       2.247   5.648  18.159  0.00  0.00    +0.000 C 
BRANCH  20  21
ATOM     21  C   UNL     1       1.939   4.589  19.190  0.00  0.00    +0.000 A 
ATOM     22  C   UNL     1       2.338   4.750  20.522  0.00  0.00    +0.000 A 
ATOM     23  C   UNL     1       2.119   3.730  21.449  0.00  0.00    +0.000 A 
ATOM     24  C   UNL     1       1.486   2.552  21.055  0.00  0.00    +0.000 A 
ATOM     25  C   UNL     1       1.038   2.406  19.744  0.00  0.00    +0.000 A 
ATOM     26  C   UNL     1       1.255   3.424  18.816  0.00  0.00    +0.000 A 
ENDBRANCH  20  21
ENDBRANCH   1  20
TORSDOF 6
ENDMDL
MODEL 3
REMARK VINA RESULT:      -8.5      0.493      1.077
REMARK  Name = 
REMARK  7 active torsions:
REMARK  status: ('A' for Active; 'I' for Inactive)
REMARK    1  A    between atoms: C_1  and  O_2
REMARK    2  A    between atoms: O_2  and  C_3
REMARK    3  A    between atoms: C_6  and  C_7
REMARK    4  A    between atoms: C_7  and  C_8
REMARK    5  A    between atoms: C_7  and  N_15
REMARK    6  A    between atoms: C_8  and  C_9
REMARK    7  A    between atoms: N_15  and  C_16
REMARK                            x       y       z     vdW  Elec       q    Type
REMARK                         _______ _______ _______ _____ _____    ______ ____
ROOT
ATOM      1  C   UNL     1       3.144   6.759  18.657  0.00  0.00    +0.000 C 
ENDROOT
BRANCH   1   5
ATOM      2  C   UNL     1       0.696  10.283  19.321  0.00  0.00    +0.000 A 
ATOM      3  C   UNL     1       1.231  10.001  18.065  0.00  0.00    +0.000 A 
ATOM      4  C   UNL     1       1.947   8.822  17.843  0.00  0.00    +0.000 A 
ATOM      5  C   UNL     1       2.166   7.909  18.888  0.00  0.00    +0.000 A 
ATOM      6  C   UNL     1       1.612   8.195  20.146  0.00  0.00    +0.000 A 
ATOM      7  C   UNL     1       0.873   9.368  20.357  0.00  0.00    +0.000 A 
BRANCH   2   9
ATOM      8  C   UNL     1       0.697  12.571  18.700  0.00  0.00    +0.000 C 
ATOM      9  O   UNL     1       0.100  11.507  19.427  0.00  0.00    +0.000 OA
ENDBRANCH   2   9
ENDBRANCH   1   5
BRANCH   1  10
ATOM     10  N   UNL     1       4.263   7.045  17.746  0.00  0.00    +0.000 NA
ATOM     11  H   UNL     1       4.745   7.893  18.036  0.00  0.00    +0.000 HD
BRANCH  10  12
ATOM     12  C   UNL     1       5.222   5.967  17.476  0.00  0.00    +0.000 C 
ATOM     13  C   UNL     1       5.800   5.413  18.823  0.00  0.00    +0.000 C 
ATOM     14  N   UNL     1       7.277   5.261  18.807  0.00  0.00    +0.000 NA
ATOM     15  C   UNL     1       7.672   4.410  17.667  0.00  0.00    +0.000 C 
ATOM     16  C   UNL     1       7.184   4.984  16.327  0.00  0.00    +0.000 C 
ATOM     17  C   UNL     1       6.432   6.310  16.570  0.00  0.00    +0.000 C 
ATOM     18  C   UNL     1       7.408   7.251  17.296  0.00  0.00    +0.000 C 
ATOM     19  C   UNL     1       7.862   6.608  18.619  0.00  0.00    +0.000 C 
ENDBRANCH  10  12
ENDBRANCH   1  10
BRANCH   1  20
ATOM     20  C   UNL     1       2.277   5.560  18.147  0.00  0.00    +0.000 C 
BRANCH  20  21
ATOM     21  C   UNL     1       1.977   4.491  19.170  0.00  0.00    +0.000 A 
ATOM     22  C   UNL     1       1.217   3.366  18.827  0.00  0.00    +0.000 A 
ATOM     23  C   UNL     1       0.878   2.425  19.800  0.00  0.00    +0.000 A 
ATOM     24  C   UNL     1       1.310   2.592  21.115  0.00  0.00    +0.000 A 
ATOM     25  C   UNL     1       2.112   3.680  21.452  0.00  0.00    +0.000 A 
ATOM     26  C   UNL     1       2.452   4.622  20.482  0.00  0.00    +0.000 A 
ENDBRANCH  20  21
ENDBRANCH   1  20
TORSDOF 6
ENDMDL
MODEL 4
REMARK VINA RESULT:      -8.4      0.458      1.399
REMARK  Name = 
REMARK  7 active torsions:
REMARK  status: ('A' for Active; 'I' for Inactive)
REMARK    1  A    between atoms: C_1  and  O_2
REMARK    2  A    between atoms: O_2  and  C_3
REMARK    3  A    between atoms: C_6  and  C_7
REMARK    4  A    between atoms: C_7  and  C_8
REMARK    5  A    between atoms: C_7  and  N_15
REMARK    6  A    between atoms: C_8  and  C_9
REMARK    7  A    between atoms: N_15  and  C_16
REMARK                            x       y       z     vdW  Elec       q    Type
REMARK                         _______ _______ _______ _____ _____    ______ ____
ROOT
ATOM      1  C   UNL     1       3.065   6.765  18.644  0.00  0.00    +0.000 C 
ENDROOT
BRANCH   1   5
ATOM      2  C   UNL     1       0.659  10.295  19.422  0.00  0.00    +0.000 A 
ATOM      3  C   UNL     1       1.119  10.002  18.139  0.00  0.00    +0.000 A 
ATOM      4  C   UNL     1       1.821   8.821  17.885  0.00  0.00    +0.000 A 
ATOM      5  C   UNL     1       2.102   7.918  18.923  0.00  0.00    +0.000 A 
ATOM      6  C   UNL     1       1.624   8.214  20.209  0.00  0.00    +0.000 A 
ATOM      7  C   UNL     1       0.898   9.389  20.454  0.00  0.00    +0.000 A 
BRANCH   2   9
ATOM      8  C   UNL     1      -0.807  11.920  18.511  0.00  0.00    +0.000 C 
ATOM      9  O   UNL     1       0.070  11.520  19.554  0.00  0.00    +0.000 OA
ENDBRANCH   2   9
ENDBRANCH   1   5
BRANCH   1  10
ATOM     10  N   UNL     1       4.263   7.109  17.863  0.00  0.00    +0.000 NA
ATOM     11  H   UNL     1       4.756   7.887  18.297  0.00  0.00    +0.000 HD
BRANCH  10  12
ATOM     12  C   UNL     1       5.196   6.028  17.523  0.00  0.00    +0.000 C 
ATOM     13  C   UNL     1       5.758   5.374  18.831  0.00  0.00    +0.000 C 
ATOM     14  N   UNL     1       7.231   5.186  18.804  0.00  0.00    +0.000 NA
ATOM     15  C   UNL     1       7.606   4.402  17.611  0.00  0.00    +0.000 C 
ATOM     16  C   UNL     1       7.134   5.072  16.312  0.00  0.00    +0.000 C 
ATOM     17  C   UNL     1       6.415   6.398  16.640  0.00  0.00    +0.000 C 
ATOM     18  C   UNL     1       7.412   7.266  17.425  0.00  0.00    +0.000 C 
ATOM     19  C   UNL     1       7.849   6.528  18.703  0.00  0.00    +0.000 C 
ENDBRANCH  10  12
ENDBRANCH   1  10
BRANCH   1  20
ATOM     20  C   UNL     1       2.212   5.660  17.936  0.00  0.00    +0.000 C 
BRANCH  20  21
ATOM     21  C   UNL     1       1.840   4.475  18.793  0.00  0.00    +0.000 A 
ATOM     22  C   UNL     1       1.671   4.615  20.175  0.00  0.00    +0.000 A 
ATOM     23  C   UNL     1       1.407   3.499  20.968  0.00  0.00    +0.000 A 
ATOM     24  C   UNL     1       1.291   2.238  20.383  0.00  0.00    +0.000 A 
ATOM     25  C   UNL     1       1.404   2.098  19.002  0.00  0.00    +0.000 A 
ATOM     26  C   UNL     1       1.668   3.212  18.207  0.00  0.00    +0.000 A 
ENDBRANCH  20  21
ENDBRANCH   1  20
TORSDOF 6
ENDMDL
MODEL 5
REMARK VINA RESULT:      -8.4      0.870      1.298
REMARK  Name = 
REMARK  7 active torsions:
REMARK  status: ('A' for Active; 'I' for Inactive)
REMARK    1  A    between atoms: C_1  and  O_2
REMARK    2  A    between atoms: O_2  and  C_3
REMARK    3  A    between atoms: C_6  and  C_7
REMARK    4  A    between atoms: C_7  and  C_8
REMARK    5  A    between atoms: C_7  and  N_15
REMARK    6  A    between atoms: C_8  and  C_9
REMARK    7  A    between atoms: N_15  and  C_16
REMARK                            x       y       z     vdW  Elec       q    Type
REMARK                         _______ _______ _______ _____ _____    ______ ____
ROOT
ATOM      1  C   UNL     1       3.052   6.726  18.551  0.00  0.00    +0.000 C 
ENDROOT
BRANCH   1   5
ATOM      2  C   UNL     1       0.442   9.899  19.955  0.00  0.00    +0.000 A 
ATOM      3  C   UNL     1       0.865   8.880  20.807  0.00  0.00    +0.000 A 
ATOM      4  C   UNL     1       1.770   7.912  20.367  0.00  0.00    +0.000 A 
ATOM      5  C   UNL     1       2.253   7.929  19.049  0.00  0.00    +0.000 A 
ATOM      6  C   UNL     1       1.833   8.965  18.201  0.00  0.00    +0.000 A 
ATOM      7  C   UNL     1       0.943   9.950  18.655  0.00  0.00    +0.000 A 
BRANCH   2   9
ATOM      8  C   UNL     1      -0.625  10.750  21.894  0.00  0.00    +0.000 C 
ATOM      9  O   UNL     1      -0.512  10.724  20.478  0.00  0.00    +0.000 OA
ENDBRANCH   2   9
ENDBRANCH   1   5
BRANCH   1  10
ATOM     10  N   UNL     1       4.213   7.037  17.703  0.00  0.00    +0.000 NA
ATOM     11  H   UNL     1       4.694   7.863  18.052  0.00  0.00    +0.000 HD
BRANCH  10  12
ATOM     12  C   UNL     1       5.169   5.959  17.422  0.00  0.00    +0.000 C 
ATOM     13  C   UNL     1       5.695   5.347  18.766  0.00  0.00    +0.000 C 
ATOM     14  N   UNL     1       7.171   5.177  18.791  0.00  0.00    +0.000 NA
ATOM     15  C   UNL     1       7.593   4.365  17.633  0.00  0.00    +0.000 C 
ATOM     16  C   UNL     1       7.156   4.995  16.301  0.00  0.00    +0.000 C 
ATOM     17  C   UNL     1       6.412   6.320  16.570  0.00  0.00    +0.000 C 
ATOM     18  C   UNL     1       7.373   7.221  17.363  0.00  0.00    +0.000 C 
ATOM     19  C   UNL     1       7.776   6.522  18.674  0.00  0.00    +0.000 C 
ENDBRANCH  10  12
ENDBRANCH   1  10
BRANCH   1  20
ATOM     20  C   UNL     1       2.023   5.810  17.807  0.00  0.00    +0.000 C 
BRANCH  20  21
ATOM     21  C   UNL     1       1.904   4.401  18.335  0.00  0.00    +0.000 A 
ATOM     22  C   UNL     1       1.276   4.146  19.560  0.00  0.00    +0.000 A 
ATOM     23  C   UNL     1       1.242   2.850  20.076  0.00  0.00    +0.000 A 
ATOM     24  C   UNL     1       1.819   1.799  19.363  0.00  0.00    +0.000 A 
ATOM     25  C   UNL     1       2.399   2.036  18.119  0.00  0.00    +0.000 A 
ATOM     26  C   UNL     1       2.433   3.330  17.601  0.00  0.00    +0.000 A 
ENDBRANCH  20  21
ENDBRANCH   1  20
TORSDOF 6
ENDMDL
MODEL 6
REMARK VINA RESULT:      -8.3      1.446      4.555
REMARK  Name = 
REMARK  7 active torsions:
REMARK  status: ('A' for Active; 'I' for Inactive)
REMARK    1  A    between atoms: C_1  and  O_2
REMARK    2  A    between atoms: O_2  and  C_3
REMARK    3  A    between atoms: C_6  and  C_7
REMARK    4  A    between atoms: C_7  and  C_8
REMARK    5  A    between atoms: C_7  and  N_15
REMARK    6  A    between atoms: C_8  and  C_9
REMARK    7  A    between atoms: N_15  and  C_16
REMARK                            x       y       z     vdW  Elec       q    Type
REMARK                         _______ _______ _______ _____ _____    ______ ____
ROOT
ATOM      1  C   UNL     1       2.939   6.678  18.511  0.00  0.00    +0.000 C 
ENDROOT
BRANCH   1   5
ATOM      2  C   UNL     1       0.403  10.002  19.681  0.00  0.00    +0.000 A 
ATOM      3  C   UNL     1       0.834   9.059  20.612  0.00  0.00    +0.000 A 
ATOM      4  C   UNL     1       1.717   8.042  20.241  0.00  0.00    +0.000 A 
ATOM      5  C   UNL     1       2.167   7.932  18.916  0.00  0.00    +0.000 A 
ATOM      6  C   UNL     1       1.738   8.893  17.987  0.00  0.00    +0.000 A 
ATOM      7  C   UNL     1       0.871   9.928  18.370  0.00  0.00    +0.000 A 
BRANCH   2   9
ATOM      8  C   UNL     1      -1.415  11.443  19.189  0.00  0.00    +0.000 C 
ATOM      9  O   UNL     1      -0.529  10.885  20.149  0.00  0.00    +0.000 OA
ENDBRANCH   2   9
ENDBRANCH   1   5
BRANCH   1  10
ATOM     10  N   UNL     1       3.526   5.905  19.615  0.00  0.00    +0.000 NA
ATOM     11  H   UNL     1       3.627   6.490  20.441  0.00  0.00    +0.000 HD
BRANCH  10  12
ATOM     12  C   UNL     1       2.906   4.620  19.961  0.00  0.00    +0.000 C 
ATOM     13  C   UNL     1       3.822   3.439  19.490  0.00  0.00    +0.000 C 
ATOM     14  N   UNL     1       3.077   2.372  18.774  0.00  0.00    +0.000 NA
ATOM     15  C   UNL     1       1.974   1.885  19.626  0.00  0.00    +0.000 C 
ATOM     16  C   UNL     1       1.017   3.019  20.029  0.00  0.00    +0.000 C 
ATOM     17  C   UNL     1       1.487   4.347  19.399  0.00  0.00    +0.000 C 
ATOM     18  C   UNL     1       1.537   4.128  17.878  0.00  0.00    +0.000 C 
ATOM     19  C   UNL     1       2.502   2.974  17.550  0.00  0.00    +0.000 C 
ENDBRANCH  10  12
ENDBRANCH   1  10
BRANCH   1  20
ATOM     20  C   UNL     1       4.031   7.160  17.498  0.00  0.00    +0.000 C 
BRANCH  20  21
ATOM     21  C   UNL     1       5.152   6.184  17.235  0.00  0.00    +0.000 A 
ATOM     22  C   UNL     1       6.379   6.307  17.898  0.00  0.00    +0.000 A 
ATOM     23  C   UNL     1       7.435   5.449  17.589  0.00  0.00    +0.000 A 
ATOM     24  C   UNL     1       7.265   4.451  16.629  0.00  0.00    +0.000 A 
ATOM     25  C   UNL     1       6.031   4.288  16.004  0.00  0.00    +0.000 A 
ATOM     26  C   UNL     1       4.975   5.144  16.312  0.00  0.00    +0.000 A 
ENDBRANCH  20  21
ENDBRANCH   1  20
TORSDOF 6
ENDMDL
MODEL 7
REMARK VINA RESULT:      -8.3      1.566      4.422
REMARK  Name = 
REMARK  7 active torsions:
REMARK  status: ('A' for Active; 'I' for Inactive)
REMARK    1  A    between atoms: C_1  and  O_2
REMARK    2  A    between atoms: O_2  and  C_3
REMARK    3  A    between atoms: C_6  and  C_7
REMARK    4  A    between atoms: C_7  and  C_8
REMARK    5  A    between atoms: C_7  and  N_15
REMARK    6  A    between atoms: C_8  and  C_9
REMARK    7  A    between atoms: N_15  and  C_16
REMARK                            x       y       z     vdW  Elec       q    Type
REMARK                         _______ _______ _______ _____ _____    ______ ____
ROOT
ATOM      1  C   UNL     1       2.924   6.750  18.168  0.00  0.00    +0.000 C 
ENDROOT
BRANCH   1   5
ATOM      2  C   UNL     1       0.430   9.932  19.752  0.00  0.00    +0.000 A 
ATOM      3  C   UNL     1       0.952   8.942  20.582  0.00  0.00    +0.000 A 
ATOM      4  C   UNL     1       1.821   7.972  20.076  0.00  0.00    +0.000 A 
ATOM      5  C   UNL     1       2.164   7.958  18.715  0.00  0.00    +0.000 A 
ATOM      6  C   UNL     1       1.644   8.965  17.888  0.00  0.00    +0.000 A 
ATOM      7  C   UNL     1       0.792   9.952  18.406  0.00  0.00    +0.000 A 
BRANCH   2   9
ATOM      8  C   UNL     1      -1.154  11.679  19.502  0.00  0.00    +0.000 C 
ATOM      9  O   UNL     1      -0.477  10.761  20.349  0.00  0.00    +0.000 OA
ENDBRANCH   2   9
ENDBRANCH   1   5
BRANCH   1  10
ATOM     10  N   UNL     1       3.378   5.774  19.170  0.00  0.00    +0.000 NA
ATOM     11  H   UNL     1       3.601   6.244  20.044  0.00  0.00    +0.000 HD
BRANCH  10  12
ATOM     12  C   UNL     1       2.536   4.596  19.413  0.00  0.00    +0.000 C 
ATOM     13  C   UNL     1       3.405   3.426  19.988  0.00  0.00    +0.000 C 
ATOM     14  N   UNL     1       3.149   2.125  19.320  0.00  0.00    +0.000 NA
ATOM     15  C   UNL     1       1.710   1.807  19.394  0.00  0.00    +0.000 C 
ATOM     16  C   UNL     1       0.846   2.908  18.759  0.00  0.00    +0.000 C 
ATOM     17  C   UNL     1       1.752   4.027  18.203  0.00  0.00    +0.000 C 
ATOM     18  C   UNL     1       2.709   3.369  17.194  0.00  0.00    +0.000 C 
ATOM     19  C   UNL     1       3.530   2.273  17.897  0.00  0.00    +0.000 C 
ENDBRANCH  10  12
ENDBRANCH   1  10
BRANCH   1  20
ATOM     20  C   UNL     1       4.122   7.337  17.349  0.00  0.00    +0.000 C 
BRANCH  20  21
ATOM     21  C   UNL     1       5.218   6.358  17.004  0.00  0.00    +0.000 A 
ATOM     22  C   UNL     1       5.111   5.531  15.880  0.00  0.00    +0.000 A 
ATOM     23  C   UNL     1       6.092   4.575  15.615  0.00  0.00    +0.000 A 
ATOM     24  C   UNL     1       7.193   4.450  16.462  0.00  0.00    +0.000 A 
ATOM     25  C   UNL     1       7.333   5.305  17.553  0.00  0.00    +0.000 A 
ATOM     26  C   UNL     1       6.355   6.263  17.818  0.00  0.00    +0.000 A 
ENDBRANCH  20  21
ENDBRANCH   1  20
TORSDOF 6
ENDMDL
MODEL 8
REMARK VINA RESULT:      -8.3      1.568      4.577
REMARK  Name = 
REMARK  7 active torsions:
REMARK  status: ('A' for Active; 'I' for Inactive)
REMARK    1  A    between atoms: C_1  and  O_2
REMARK    2  A    between atoms: O_2  and  C_3
REMARK    3  A    between atoms: C_6  and  C_7
REMARK    4  A    between atoms: C_7  and  C_8
REMARK    5  A    between atoms: C_7  and  N_15
REMARK    6  A    between atoms: C_8  and  C_9
REMARK    7  A    between atoms: N_15  and  C_16
REMARK                            x       y       z     vdW  Elec       q    Type
REMARK                         _______ _______ _______ _____ _____    ______ ____
ROOT
ATOM      1  C   UNL     1       2.958   6.667  18.480  0.00  0.00    +0.000 C 
ENDROOT
BRANCH   1   5
ATOM      2  C   UNL     1       0.881  10.305  19.619  0.00  0.00    +0.000 A 
ATOM      3  C   UNL     1       1.344  10.114  18.319  0.00  0.00    +0.000 A 
ATOM      4  C   UNL     1       1.936   8.907  17.943  0.00  0.00    +0.000 A 
ATOM      5  C   UNL     1       2.102   7.869  18.874  0.00  0.00    +0.000 A 
ATOM      6  C   UNL     1       1.622   8.065  20.178  0.00  0.00    +0.000 A 
ATOM      7  C   UNL     1       1.005   9.270  20.545  0.00  0.00    +0.000 A 
BRANCH   2   9
ATOM      8  C   UNL     1       1.251  12.645  19.521  0.00  0.00    +0.000 C 
ATOM      9  O   UNL     1       0.408  11.560  19.881  0.00  0.00    +0.000 OA
ENDBRANCH   2   9
ENDBRANCH   1   5
BRANCH   1  10
ATOM     10  N   UNL     1       3.537   5.902  19.595  0.00  0.00    +0.000 NA
ATOM     11  H   UNL     1       3.594   6.482  20.429  0.00  0.00    +0.000 HD
BRANCH  10  12
ATOM     12  C   UNL     1       2.949   4.594  19.911  0.00  0.00    +0.000 C 
ATOM     13  C   UNL     1       3.878   3.448  19.383  0.00  0.00    +0.000 C 
ATOM     14  N   UNL     1       3.139   2.390  18.648  0.00  0.00    +0.000 NA
ATOM     15  C   UNL     1       2.063   1.854  19.505  0.00  0.00    +0.000 C 
ATOM     16  C   UNL     1       1.094   2.954  19.964  0.00  0.00    +0.000 C 
ATOM     17  C   UNL     1       1.525   4.311  19.369  0.00  0.00    +0.000 C 
ATOM     18  C   UNL     1       1.547   4.143  17.840  0.00  0.00    +0.000 C 
ATOM     19  C   UNL     1       2.527   3.019  17.456  0.00  0.00    +0.000 C 
ENDBRANCH  10  12
ENDBRANCH   1  10
BRANCH   1  20
ATOM     20  C   UNL     1       4.066   7.227  17.528  0.00  0.00    +0.000 C 
BRANCH  20  21
ATOM     21  C   UNL     1       5.188   6.273  17.201  0.00  0.00    +0.000 A 
ATOM     22  C   UNL     1       5.015   5.263  16.247  0.00  0.00    +0.000 A 
ATOM     23  C   UNL     1       6.031   4.337  16.011  0.00  0.00    +0.000 A 
ATOM     24  C   UNL     1       7.234   4.425  16.712  0.00  0.00    +0.000 A 
ATOM     25  C   UNL     1       7.435   5.460  17.623  0.00  0.00    +0.000 A 
ATOM     26  C   UNL     1       6.420   6.387  17.860  0.00  0.00    +0.000 A 
ENDBRANCH  20  21
ENDBRANCH   1  20
TORSDOF 6
ENDMDL
MODEL 9
REMARK VINA RESULT:      -8.2      3.450      7.092
REMARK  Name = 
REMARK  7 active torsions:
REMARK  status: ('A' for Active; 'I' for Inactive)
REMARK    1  A    between atoms: C_1  and  O_2
REMARK    2  A    between atoms: O_2  and  C_3
REMARK    3  A    between atoms: C_6  and  C_7
REMARK    4  A    between atoms: C_7  and  C_8
REMARK    5  A    between atoms: C_7  and  N_15
REMARK    6  A    between atoms: C_8  and  C_9
REMARK    7  A    between atoms: N_15  and  C_16
REMARK                            x       y       z     vdW  Elec       q    Type
REMARK                         _______ _______ _______ _____ _____    ______ ____
ROOT
ATOM      1  C   UNL     1       4.855   4.401  16.329  0.00  0.00    +0.000 C 
ENDROOT
BRANCH   1   5
ATOM      2  C   UNL     1       7.672   7.093  18.245  0.00  0.00    +0.000 A 
ATOM      3  C   UNL     1       6.651   7.576  17.430  0.00  0.00    +0.000 A 
ATOM      4  C   UNL     1       5.701   6.709  16.886  0.00  0.00    +0.000 A 
ATOM      5  C   UNL     1       5.771   5.327  17.127  0.00  0.00    +0.000 A 
ATOM      6  C   UNL     1       6.795   4.850  17.960  0.00  0.00    +0.000 A 
ATOM      7  C   UNL     1       7.732   5.728  18.523  0.00  0.00    +0.000 A 
BRANCH   2   9
ATOM      8  C   UNL     1       8.404   9.346  18.132  0.00  0.00    +0.000 C 
ATOM      9  O   UNL     1       8.587   8.030  18.635  0.00  0.00    +0.000 OA
ENDBRANCH   2   9
ENDBRANCH   1   5
BRANCH   1  10
ATOM     10  N   UNL     1       3.837   3.682  17.108  0.00  0.00    +0.000 NA
ATOM     11  H   UNL     1       4.076   2.695  17.176  0.00  0.00    +0.000 HD
BRANCH  10  12
ATOM     12  C   UNL     1       3.472   4.219  18.425  0.00  0.00    +0.000 C 
ATOM     13  C   UNL     1       3.847   3.191  19.546  0.00  0.00    +0.000 C 
ATOM     14  N   UNL     1       2.758   2.982  20.535  0.00  0.00    +0.000 NA
ATOM     15  C   UNL     1       2.361   4.281  21.112  0.00  0.00    +0.000 C 
ATOM     16  C   UNL     1       1.910   5.276  20.031  0.00  0.00    +0.000 C 
ATOM     17  C   UNL     1       1.987   4.607  18.642  0.00  0.00    +0.000 C 
ATOM     18  C   UNL     1       1.099   3.352  18.699  0.00  0.00    +0.000 C 
ATOM     19  C   UNL     1       1.601   2.411  19.809  0.00  0.00    +0.000 C 
ENDBRANCH  10  12
ENDBRANCH   1  10
BRANCH   1  20
ATOM     20  C   UNL     1       5.805   3.415  15.570  0.00  0.00    +0.000 C 
BRANCH  20  21
ATOM     21  C   UNL     1       6.326   3.905  14.241  0.00  0.00    +0.000 A 
ATOM     22  C   UNL     1       5.876   3.337  13.042  0.00  0.00    +0.000 A 
ATOM     23  C   UNL     1       6.422   3.741  11.824  0.00  0.00    +0.000 A 
ATOM     24  C   UNL     1       7.408   4.727  11.794  0.00  0.00    +0.000 A 
ATOM     25  C   UNL     1       7.823   5.335  12.976  0.00  0.00    +0.000 A 
ATOM     26  C   UNL     1       7.277   4.933  14.195  0.00  0.00    +0.000 A 
ENDBRANCH  20  21
ENDBRANCH   1  20
TORSDOF 6
ENDMDL
