MODEL 1
REMARK VINA RESULT:      -6.2      0.000      0.000
REMARK  Name = 
REMARK  7 active torsions:
REMARK  status: ('A' for Active; 'I' for Inactive)
REMARK    1  A    between atoms: C_1  and  C_2
REMARK    2  A    between atoms: C_2  and  N_3
REMARK    3  A    between atoms: N_6  and  C_7
REMARK    4  A    between atoms: C_7  and  C_8
REMARK    5  A    between atoms: C_8  and  C_9
REMARK    6  A    between atoms: C_9  and  O_10
REMARK    7  A    between atoms: O_10  and  C_11
REMARK                            x       y       z     vdW  Elec       q    Type
REMARK                         _______ _______ _______ _____ _____    ______ ____
ROOT
ATOM      1  C   UNL     1       8.320   8.103  18.394  0.00  0.00    +0.000 C 
ENDROOT
BRANCH   1   2
ATOM      2  C   UNL     1       7.399   7.460  17.354  0.00  0.00    +0.000 C 
BRANCH   2   6
ATOM      3  N   UNL     1       4.434   5.189  16.905  0.00  0.00    +0.000 NA
ATOM      4  C   UNL     1       4.877   5.803  18.175  0.00  0.00    +0.000 C 
ATOM      5  C   UNL     1       6.363   5.547  18.511  0.00  0.00    +0.000 C 
ATOM      6  N   UNL     1       7.305   5.992  17.458  0.00  0.00    +0.000 NA
ATOM      7  C   UNL     1       6.875   5.402  16.169  0.00  0.00    +0.000 C 
ATOM      8  C   UNL     1       5.372   5.599  15.832  0.00  0.00    +0.000 C 
BRANCH   3  10
ATOM      9  C   UNL     1       3.352   3.211  18.014  0.00  0.00    +0.000 C 
ATOM     10  C   UNL     1       4.340   3.722  16.969  0.00  0.00    +0.000 C 
ENDBRANCH   3  10
ENDBRANCH   2   6
ENDBRANCH   1   2
BRANCH   1  11
ATOM     11  C   UNL     1       8.464   9.604  18.178  0.00  0.00    +0.000 C 
BRANCH  11  12
ATOM     12  O   UNL     1       9.252  10.134  19.243  0.00  0.00    +0.000 OA
BRANCH  12  13
ATOM     13  C   UNL     1       9.986  11.258  18.974  0.00  0.00    +0.000 A 
ATOM     14  C   UNL     1      10.683  11.480  17.780  0.00  0.00    +0.000 A 
ATOM     15  C   UNL     1      11.384  12.672  17.579  0.00  0.00    +0.000 A 
ATOM     16  C   UNL     1      11.397  13.647  18.570  0.00  0.00    +0.000 A 
ATOM     17 CL   UNL     1      12.246  15.118  18.309  0.00  0.00    +0.000 Cl
ATOM     18  C   UNL     1      10.726  13.439  19.773  0.00  0.00    +0.000 A 
ATOM     19  C   UNL     1      10.025  12.247  19.972  0.00  0.00    +0.000 A 
ATOM     20 BR   UNL     1       9.131  12.012  21.634  0.00  0.00    +0.000 Br
ENDBRANCH  12  13
ENDBRANCH  11  12
ENDBRANCH   1  11
TORSDOF 6
ENDMDL
MODEL 2
REMARK VINA RESULT:      -6.0      7.172      9.583
REMARK  Name = 
REMARK  7 active torsions:
REMARK  status: ('A' for Active; 'I' for Inactive)
REMARK    1  A    between atoms: C_1  and  C_2
REMARK    2  A    between atoms: C_2  and  N_3
REMARK    3  A    between atoms: N_6  and  C_7
REMARK    4  A    between atoms: C_7  and  C_8
REMARK    5  A    between atoms: C_8  and  C_9
REMARK    6  A    between atoms: C_9  and  O_10
REMARK    7  A    between atoms: O_10  and  C_11
REMARK                            x       y       z     vdW  Elec       q    Type
REMARK                         _______ _______ _______ _____ _____    ______ ____
ROOT
ATOM      1  C   UNL     1       1.705   9.353  18.870  0.00  0.00    +0.000 C 
ENDROOT
BRANCH   1   2
ATOM      2  C   UNL     1       1.266   8.912  20.270  0.00  0.00    +0.000 C 
BRANCH   2   6
ATOM      3  N   UNL     1      -0.311  11.062  22.922  0.00  0.00    +0.000 NA
ATOM      4  C   UNL     1       0.030   9.629  23.051  0.00  0.00    +0.000 C 
ATOM      5  C   UNL     1      -0.550   8.743  21.926  0.00  0.00    +0.000 C 
ATOM      6  N   UNL     1      -0.156   9.165  20.562  0.00  0.00    +0.000 NA
ATOM      7  C   UNL     1      -0.473  10.605  20.410  0.00  0.00    +0.000 C 
ATOM      8  C   UNL     1       0.052  11.511  21.556  0.00  0.00    +0.000 C 
BRANCH   3  10
ATOM      9  C   UNL     1      -2.084  12.832  23.108  0.00  0.00    +0.000 C 
ATOM     10  C   UNL     1      -1.726  11.350  23.196  0.00  0.00    +0.000 C 
ENDBRANCH   3  10
ENDBRANCH   2   6
ENDBRANCH   1   2
BRANCH   1  11
ATOM     11  C   UNL     1       1.892   8.168  17.931  0.00  0.00    +0.000 C 
BRANCH  11  12
ATOM     12  O   UNL     1       2.729   7.213  18.581  0.00  0.00    +0.000 OA
BRANCH  12  13
ATOM     13  C   UNL     1       3.533   6.444  17.782  0.00  0.00    +0.000 A 
ATOM     14  C   UNL     1       4.588   6.944  17.009  0.00  0.00    +0.000 A 
ATOM     15  C   UNL     1       5.377   6.081  16.243  0.00  0.00    +0.000 A 
ATOM     16  C   UNL     1       5.114   4.716  16.242  0.00  0.00    +0.000 A 
ATOM     17 CL   UNL     1       6.100   3.658  15.311  0.00  0.00    +0.000 Cl
ATOM     18  C   UNL     1       4.058   4.200  16.989  0.00  0.00    +0.000 A 
ATOM     19  C   UNL     1       3.271   5.064  17.754  0.00  0.00    +0.000 A 
ATOM     20 BR   UNL     1       1.839   4.308  18.751  0.00  0.00    +0.000 Br
ENDBRANCH  12  13
ENDBRANCH  11  12
ENDBRANCH   1  11
TORSDOF 6
ENDMDL
MODEL 3
REMARK VINA RESULT:      -6.0      1.783      2.076
REMARK  Name = 
REMARK  7 active torsions:
REMARK  status: ('A' for Active; 'I' for Inactive)
REMARK    1  A    between atoms: C_1  and  C_2
REMARK    2  A    between atoms: C_2  and  N_3
REMARK    3  A    between atoms: N_6  and  C_7
REMARK    4  A    between atoms: C_7  and  C_8
REMARK    5  A    between atoms: C_8  and  C_9
REMARK    6  A    between atoms: C_9  and  O_10
REMARK    7  A    between atoms: O_10  and  C_11
REMARK                            x       y       z     vdW  Elec       q    Type
REMARK                         _______ _______ _______ _____ _____    ______ ____
ROOT
ATOM      1  C   UNL     1       7.892   9.077  17.569  0.00  0.00    +0.000 C 
ENDROOT
BRANCH   1   2
ATOM      2  C   UNL     1       7.690   7.570  17.757  0.00  0.00    +0.000 C 
BRANCH   2   6
ATOM      3  N   UNL     1       5.662   4.408  17.938  0.00  0.00    +0.000 NA
ATOM      4  C   UNL     1       7.053   4.524  17.451  0.00  0.00    +0.000 C 
ATOM      5  C   UNL     1       7.245   5.594  16.354  0.00  0.00    +0.000 C 
ATOM      6  N   UNL     1       6.807   6.951  16.751  0.00  0.00    +0.000 NA
ATOM      7  C   UNL     1       5.418   6.862  17.259  0.00  0.00    +0.000 C 
ATOM      8  C   UNL     1       5.184   5.757  18.325  0.00  0.00    +0.000 C 
BRANCH   3  10
ATOM      9  C   UNL     1       3.560   3.079  17.580  0.00  0.00    +0.000 C 
ATOM     10  C   UNL     1       4.749   3.805  16.955  0.00  0.00    +0.000 C 
ENDBRANCH   3  10
ENDBRANCH   2   6
ENDBRANCH   1   2
BRANCH   1  11
ATOM     11  C   UNL     1       8.798   9.668  18.641  0.00  0.00    +0.000 C 
BRANCH  11  12
ATOM     12  O   UNL     1       9.737  10.533  18.004  0.00  0.00    +0.000 OA
BRANCH  12  13
ATOM     13  C   UNL     1       9.540  11.880  18.150  0.00  0.00    +0.000 A 
ATOM     14  C   UNL     1       8.412  12.569  17.689  0.00  0.00    +0.000 A 
ATOM     15  C   UNL     1       8.281  13.943  17.908  0.00  0.00    +0.000 A 
ATOM     16  C   UNL     1       9.277  14.637  18.585  0.00  0.00    +0.000 A 
ATOM     17 CL   UNL     1       9.101  16.324  18.867  0.00  0.00    +0.000 Cl
ATOM     18  C   UNL     1      10.416  13.975  19.036  0.00  0.00    +0.000 A 
ATOM     19  C   UNL     1      10.545  12.601  18.817  0.00  0.00    +0.000 A 
ATOM     20 BR   UNL     1      12.123  11.748  19.449  0.00  0.00    +0.000 Br
ENDBRANCH  12  13
ENDBRANCH  11  12
ENDBRANCH   1  11
TORSDOF 6
ENDMDL
MODEL 4
REMARK VINA RESULT:      -6.0      1.846      2.449
REMARK  Name = 
REMARK  7 active torsions:
REMARK  status: ('A' for Active; 'I' for Inactive)
REMARK    1  A    between atoms: C_1  and  C_2
REMARK    2  A    between atoms: C_2  and  N_3
REMARK    3  A    between atoms: N_6  and  C_7
REMARK    4  A    between atoms: C_7  and  C_8
REMARK    5  A    between atoms: C_8  and  C_9
REMARK    6  A    between atoms: C_9  and  O_10
REMARK    7  A    between atoms: O_10  and  C_11
REMARK                            x       y       z     vdW  Elec       q    Type
REMARK                         _______ _______ _______ _____ _____    ______ ____
ROOT
ATOM      1  C   UNL     1       7.980   8.943  17.796  0.00  0.00    +0.000 C 
ENDROOT
BRANCH   1   2
ATOM      2  C   UNL     1       7.819   7.421  17.743  0.00  0.00    +0.000 C 
BRANCH   2   6
ATOM      3  N   UNL     1       5.680   4.327  17.721  0.00  0.00    +0.000 NA
ATOM      4  C   UNL     1       7.035   4.454  17.143  0.00  0.00    +0.000 C 
ATOM      5  C   UNL     1       7.190   5.638  16.163  0.00  0.00    +0.000 C 
ATOM      6  N   UNL     1       6.839   6.953  16.746  0.00  0.00    +0.000 NA
ATOM      7  C   UNL     1       5.489   6.851  17.347  0.00  0.00    +0.000 C 
ATOM      8  C   UNL     1       5.289   5.638  18.295  0.00  0.00    +0.000 C 
BRANCH   3  10
ATOM      9  C   UNL     1       3.244   3.893  17.286  0.00  0.00    +0.000 C 
ATOM     10  C   UNL     1       4.673   3.874  16.749  0.00  0.00    +0.000 C 
ENDBRANCH   3  10
ENDBRANCH   2   6
ENDBRANCH   1   2
BRANCH   1  11
ATOM     11  C   UNL     1       8.904   9.380  18.926  0.00  0.00    +0.000 C 
BRANCH  11  12
ATOM     12  O   UNL     1       9.580  10.567  18.515  0.00  0.00    +0.000 OA
BRANCH  12  13
ATOM     13  C   UNL     1       9.668  11.581  19.431  0.00  0.00    +0.000 A 
ATOM     14  C   UNL     1       9.280  11.471  20.772  0.00  0.00    +0.000 A 
ATOM     15  C   UNL     1       9.433  12.551  21.646  0.00  0.00    +0.000 A 
ATOM     16  C   UNL     1       9.971  13.747  21.185  0.00  0.00    +0.000 A 
ATOM     17 CL   UNL     1      10.173  15.065  22.270  0.00  0.00    +0.000 Cl
ATOM     18  C   UNL     1      10.346  13.884  19.851  0.00  0.00    +0.000 A 
ATOM     19  C   UNL     1      10.193  12.804  18.979  0.00  0.00    +0.000 A 
ATOM     20 BR   UNL     1      10.716  13.047  17.167  0.00  0.00    +0.000 Br
ENDBRANCH  12  13
ENDBRANCH  11  12
ENDBRANCH   1  11
TORSDOF 6
ENDMDL
MODEL 5
REMARK VINA RESULT:      -5.9      6.960      9.364
REMARK  Name = 
REMARK  7 active torsions:
REMARK  status: ('A' for Active; 'I' for Inactive)
REMARK    1  A    between atoms: C_1  and  C_2
REMARK    2  A    between atoms: C_2  and  N_3
REMARK    3  A    between atoms: N_6  and  C_7
REMARK    4  A    between atoms: C_7  and  C_8
REMARK    5  A    between atoms: C_8  and  C_9
REMARK    6  A    between atoms: C_9  and  O_10
REMARK    7  A    between atoms: O_10  and  C_11
REMARK                            x       y       z     vdW  Elec       q    Type
REMARK                         _______ _______ _______ _____ _____    ______ ____
ROOT
ATOM      1  C   UNL     1       1.835   6.787  20.362  0.00  0.00    +0.000 C 
ENDROOT
BRANCH   1   2
ATOM      2  C   UNL     1       1.567   8.148  21.012  0.00  0.00    +0.000 C 
BRANCH   2   6
ATOM      3  N   UNL     1      -0.075  11.286  22.279  0.00  0.00    +0.000 NA
ATOM      4  C   UNL     1      -0.126   9.955  22.921  0.00  0.00    +0.000 C 
ATOM      5  C   UNL     1      -0.596   8.823  21.981  0.00  0.00    +0.000 C 
ATOM      6  N   UNL     1       0.218   8.684  20.751  0.00  0.00    +0.000 NA
ATOM      7  C   UNL     1       0.300  10.009  20.094  0.00  0.00    +0.000 C 
ATOM      8  C   UNL     1       0.717  11.175  21.030  0.00  0.00    +0.000 C 
BRANCH   3  10
ATOM      9  C   UNL     1      -2.318  11.923  23.213  0.00  0.00    +0.000 C 
ATOM     10  C   UNL     1      -1.404  11.847  21.993  0.00  0.00    +0.000 C 
ENDBRANCH   3  10
ENDBRANCH   2   6
ENDBRANCH   1   2
BRANCH   1  11
ATOM     11  C   UNL     1       2.565   6.924  19.033  0.00  0.00    +0.000 C 
BRANCH  11  12
ATOM     12  O   UNL     1       3.747   6.127  19.089  0.00  0.00    +0.000 OA
BRANCH  12  13
ATOM     13  C   UNL     1       4.283   5.723  17.895  0.00  0.00    +0.000 A 
ATOM     14  C   UNL     1       4.693   6.593  16.878  0.00  0.00    +0.000 A 
ATOM     15  C   UNL     1       5.257   6.093  15.701  0.00  0.00    +0.000 A 
ATOM     16  C   UNL     1       5.409   4.721  15.532  0.00  0.00    +0.000 A 
ATOM     17 CL   UNL     1       6.119   4.114  14.088  0.00  0.00    +0.000 Cl
ATOM     18  C   UNL     1       4.990   3.837  16.522  0.00  0.00    +0.000 A 
ATOM     19  C   UNL     1       4.427   4.339  17.699  0.00  0.00    +0.000 A 
ATOM     20 BR   UNL     1       3.867   3.088  19.016  0.00  0.00    +0.000 Br
ENDBRANCH  12  13
ENDBRANCH  11  12
ENDBRANCH   1  11
TORSDOF 6
ENDMDL
MODEL 6
REMARK VINA RESULT:      -5.9      6.447      7.856
REMARK  Name = 
REMARK  7 active torsions:
REMARK  status: ('A' for Active; 'I' for Inactive)
REMARK    1  A    between atoms: C_1  and  C_2
REMARK    2  A    between atoms: C_2  and  N_3
REMARK    3  A    between atoms: N_6  and  C_7
REMARK    4  A    between atoms: C_7  and  C_8
REMARK    5  A    between atoms: C_8  and  C_9
REMARK    6  A    between atoms: C_9  and  O_10
REMARK    7  A    between atoms: O_10  and  C_11
REMARK                            x       y       z     vdW  Elec       q    Type
REMARK                         _______ _______ _______ _____ _____    ______ ____
ROOT
ATOM      1  C   UNL     1       2.244   4.254  20.422  0.00  0.00    +0.000 C 
ENDROOT
BRANCH   1   2
ATOM      2  C   UNL     1       2.525   4.295  18.917  0.00  0.00    +0.000 C 
BRANCH   2   6
ATOM      3  N   UNL     1       5.797   5.482  17.492  0.00  0.00    +0.000 NA
ATOM      4  C   UNL     1       4.599   5.096  16.718  0.00  0.00    +0.000 C 
ATOM      5  C   UNL     1       4.046   3.698  17.073  0.00  0.00    +0.000 C 
ATOM      6  N   UNL     1       3.714   3.526  18.506  0.00  0.00    +0.000 NA
ATOM      7  C   UNL     1       4.896   3.922  19.308  0.00  0.00    +0.000 C 
ATOM      8  C   UNL     1       5.504   5.301  18.934  0.00  0.00    +0.000 C 
BRANCH   3  10
ATOM      9  C   UNL     1       7.231   4.638  15.610  0.00  0.00    +0.000 C 
ATOM     10  C   UNL     1       7.002   4.726  17.116  0.00  0.00    +0.000 C 
ENDBRANCH   3  10
ENDBRANCH   2   6
ENDBRANCH   1   2
BRANCH   1  11
ATOM     11  C   UNL     1       1.577   5.533  20.912  0.00  0.00    +0.000 C 
BRANCH  11  12
ATOM     12  O   UNL     1       2.246   6.642  20.314  0.00  0.00    +0.000 OA
BRANCH  12  13
ATOM     13  C   UNL     1       1.625   7.860  20.393  0.00  0.00    +0.000 A 
ATOM     14  C   UNL     1       0.967   8.339  21.533  0.00  0.00    +0.000 A 
ATOM     15  C   UNL     1       0.385   9.610  21.534  0.00  0.00    +0.000 A 
ATOM     16  C   UNL     1       0.451  10.406  20.396  0.00  0.00    +0.000 A 
ATOM     17 CL   UNL     1      -0.253  11.974  20.410  0.00  0.00    +0.000 Cl
ATOM     18  C   UNL     1       1.084   9.941  19.246  0.00  0.00    +0.000 A 
ATOM     19  C   UNL     1       1.667   8.671  19.247  0.00  0.00    +0.000 A 
ATOM     20 BR   UNL     1       2.513   8.085  17.648  0.00  0.00    +0.000 Br
ENDBRANCH  12  13
ENDBRANCH  11  12
ENDBRANCH   1  11
TORSDOF 6
ENDMDL
MODEL 7
REMARK VINA RESULT:      -5.9      1.772      2.264
REMARK  Name = 
REMARK  7 active torsions:
REMARK  status: ('A' for Active; 'I' for Inactive)
REMARK    1  A    between atoms: C_1  and  C_2
REMARK    2  A    between atoms: C_2  and  N_3
REMARK    3  A    between atoms: N_6  and  C_7
REMARK    4  A    between atoms: C_7  and  C_8
REMARK    5  A    between atoms: C_8  and  C_9
REMARK    6  A    between atoms: C_9  and  O_10
REMARK    7  A    between atoms: O_10  and  C_11
REMARK                            x       y       z     vdW  Elec       q    Type
REMARK                         _______ _______ _______ _____ _____    ______ ____
ROOT
ATOM      1  C   UNL     1       8.348   8.304  18.365  0.00  0.00    +0.000 C 
ENDROOT
BRANCH   1   2
ATOM      2  C   UNL     1       7.218   7.858  17.433  0.00  0.00    +0.000 C 
BRANCH   2   6
ATOM      3  N   UNL     1       4.831   5.165  18.528  0.00  0.00    +0.000 NA
ATOM      4  C   UNL     1       6.060   5.580  19.236  0.00  0.00    +0.000 C 
ATOM      5  C   UNL     1       7.327   5.574  18.352  0.00  0.00    +0.000 C 
ATOM      6  N   UNL     1       7.218   6.414  17.137  0.00  0.00    +0.000 NA
ATOM      7  C   UNL     1       5.984   6.028  16.413  0.00  0.00    +0.000 C 
ATOM      8  C   UNL     1       4.705   5.974  17.292  0.00  0.00    +0.000 C 
BRANCH   3  10
ATOM      9  C   UNL     1       3.574   3.301  17.407  0.00  0.00    +0.000 C 
ATOM     10  C   UNL     1       4.802   3.730  18.205  0.00  0.00    +0.000 C 
ENDBRANCH   3  10
ENDBRANCH   2   6
ENDBRANCH   1   2
BRANCH   1  11
ATOM     11  C   UNL     1       8.598   9.805  18.281  0.00  0.00    +0.000 C 
BRANCH  11  12
ATOM     12  O   UNL     1       9.798  10.098  18.994  0.00  0.00    +0.000 OA
BRANCH  12  13
ATOM     13  C   UNL     1       9.788  11.204  19.801  0.00  0.00    +0.000 A 
ATOM     14  C   UNL     1       9.173  11.261  21.057  0.00  0.00    +0.000 A 
ATOM     15  C   UNL     1       9.237  12.426  21.827  0.00  0.00    +0.000 A 
ATOM     16  C   UNL     1       9.913  13.541  21.344  0.00  0.00    +0.000 A 
ATOM     17 CL   UNL     1      10.003  14.965  22.304  0.00  0.00    +0.000 Cl
ATOM     18  C   UNL     1      10.516  13.513  20.089  0.00  0.00    +0.000 A 
ATOM     19  C   UNL     1      10.451  12.347  19.322  0.00  0.00    +0.000 A 
ATOM     20 BR   UNL     1      11.287  12.365  17.614  0.00  0.00    +0.000 Br
ENDBRANCH  12  13
ENDBRANCH  11  12
ENDBRANCH   1  11
TORSDOF 6
ENDMDL
MODEL 8
REMARK VINA RESULT:      -5.8      4.820      9.174
REMARK  Name = 
REMARK  7 active torsions:
REMARK  status: ('A' for Active; 'I' for Inactive)
REMARK    1  A    between atoms: C_1  and  C_2
REMARK    2  A    between atoms: C_2  and  N_3
REMARK    3  A    between atoms: N_6  and  C_7
REMARK    4  A    between atoms: C_7  and  C_8
REMARK    5  A    between atoms: C_8  and  C_9
REMARK    6  A    between atoms: C_9  and  O_10
REMARK    7  A    between atoms: O_10  and  C_11
REMARK                            x       y       z     vdW  Elec       q    Type
REMARK                         _______ _______ _______ _____ _____    ______ ____
ROOT
ATOM      1  C   UNL     1       7.962   8.628  17.812  0.00  0.00    +0.000 C 
ENDROOT
BRANCH   1   2
ATOM      2  C   UNL     1       9.072   9.427  18.500  0.00  0.00    +0.000 C 
BRANCH   2   6
ATOM      3  N   UNL     1      11.126  12.526  19.076  0.00  0.00    +0.000 NA
ATOM      4  C   UNL     1      10.813  11.488  20.082  0.00  0.00    +0.000 C 
ATOM      5  C   UNL     1       9.306  11.179  20.217  0.00  0.00    +0.000 C 
ATOM      6  N   UNL     1       8.658  10.769  18.950  0.00  0.00    +0.000 NA
ATOM      7  C   UNL     1       8.968  11.786  17.918  0.00  0.00    +0.000 C 
ATOM      8  C   UNL     1      10.472  12.154  17.798  0.00  0.00    +0.000 C 
BRANCH   3  10
ATOM      9  C   UNL     1      11.763  14.952  19.213  0.00  0.00    +0.000 C 
ATOM     10  C   UNL     1      10.715  13.877  19.487  0.00  0.00    +0.000 C 
ENDBRANCH   3  10
ENDBRANCH   2   6
ENDBRANCH   1   2
BRANCH   1  11
ATOM     11  C   UNL     1       7.945   7.172  18.260  0.00  0.00    +0.000 C 
BRANCH  11  12
ATOM     12  O   UNL     1       7.541   6.369  17.153  0.00  0.00    +0.000 OA
BRANCH  12  13
ATOM     13  C   UNL     1       6.371   5.670  17.286  0.00  0.00    +0.000 A 
ATOM     14  C   UNL     1       5.582   5.662  18.442  0.00  0.00    +0.000 A 
ATOM     15  C   UNL     1       4.386   4.941  18.480  0.00  0.00    +0.000 A 
ATOM     16  C   UNL     1       3.973   4.220  17.365  0.00  0.00    +0.000 A 
ATOM     17 CL   UNL     1       2.492   3.349  17.412  0.00  0.00    +0.000 Cl
ATOM     18  C   UNL     1       4.752   4.199  16.211  0.00  0.00    +0.000 A 
ATOM     19  C   UNL     1       5.948   4.921  16.175  0.00  0.00    +0.000 A 
ATOM     20 BR   UNL     1       6.975   4.853  14.576  0.00  0.00    +0.000 Br
ENDBRANCH  12  13
ENDBRANCH  11  12
ENDBRANCH   1  11
TORSDOF 6
ENDMDL
MODEL 9
REMARK VINA RESULT:      -5.8      7.632      9.303
REMARK  Name = 
REMARK  7 active torsions:
REMARK  status: ('A' for Active; 'I' for Inactive)
REMARK    1  A    between atoms: C_1  and  C_2
REMARK    2  A    between atoms: C_2  and  N_3
REMARK    3  A    between atoms: N_6  and  C_7
REMARK    4  A    between atoms: C_7  and  C_8
REMARK    5  A    between atoms: C_8  and  C_9
REMARK    6  A    between atoms: C_9  and  O_10
REMARK    7  A    between atoms: O_10  and  C_11
REMARK                            x       y       z     vdW  Elec       q    Type
REMARK                         _______ _______ _______ _____ _____    ______ ____
ROOT
ATOM      1  C   UNL     1       2.033   8.446  18.800  0.00  0.00    +0.000 C 
ENDROOT
BRANCH   1   2
ATOM      2  C   UNL     1       2.614   7.167  18.189  0.00  0.00    +0.000 C 
BRANCH   2   6
ATOM      3  N   UNL     1       4.420   3.871  18.337  0.00  0.00    +0.000 NA
ATOM      4  C   UNL     1       3.349   4.236  17.386  0.00  0.00    +0.000 C 
ATOM      5  C   UNL     1       2.065   4.768  18.061  0.00  0.00    +0.000 C 
ATOM      6  N   UNL     1       2.288   5.940  18.939  0.00  0.00    +0.000 NA
ATOM      7  C   UNL     1       3.370   5.607  19.895  0.00  0.00    +0.000 C 
ATOM      8  C   UNL     1       4.652   5.019  19.247  0.00  0.00    +0.000 C 
BRANCH   3  10
ATOM      9  C   UNL     1       3.574   1.506  18.272  0.00  0.00    +0.000 C 
ATOM     10  C   UNL     1       4.123   2.657  19.112  0.00  0.00    +0.000 C 
ENDBRANCH   3  10
ENDBRANCH   2   6
ENDBRANCH   1   2
BRANCH   1  11
ATOM     11  C   UNL     1       1.247   9.259  17.780  0.00  0.00    +0.000 C 
BRANCH  11  12
ATOM     12  O   UNL     1       0.603  10.331  18.466  0.00  0.00    +0.000 OA
BRANCH  12  13
ATOM     13  C   UNL     1      -0.734  10.508  18.228  0.00  0.00    +0.000 A 
ATOM     14  C   UNL     1      -1.470   9.787  17.281  0.00  0.00    +0.000 A 
ATOM     15  C   UNL     1      -2.841  10.013  17.124  0.00  0.00    +0.000 A 
ATOM     16  C   UNL     1      -3.482  10.965  17.910  0.00  0.00    +0.000 A 
ATOM     17 CL   UNL     1      -5.171  11.226  17.724  0.00  0.00    +0.000 Cl
ATOM     18  C   UNL     1      -2.764  11.707  18.845  0.00  0.00    +0.000 A 
ATOM     19  C   UNL     1      -1.395  11.478  19.000  0.00  0.00    +0.000 A 
ATOM     20 BR   UNL     1      -0.464  12.524  20.287  0.00  0.00    +0.000 Br
ENDBRANCH  12  13
ENDBRANCH  11  12
ENDBRANCH   1  11
TORSDOF 6
ENDMDL
