MODEL 1
REMARK VINA RESULT:      -8.1      0.000      0.000
REMARK  Name = 
REMARK  7 active torsions:
REMARK  status: ('A' for Active; 'I' for Inactive)
REMARK    1  A    between atoms: C_1  and  N_2
REMARK    2  A    between atoms: N_2  and  C_3
REMARK    3  A    between atoms: N_2  and  C_4
REMARK    4  A    between atoms: C_7  and  C_8
REMARK    5  A    between atoms: N_10  and  C_11
REMARK    6  A    between atoms: C_14  and  C_15
REMARK    7  A    between atoms: C_15  and  N_16
REMARK                            x       y       z     vdW  Elec       q    Type
REMARK                         _______ _______ _______ _____ _____    ______ ____
ROOT
ATOM      1  C   UNL     1       7.218   7.869  17.527  0.00  0.00    +0.000 A 
ATOM      2  C   UNL     1       6.011   7.578  16.886  0.00  0.00    +0.000 A 
ATOM      3  C   UNL     1       5.428   6.300  16.983  0.00  0.00    +0.000 A 
ATOM      4  C   UNL     1       6.039   5.281  17.726  0.00  0.00    +0.000 A 
ATOM      5  C   UNL     1       7.257   5.577  18.356  0.00  0.00    +0.000 A 
ATOM      6  C   UNL     1       7.839   6.846  18.254  0.00  0.00    +0.000 A 
ENDROOT
BRANCH   1   9
ATOM      7  C   UNL     1       8.738   9.630  18.472  0.00  0.00    +0.000 C 
ATOM      8  O   UNL     1       9.093   9.055  19.496  0.00  0.00    +0.000 OA
ATOM      9  N   UNL     1       7.855   9.136  17.525  0.00  0.00    +0.000 N 
ATOM     10  H   UNL     1       7.716   9.695  16.698  0.00  0.00    +0.000 HD
BRANCH   7  14
ATOM     11  C   UNL     1      10.379  13.566  17.545  0.00  0.00    +0.000 A 
ATOM     12  C   UNL     1       9.005  13.280  17.509  0.00  0.00    +0.000 A 
ATOM     13  C   UNL     1       8.499  12.003  17.795  0.00  0.00    +0.000 A 
ATOM     14  C   UNL     1       9.354  10.959  18.162  0.00  0.00    +0.000 A 
ATOM     15  C   UNL     1      10.726  11.211  18.204  0.00  0.00    +0.000 A 
ATOM     16  C   UNL     1      11.221  12.495  17.900  0.00  0.00    +0.000 A 
BRANCH  11  18
ATOM     17  C   UNL     1      12.318  15.093  17.313  0.00  0.00    +0.000 C 
ATOM     18  N   UNL     1      10.879  14.841  17.271  0.00  0.00    +0.000 N 
ATOM     19  C   UNL     1      10.007  16.002  17.431  0.00  0.00    +0.000 C 
ENDBRANCH  11  18
ENDBRANCH   7  14
ENDBRANCH   1   9
BRANCH   4  20
ATOM     20  C   UNL     1       5.384   3.931  17.940  0.00  0.00    +0.000 C 
BRANCH  20  21
ATOM     21  N   UNL     1       4.637   3.694  19.174  0.00  0.00    +0.000 NA
ATOM     22  C   UNL     1       4.388   2.331  19.614  0.00  0.00    +0.000 C 
ATOM     23  C   UNL     1       3.134   1.708  19.035  0.00  0.00    +0.000 C 
ATOM     24  S   UNL     1       1.708   2.715  19.351  0.00  0.00    +0.000 S 
ATOM     25  O   UNL     1       0.697   2.369  18.366  0.00  0.00    +0.000 OA
ATOM     26  O   UNL     1       1.402   2.620  20.767  0.00  0.00    +0.000 OA
ATOM     27  C   UNL     1       2.234   4.377  19.014  0.00  0.00    +0.000 C 
ATOM     28  C   UNL     1       3.615   4.652  19.567  0.00  0.00    +0.000 C 
ENDBRANCH  20  21
ENDBRANCH   4  20
TORSDOF 5
ENDMDL
MODEL 2
REMARK VINA RESULT:      -8.0      7.458      9.636
REMARK  Name = 
REMARK  7 active torsions:
REMARK  status: ('A' for Active; 'I' for Inactive)
REMARK    1  A    between atoms: C_1  and  N_2
REMARK    2  A    between atoms: N_2  and  C_3
REMARK    3  A    between atoms: N_2  and  C_4
REMARK    4  A    between atoms: C_7  and  C_8
REMARK    5  A    between atoms: N_10  and  C_11
REMARK    6  A    between atoms: C_14  and  C_15
REMARK    7  A    between atoms: C_15  and  N_16
REMARK                            x       y       z     vdW  Elec       q    Type
REMARK                         _______ _______ _______ _____ _____    ______ ____
ROOT
ATOM      1  C   UNL     1       0.979   8.883  20.000  0.00  0.00    +0.000 A 
ATOM      2  C   UNL     1       1.475   8.997  18.698  0.00  0.00    +0.000 A 
ATOM      3  C   UNL     1       2.350   8.029  18.168  0.00  0.00    +0.000 A 
ATOM      4  C   UNL     1       2.752   6.923  18.929  0.00  0.00    +0.000 A 
ATOM      5  C   UNL     1       2.260   6.823  20.240  0.00  0.00    +0.000 A 
ATOM      6  C   UNL     1       1.394   7.789  20.768  0.00  0.00    +0.000 A 
ENDROOT
BRANCH   1   9
ATOM      7  C   UNL     1       0.332  11.038  21.114  0.00  0.00    +0.000 C 
ATOM      8  O   UNL     1       1.434  11.575  21.159  0.00  0.00    +0.000 OA
ATOM      9  N   UNL     1       0.060   9.780  20.601  0.00  0.00    +0.000 N 
ATOM     10  H   UNL     1      -0.908   9.502  20.567  0.00  0.00    +0.000 HD
BRANCH   7  14
ATOM     11  C   UNL     1      -3.127  13.222  22.634  0.00  0.00    +0.000 A 
ATOM     12  C   UNL     1      -2.570  12.114  23.292  0.00  0.00    +0.000 A 
ATOM     13  C   UNL     1      -1.467  11.416  22.778  0.00  0.00    +0.000 A 
ATOM     14  C   UNL     1      -0.853  11.821  21.589  0.00  0.00    +0.000 A 
ATOM     15  C   UNL     1      -1.386  12.916  20.909  0.00  0.00    +0.000 A 
ATOM     16  C   UNL     1      -2.503  13.600  21.430  0.00  0.00    +0.000 A 
BRANCH  11  18
ATOM     17  C   UNL     1      -4.058  15.301  23.611  0.00  0.00    +0.000 C 
ATOM     18  N   UNL     1      -4.218  13.922  23.154  0.00  0.00    +0.000 N 
ATOM     19  C   UNL     1      -5.352  13.180  23.698  0.00  0.00    +0.000 C 
ENDBRANCH  11  18
ENDBRANCH   7  14
ENDBRANCH   1   9
BRANCH   4  20
ATOM     20  C   UNL     1       3.603   5.810  18.353  0.00  0.00    +0.000 C 
BRANCH  20  21
ATOM     21  N   UNL     1       4.397   6.073  17.155  0.00  0.00    +0.000 NA
ATOM     22  C   UNL     1       4.571   5.027  16.161  0.00  0.00    +0.000 C 
ATOM     23  C   UNL     1       5.742   4.102  16.426  0.00  0.00    +0.000 C 
ATOM     24  S   UNL     1       7.253   5.012  16.614  0.00  0.00    +0.000 S 
ATOM     25  O   UNL     1       8.179   4.179  17.362  0.00  0.00    +0.000 OA
ATOM     26  O   UNL     1       7.630   5.523  15.308  0.00  0.00    +0.000 OA
ATOM     27  C   UNL     1       6.831   6.396  17.644  0.00  0.00    +0.000 C 
ATOM     28  C   UNL     1       5.507   7.010  17.245  0.00  0.00    +0.000 C 
ENDBRANCH  20  21
ENDBRANCH   4  20
TORSDOF 5
ENDMDL
MODEL 3
REMARK VINA RESULT:      -7.9      1.149      1.193
REMARK  Name = 
REMARK  7 active torsions:
REMARK  status: ('A' for Active; 'I' for Inactive)
REMARK    1  A    between atoms: C_1  and  N_2
REMARK    2  A    between atoms: N_2  and  C_3
REMARK    3  A    between atoms: N_2  and  C_4
REMARK    4  A    between atoms: C_7  and  C_8
REMARK    5  A    between atoms: N_10  and  C_11
REMARK    6  A    between atoms: C_14  and  C_15
REMARK    7  A    between atoms: C_15  and  N_16
REMARK                            x       y       z     vdW  Elec       q    Type
REMARK                         _______ _______ _______ _____ _____    ______ ____
ROOT
ATOM      1  C   UNL     1       7.829   8.201  17.824  0.00  0.00    +0.000 A 
ATOM      2  C   UNL     1       6.823   7.795  16.945  0.00  0.00    +0.000 A 
ATOM      3  C   UNL     1       6.240   6.517  17.049  0.00  0.00    +0.000 A 
ATOM      4  C   UNL     1       6.652   5.613  18.038  0.00  0.00    +0.000 A 
ATOM      5  C   UNL     1       7.672   6.023  18.909  0.00  0.00    +0.000 A 
ATOM      6  C   UNL     1       8.255   7.292  18.800  0.00  0.00    +0.000 A 
ENDROOT
BRANCH   1   9
ATOM      7  C   UNL     1       8.966  10.155  18.916  0.00  0.00    +0.000 C 
ATOM      8  O   UNL     1       8.960   9.762  20.079  0.00  0.00    +0.000 OA
ATOM      9  N   UNL     1       8.441   9.480  17.826  0.00  0.00    +0.000 N 
ATOM     10  H   UNL     1       8.585   9.898  16.920  0.00  0.00    +0.000 HD
BRANCH   7  14
ATOM     11  C   UNL     1      10.930  13.983  18.182  0.00  0.00    +0.000 A 
ATOM     12  C   UNL     1      10.173  13.718  19.334  0.00  0.00    +0.000 A 
ATOM     13  C   UNL     1       9.536  12.486  19.543  0.00  0.00    +0.000 A 
ATOM     14  C   UNL     1       9.658  11.449  18.614  0.00  0.00    +0.000 A 
ATOM     15  C   UNL     1      10.401  11.682  17.456  0.00  0.00    +0.000 A 
ATOM     16  C   UNL     1      11.024  12.929  17.252  0.00  0.00    +0.000 A 
BRANCH  11  18
ATOM     17  C   UNL     1      11.965  16.029  19.124  0.00  0.00    +0.000 C 
ATOM     18  N   UNL     1      11.573  15.207  17.981  0.00  0.00    +0.000 N 
ATOM     19  C   UNL     1      11.419  15.895  16.702  0.00  0.00    +0.000 C 
ENDBRANCH  11  18
ENDBRANCH   7  14
ENDBRANCH   1   9
BRANCH   4  20
ATOM     20  C   UNL     1       5.970   4.276  18.246  0.00  0.00    +0.000 C 
BRANCH  20  21
ATOM     21  N   UNL     1       4.913   4.167  19.249  0.00  0.00    +0.000 NA
ATOM     22  C   UNL     1       4.253   2.890  19.464  0.00  0.00    +0.000 C 
ATOM     23  C   UNL     1       3.066   2.640  18.555  0.00  0.00    +0.000 C 
ATOM     24  S   UNL     1       1.883   3.958  18.661  0.00  0.00    +0.000 S 
ATOM     25  O   UNL     1       1.089   3.937  17.445  0.00  0.00    +0.000 OA
ATOM     26  O   UNL     1       1.230   3.864  19.955  0.00  0.00    +0.000 OA
ATOM     27  C   UNL     1       2.849   5.447  18.641  0.00  0.00    +0.000 C 
ATOM     28  C   UNL     1       4.080   5.330  19.513  0.00  0.00    +0.000 C 
ENDBRANCH  20  21
ENDBRANCH   4  20
TORSDOF 5
ENDMDL
MODEL 4
REMARK VINA RESULT:      -7.9      7.259      9.008
REMARK  Name = 
REMARK  7 active torsions:
REMARK  status: ('A' for Active; 'I' for Inactive)
REMARK    1  A    between atoms: C_1  and  N_2
REMARK    2  A    between atoms: N_2  and  C_3
REMARK    3  A    between atoms: N_2  and  C_4
REMARK    4  A    between atoms: C_7  and  C_8
REMARK    5  A    between atoms: N_10  and  C_11
REMARK    6  A    between atoms: C_14  and  C_15
REMARK    7  A    between atoms: C_15  and  N_16
REMARK                            x       y       z     vdW  Elec       q    Type
REMARK                         _______ _______ _______ _____ _____    ______ ____
ROOT
ATOM      1  C   UNL     1       1.444   8.911  19.967  0.00  0.00    +0.000 A 
ATOM      2  C   UNL     1       1.686   7.648  20.512  0.00  0.00    +0.000 A 
ATOM      3  C   UNL     1       2.221   6.609  19.726  0.00  0.00    +0.000 A 
ATOM      4  C   UNL     1       2.525   6.809  18.373  0.00  0.00    +0.000 A 
ATOM      5  C   UNL     1       2.267   8.076  17.829  0.00  0.00    +0.000 A 
ATOM      6  C   UNL     1       1.730   9.108  18.610  0.00  0.00    +0.000 A 
ENDROOT
BRANCH   1   9
ATOM      7  C   UNL     1      -0.184  10.770  20.414  0.00  0.00    +0.000 C 
ATOM      8  O   UNL     1      -0.947  10.594  19.469  0.00  0.00    +0.000 OA
ATOM      9  N   UNL     1       0.954  10.029  20.689  0.00  0.00    +0.000 N 
ATOM     10  H   UNL     1       1.442  10.246  21.544  0.00  0.00    +0.000 HD
BRANCH   7  14
ATOM     11  C   UNL     1      -1.301  13.758  23.391  0.00  0.00    +0.000 A 
ATOM     12  C   UNL     1      -1.876  12.479  23.336  0.00  0.00    +0.000 A 
ATOM     13  C   UNL     1      -1.514  11.538  22.361  0.00  0.00    +0.000 A 
ATOM     14  C   UNL     1      -0.531  11.831  21.411  0.00  0.00    +0.000 A 
ATOM     15  C   UNL     1       0.057  13.097  21.437  0.00  0.00    +0.000 A 
ATOM     16  C   UNL     1      -0.327  14.037  22.414  0.00  0.00    +0.000 A 
BRANCH  11  18
ATOM     17  C   UNL     1      -3.000  14.682  24.942  0.00  0.00    +0.000 C 
ATOM     18  N   UNL     1      -1.655  14.690  24.371  0.00  0.00    +0.000 N 
ATOM     19  C   UNL     1      -0.907  15.940  24.473  0.00  0.00    +0.000 C 
ENDBRANCH  11  18
ENDBRANCH   7  14
ENDBRANCH   1   9
BRANCH   4  20
ATOM     20  C   UNL     1       3.201   5.747  17.530  0.00  0.00    +0.000 C 
BRANCH  20  21
ATOM     21  N   UNL     1       4.452   5.158  18.002  0.00  0.00    +0.000 NA
ATOM     22  C   UNL     1       5.566   6.022  18.358  0.00  0.00    +0.000 C 
ATOM     23  C   UNL     1       6.470   6.385  17.196  0.00  0.00    +0.000 C 
ATOM     24  S   UNL     1       7.071   4.935  16.369  0.00  0.00    +0.000 S 
ATOM     25  O   UNL     1       7.458   5.323  15.024  0.00  0.00    +0.000 OA
ATOM     26  O   UNL     1       8.035   4.292  17.244  0.00  0.00    +0.000 OA
ATOM     27  C   UNL     1       5.660   3.866  16.229  0.00  0.00    +0.000 C 
ATOM     28  C   UNL     1       4.841   3.848  17.501  0.00  0.00    +0.000 C 
ENDBRANCH  20  21
ENDBRANCH   4  20
TORSDOF 5
ENDMDL
MODEL 5
REMARK VINA RESULT:      -7.9      6.890      8.669
REMARK  Name = 
REMARK  7 active torsions:
REMARK  status: ('A' for Active; 'I' for Inactive)
REMARK    1  A    between atoms: C_1  and  N_2
REMARK    2  A    between atoms: N_2  and  C_3
REMARK    3  A    between atoms: N_2  and  C_4
REMARK    4  A    between atoms: C_7  and  C_8
REMARK    5  A    between atoms: N_10  and  C_11
REMARK    6  A    between atoms: C_14  and  C_15
REMARK    7  A    between atoms: C_15  and  N_16
REMARK                            x       y       z     vdW  Elec       q    Type
REMARK                         _______ _______ _______ _____ _____    ______ ____
ROOT
ATOM      1  C   UNL     1       1.551   8.755  19.660  0.00  0.00    +0.000 A 
ATOM      2  C   UNL     1       1.941   8.734  18.319  0.00  0.00    +0.000 A 
ATOM      3  C   UNL     1       2.471   7.566  17.736  0.00  0.00    +0.000 A 
ATOM      4  C   UNL     1       2.624   6.391  18.484  0.00  0.00    +0.000 A 
ATOM      5  C   UNL     1       2.243   6.424  19.833  0.00  0.00    +0.000 A 
ATOM      6  C   UNL     1       1.721   7.587  20.413  0.00  0.00    +0.000 A 
ENDROOT
BRANCH   1   9
ATOM      7  C   UNL     1      -0.038   9.839  21.275  0.00  0.00    +0.000 C 
ATOM      8  O   UNL     1      -0.611   8.836  21.690  0.00  0.00    +0.000 OA
ATOM      9  N   UNL     1       0.965   9.866  20.319  0.00  0.00    +0.000 N 
ATOM     10  H   UNL     1       1.391  10.760  20.133  0.00  0.00    +0.000 HD
BRANCH   7  14
ATOM     11  C   UNL     1      -0.964  13.755  22.964  0.00  0.00    +0.000 A 
ATOM     12  C   UNL     1      -0.049  13.568  21.916  0.00  0.00    +0.000 A 
ATOM     13  C   UNL     1       0.247  12.299  21.398  0.00  0.00    +0.000 A 
ATOM     14  C   UNL     1      -0.390  11.157  21.892  0.00  0.00    +0.000 A 
ATOM     15  C   UNL     1      -1.303  11.308  22.937  0.00  0.00    +0.000 A 
ATOM     16  C   UNL     1      -1.580  12.588  23.457  0.00  0.00    +0.000 A 
BRANCH  11  18
ATOM     17  C   UNL     1      -0.966  16.218  22.687  0.00  0.00    +0.000 C 
ATOM     18  N   UNL     1      -1.265  15.021  23.471  0.00  0.00    +0.000 N 
ATOM     19  C   UNL     1      -1.403  15.201  24.914  0.00  0.00    +0.000 C 
ENDBRANCH  11  18
ENDBRANCH   7  14
ENDBRANCH   1   9
BRANCH   4  20
ATOM     20  C   UNL     1       3.088   5.090  17.860  0.00  0.00    +0.000 C 
BRANCH  20  21
ATOM     21  N   UNL     1       4.421   4.585  18.182  0.00  0.00    +0.000 NA
ATOM     22  C   UNL     1       5.429   5.495  18.701  0.00  0.00    +0.000 C 
ATOM     23  C   UNL     1       6.235   6.209  17.633  0.00  0.00    +0.000 C 
ATOM     24  S   UNL     1       6.982   5.057  16.510  0.00  0.00    +0.000 S 
ATOM     25  O   UNL     1       7.265   5.765  15.275  0.00  0.00    +0.000 OA
ATOM     26  O   UNL     1       8.053   4.377  17.218  0.00  0.00    +0.000 OA
ATOM     27  C   UNL     1       5.713   3.864  16.162  0.00  0.00    +0.000 C 
ATOM     28  C   UNL     1       4.953   3.472  17.410  0.00  0.00    +0.000 C 
ENDBRANCH  20  21
ENDBRANCH   4  20
TORSDOF 5
ENDMDL
MODEL 6
REMARK VINA RESULT:      -7.9      7.607      9.661
REMARK  Name = 
REMARK  7 active torsions:
REMARK  status: ('A' for Active; 'I' for Inactive)
REMARK    1  A    between atoms: C_1  and  N_2
REMARK    2  A    between atoms: N_2  and  C_3
REMARK    3  A    between atoms: N_2  and  C_4
REMARK    4  A    between atoms: C_7  and  C_8
REMARK    5  A    between atoms: N_10  and  C_11
REMARK    6  A    between atoms: C_14  and  C_15
REMARK    7  A    between atoms: C_15  and  N_16
REMARK                            x       y       z     vdW  Elec       q    Type
REMARK                         _______ _______ _______ _____ _____    ______ ____
ROOT
ATOM      1  C   UNL     1       0.632   9.414  19.858  0.00  0.00    +0.000 A 
ATOM      2  C   UNL     1       1.031   9.565  18.528  0.00  0.00    +0.000 A 
ATOM      3  C   UNL     1       1.974   8.693  17.950  0.00  0.00    +0.000 A 
ATOM      4  C   UNL     1       2.541   7.647  18.691  0.00  0.00    +0.000 A 
ATOM      5  C   UNL     1       2.145   7.510  20.030  0.00  0.00    +0.000 A 
ATOM      6  C   UNL     1       1.212   8.382  20.605  0.00  0.00    +0.000 A 
ENDROOT
BRANCH   1   9
ATOM      7  C   UNL     1      -0.130  11.394  21.202  0.00  0.00    +0.000 C 
ATOM      8  O   UNL     1       0.956  11.934  21.390  0.00  0.00    +0.000 OA
ATOM      9  N   UNL     1      -0.342  10.211  20.511  0.00  0.00    +0.000 N 
ATOM     10  H   UNL     1      -1.300   9.929  20.377  0.00  0.00    +0.000 HD
BRANCH   7  14
ATOM     11  C   UNL     1      -3.698  13.342  22.788  0.00  0.00    +0.000 A 
ATOM     12  C   UNL     1      -2.988  12.355  23.488  0.00  0.00    +0.000 A 
ATOM     13  C   UNL     1      -1.853  11.729  22.954  0.00  0.00    +0.000 A 
ATOM     14  C   UNL     1      -1.359  12.092  21.697  0.00  0.00    +0.000 A 
ATOM     15  C   UNL     1      -2.044  13.068  20.974  0.00  0.00    +0.000 A 
ATOM     16  C   UNL     1      -3.192  13.678  21.517  0.00  0.00    +0.000 A 
BRANCH  11  18
ATOM     17  C   UNL     1      -4.693  15.264  23.997  0.00  0.00    +0.000 C 
ATOM     18  N   UNL     1      -4.823  13.972  23.327  0.00  0.00    +0.000 N 
ATOM     19  C   UNL     1      -5.995  13.171  23.670  0.00  0.00    +0.000 C 
ENDBRANCH  11  18
ENDBRANCH   7  14
ENDBRANCH   1   9
BRANCH   4  20
ATOM     20  C   UNL     1       3.473   6.627  18.068  0.00  0.00    +0.000 C 
BRANCH  20  21
ATOM     21  N   UNL     1       2.965   5.289  17.777  0.00  0.00    +0.000 NA
ATOM     22  C   UNL     1       2.071   4.637  18.720  0.00  0.00    +0.000 C 
ATOM     23  C   UNL     1       2.776   3.856  19.811  0.00  0.00    +0.000 C 
ATOM     24  S   UNL     1       3.904   2.669  19.129  0.00  0.00    +0.000 S 
ATOM     25  O   UNL     1       4.887   2.356  20.151  0.00  0.00    +0.000 OA
ATOM     26  O   UNL     1       3.119   1.604  18.528  0.00  0.00    +0.000 OA
ATOM     27  C   UNL     1       4.747   3.531  17.825  0.00  0.00    +0.000 C 
ATOM     28  C   UNL     1       3.798   4.378  17.006  0.00  0.00    +0.000 C 
ENDBRANCH  20  21
ENDBRANCH   4  20
TORSDOF 5
ENDMDL
MODEL 7
REMARK VINA RESULT:      -7.9      6.567      8.468
REMARK  Name = 
REMARK  7 active torsions:
REMARK  status: ('A' for Active; 'I' for Inactive)
REMARK    1  A    between atoms: C_1  and  N_2
REMARK    2  A    between atoms: N_2  and  C_3
REMARK    3  A    between atoms: N_2  and  C_4
REMARK    4  A    between atoms: C_7  and  C_8
REMARK    5  A    between atoms: N_10  and  C_11
REMARK    6  A    between atoms: C_14  and  C_15
REMARK    7  A    between atoms: C_15  and  N_16
REMARK                            x       y       z     vdW  Elec       q    Type
REMARK                         _______ _______ _______ _____ _____    ______ ____
ROOT
ATOM      1  C   UNL     1       1.761   8.045  19.855  0.00  0.00    +0.000 A 
ATOM      2  C   UNL     1       2.303   8.020  18.567  0.00  0.00    +0.000 A 
ATOM      3  C   UNL     1       2.714   6.809  17.976  0.00  0.00    +0.000 A 
ATOM      4  C   UNL     1       2.593   5.593  18.661  0.00  0.00    +0.000 A 
ATOM      5  C   UNL     1       2.061   5.628  19.959  0.00  0.00    +0.000 A 
ATOM      6  C   UNL     1       1.658   6.833  20.548  0.00  0.00    +0.000 A 
ENDROOT
BRANCH   1   9
ATOM      7  C   UNL     1       0.314  10.087  20.051  0.00  0.00    +0.000 C 
ATOM      8  O   UNL     1      -0.264  10.023  18.970  0.00  0.00    +0.000 OA
ATOM      9  N   UNL     1       1.278   9.205  20.512  0.00  0.00    +0.000 N 
ATOM     10  H   UNL     1       1.612   9.347  21.452  0.00  0.00    +0.000 HD
BRANCH   7  14
ATOM     11  C   UNL     1      -0.781  13.353  22.731  0.00  0.00    +0.000 A 
ATOM     12  C   UNL     1       0.039  13.527  21.605  0.00  0.00    +0.000 A 
ATOM     13  C   UNL     1       0.393  12.460  20.765  0.00  0.00    +0.000 A 
ATOM     14  C   UNL     1      -0.091  11.170  21.003  0.00  0.00    +0.000 A 
ATOM     15  C   UNL     1      -0.905  10.964  22.116  0.00  0.00    +0.000 A 
ATOM     16  C   UNL     1      -1.241  12.041  22.960  0.00  0.00    +0.000 A 
BRANCH  11  18
ATOM     17  C   UNL     1      -2.471  14.467  24.161  0.00  0.00    +0.000 C 
ATOM     18  N   UNL     1      -1.141  14.418  23.560  0.00  0.00    +0.000 N 
ATOM     19  C   UNL     1      -0.429  15.688  23.442  0.00  0.00    +0.000 C 
ENDBRANCH  11  18
ENDBRANCH   7  14
ENDBRANCH   1   9
BRANCH   4  20
ATOM     20  C   UNL     1       2.923   4.263  18.014  0.00  0.00    +0.000 C 
BRANCH  20  21
ATOM     21  N   UNL     1       4.323   3.861  17.896  0.00  0.00    +0.000 NA
ATOM     22  C   UNL     1       5.261   4.197  18.955  0.00  0.00    +0.000 C 
ATOM     23  C   UNL     1       5.904   5.562  18.811  0.00  0.00    +0.000 C 
ATOM     24  S   UNL     1       6.690   5.741  17.230  0.00  0.00    +0.000 S 
ATOM     25  O   UNL     1       6.803   7.162  16.952  0.00  0.00    +0.000 OA
ATOM     26  O   UNL     1       7.877   4.904  17.227  0.00  0.00    +0.000 OA
ATOM     27  C   UNL     1       5.537   5.060  16.063  0.00  0.00    +0.000 C 
ATOM     28  C   UNL     1       4.916   3.777  16.570  0.00  0.00    +0.000 C 
ENDBRANCH  20  21
ENDBRANCH   4  20
TORSDOF 5
ENDMDL
MODEL 8
REMARK VINA RESULT:      -7.8      0.688      1.410
REMARK  Name = 
REMARK  7 active torsions:
REMARK  status: ('A' for Active; 'I' for Inactive)
REMARK    1  A    between atoms: C_1  and  N_2
REMARK    2  A    between atoms: N_2  and  C_3
REMARK    3  A    between atoms: N_2  and  C_4
REMARK    4  A    between atoms: C_7  and  C_8
REMARK    5  A    between atoms: N_10  and  C_11
REMARK    6  A    between atoms: C_14  and  C_15
REMARK    7  A    between atoms: C_15  and  N_16
REMARK                            x       y       z     vdW  Elec       q    Type
REMARK                         _______ _______ _______ _____ _____    ______ ____
ROOT
ATOM      1  C   UNL     1       7.297   7.988  17.605  0.00  0.00    +0.000 A 
ATOM      2  C   UNL     1       6.133   7.654  16.909  0.00  0.00    +0.000 A 
ATOM      3  C   UNL     1       5.559   6.373  17.027  0.00  0.00    +0.000 A 
ATOM      4  C   UNL     1       6.138   5.395  17.847  0.00  0.00    +0.000 A 
ATOM      5  C   UNL     1       7.314   5.734  18.533  0.00  0.00    +0.000 A 
ATOM      6  C   UNL     1       7.887   7.006  18.410  0.00  0.00    +0.000 A 
ENDROOT
BRANCH   1   9
ATOM      7  C   UNL     1       8.827   9.765  18.503  0.00  0.00    +0.000 C 
ATOM      8  O   UNL     1       9.223   9.191  19.513  0.00  0.00    +0.000 OA
ATOM      9  N   UNL     1       7.919   9.263  17.585  0.00  0.00    +0.000 N 
ATOM     10  H   UNL     1       7.744   9.822  16.766  0.00  0.00    +0.000 HD
BRANCH   7  14
ATOM     11  C   UNL     1      10.389  13.722  17.532  0.00  0.00    +0.000 A 
ATOM     12  C   UNL     1       9.019  13.418  17.536  0.00  0.00    +0.000 A 
ATOM     13  C   UNL     1       8.538  12.135  17.835  0.00  0.00    +0.000 A 
ATOM     14  C   UNL     1       9.416  11.102  18.177  0.00  0.00    +0.000 A 
ATOM     15  C   UNL     1      10.785  11.372  18.179  0.00  0.00    +0.000 A 
ATOM     16  C   UNL     1      11.255  12.662  17.862  0.00  0.00    +0.000 A 
BRANCH  11  18
ATOM     17  C   UNL     1      12.301  15.249  17.134  0.00  0.00    +0.000 C 
ATOM     18  N   UNL     1      10.864  15.004  17.245  0.00  0.00    +0.000 N 
ATOM     19  C   UNL     1      10.024  16.162  17.539  0.00  0.00    +0.000 C 
ENDBRANCH  11  18
ENDBRANCH   7  14
ENDBRANCH   1   9
BRANCH   4  20
ATOM     20  C   UNL     1       5.487   4.046  18.081  0.00  0.00    +0.000 C 
BRANCH  20  21
ATOM     21  N   UNL     1       4.029   3.965  18.143  0.00  0.00    +0.000 NA
ATOM     22  C   UNL     1       3.284   4.958  18.900  0.00  0.00    +0.000 C 
ATOM     23  C   UNL     1       3.112   4.623  20.368  0.00  0.00    +0.000 C 
ATOM     24  S   UNL     1       2.376   3.022  20.583  0.00  0.00    +0.000 S 
ATOM     25  O   UNL     1       2.719   2.554  21.914  0.00  0.00    +0.000 OA
ATOM     26  O   UNL     1       0.983   3.116  20.183  0.00  0.00    +0.000 OA
ATOM     27  C   UNL     1       3.210   1.973  19.418  0.00  0.00    +0.000 C 
ATOM     28  C   UNL     1       3.399   2.655  18.081  0.00  0.00    +0.000 C 
ENDBRANCH  20  21
ENDBRANCH   4  20
TORSDOF 5
ENDMDL
MODEL 9
REMARK VINA RESULT:      -7.8      7.661      9.706
REMARK  Name = 
REMARK  7 active torsions:
REMARK  status: ('A' for Active; 'I' for Inactive)
REMARK    1  A    between atoms: C_1  and  N_2
REMARK    2  A    between atoms: N_2  and  C_3
REMARK    3  A    between atoms: N_2  and  C_4
REMARK    4  A    between atoms: C_7  and  C_8
REMARK    5  A    between atoms: N_10  and  C_11
REMARK    6  A    between atoms: C_14  and  C_15
REMARK    7  A    between atoms: C_15  and  N_16
REMARK                            x       y       z     vdW  Elec       q    Type
REMARK                         _______ _______ _______ _____ _____    ______ ____
ROOT
ATOM      1  C   UNL     1       0.884   9.198  19.983  0.00  0.00    +0.000 A 
ATOM      2  C   UNL     1       1.277   9.344  18.650  0.00  0.00    +0.000 A 
ATOM      3  C   UNL     1       2.126   8.401  18.037  0.00  0.00    +0.000 A 
ATOM      4  C   UNL     1       2.602   7.289  18.744  0.00  0.00    +0.000 A 
ATOM      5  C   UNL     1       2.214   7.157  20.086  0.00  0.00    +0.000 A 
ATOM      6  C   UNL     1       1.375   8.098  20.696  0.00  0.00    +0.000 A 
ENDROOT
BRANCH   1   9
ATOM      7  C   UNL     1       0.310  11.278  21.267  0.00  0.00    +0.000 C 
ATOM      8  O   UNL     1       1.426  11.787  21.326  0.00  0.00    +0.000 OA
ATOM      9  N   UNL     1      -0.001  10.067  20.669  0.00  0.00    +0.000 N 
ATOM     10  H   UNL     1      -0.976   9.814  20.637  0.00  0.00    +0.000 HD
BRANCH   7  14
ATOM     11  C   UNL     1      -3.090  13.397  22.997  0.00  0.00    +0.000 A 
ATOM     12  C   UNL     1      -2.718  12.099  23.383  0.00  0.00    +0.000 A 
ATOM     13  C   UNL     1      -1.631  11.429  22.802  0.00  0.00    +0.000 A 
ATOM     14  C   UNL     1      -0.846  12.049  21.826  0.00  0.00    +0.000 A 
ATOM     15  C   UNL     1      -1.192  13.338  21.418  0.00  0.00    +0.000 A 
ATOM     16  C   UNL     1      -2.295  13.993  22.000  0.00  0.00    +0.000 A 
BRANCH  11  18
ATOM     17  C   UNL     1      -3.979  15.392  24.170  0.00  0.00    +0.000 C 
ATOM     18  N   UNL     1      -4.166  14.066  23.585  0.00  0.00    +0.000 N 
ATOM     19  C   UNL     1      -5.314  13.297  24.061  0.00  0.00    +0.000 C 
ENDBRANCH  11  18
ENDBRANCH   7  14
ENDBRANCH   1   9
BRANCH   4  20
ATOM     20  C   UNL     1       3.425   6.202  18.083  0.00  0.00    +0.000 C 
BRANCH  20  21
ATOM     21  N   UNL     1       4.765   6.525  17.596  0.00  0.00    +0.000 NA
ATOM     22  C   UNL     1       4.946   6.958  16.220  0.00  0.00    +0.000 C 
ATOM     23  C   UNL     1       5.134   5.826  15.229  0.00  0.00    +0.000 C 
ATOM     24  S   UNL     1       6.472   4.764  15.709  0.00  0.00    +0.000 S 
ATOM     25  O   UNL     1       6.265   3.478  15.067  0.00  0.00    +0.000 OA
ATOM     26  O   UNL     1       7.712   5.489  15.498  0.00  0.00    +0.000 OA
ATOM     27  C   UNL     1       6.266   4.527  17.457  0.00  0.00    +0.000 C 
ATOM     28  C   UNL     1       5.903   5.816  18.160  0.00  0.00    +0.000 C 
ENDBRANCH  20  21
ENDBRANCH   4  20
TORSDOF 5
ENDMDL
