MODEL 1
REMARK VINA RESULT:      -8.1      0.000      0.000
REMARK  Name = 
REMARK  13 active torsions:
REMARK  status: ('A' for Active; 'I' for Inactive)
REMARK    1  A    between atoms: C_1  and  C_2
REMARK    2  A    between atoms: C_2  and  N_3
REMARK    3  A    between atoms: N_3  and  C_4
REMARK    4  A    between atoms: N_3  and  C_6
REMARK    5  A    between atoms: C_4  and  C_5
REMARK    6  A    between atoms: C_6  and  C_7
REMARK    7  A    between atoms: C_7  and  C_8
REMARK    8  A    between atoms: C_8  and  C_9
REMARK    9  A    between atoms: C_9  and  C_10
REMARK   10  A    between atoms: C_9  and  N_11
REMARK   11  A    between atoms: N_11  and  C_12
REMARK   12  A    between atoms: N_15  and  C_16
REMARK   13  A    between atoms: C_16  and  C_17
REMARK                            x       y       z     vdW  Elec       q    Type
REMARK                         _______ _______ _______ _____ _____    ______ ____
ROOT
ATOM      1  C   UNL     1       3.528   5.755  18.015  0.00  0.00    +0.000 A 
ATOM      2  N   UNL     1       3.297   6.800  18.827  0.00  0.00    +0.000 NA
ATOM      3  C   UNL     1       2.361   6.668  19.769  0.00  0.00    +0.000 A 
ATOM      4  N   UNL     1       2.202   7.743  20.621  0.00  0.00    +0.000 N 
ATOM      5  N   UNL     1       1.614   5.576  19.929  0.00  0.00    +0.000 NA
ATOM      6  C   UNL     1       1.892   4.516  19.172  0.00  0.00    +0.000 A 
ATOM      7  C   UNL     1       1.112   3.377  19.328  0.00  0.00    +0.000 A 
ATOM      8  C   UNL     1       1.376   2.204  18.618  0.00  0.00    +0.000 A 
ATOM      9  C   UNL     1       2.447   2.161  17.736  0.00  0.00    +0.000 A 
ATOM     10  C   UNL     1       3.204   3.312  17.522  0.00  0.00    +0.000 A 
ATOM     11  C   UNL     1       2.916   4.510  18.224  0.00  0.00    +0.000 A 
ATOM     12  H   UNL     1       2.636   8.549  20.186  0.00  0.00    +0.000 HD
ENDROOT
BRANCH   1  13
ATOM     13  N   UNL     1       4.363   5.931  16.901  0.00  0.00    +0.000 N 
ATOM     14  H   UNL     1       3.966   5.442  16.103  0.00  0.00    +0.000 HD
BRANCH  13  15
ATOM     15  C   UNL     1       5.828   5.770  17.027  0.00  0.00    +0.000 C 
ATOM     16  C   UNL     1       6.521   7.119  17.168  0.00  0.00    +0.000 C 
BRANCH  15  17
ATOM     17  C   UNL     1       6.426   4.849  15.940  0.00  0.00    +0.000 C 
BRANCH  17  18
ATOM     18  C   UNL     1       5.649   4.710  14.629  0.00  0.00    +0.000 C 
BRANCH  18  19
ATOM     19  C   UNL     1       6.018   3.469  13.817  0.00  0.00    +0.000 C 
BRANCH  19  20
ATOM     20  N   UNL     1       5.836   3.643  12.362  0.00  0.00    +0.000 NA
BRANCH  20  22
ATOM     21  C   UNL     1       7.270   1.966  11.136  0.00  0.00    +0.000 C 
ATOM     22  C   UNL     1       7.114   3.386  11.674  0.00  0.00    +0.000 C 
ENDBRANCH  20  22
BRANCH  20  23
ATOM     23  C   UNL     1       4.695   2.907  11.798  0.00  0.00    +0.000 C 
ATOM     24  C   UNL     1       3.782   3.692  10.860  0.00  0.00    +0.000 C 
ENDBRANCH  20  23
ENDBRANCH  19  20
ENDBRANCH  18  19
ENDBRANCH  17  18
ENDBRANCH  15  17
ENDBRANCH  13  15
ENDBRANCH   1  13
BRANCH   4  25
ATOM     25  C   UNL     1       0.873   7.958  21.147  0.00  0.00    +0.000 C 
BRANCH  25  26
ATOM     26  C   UNL     1       0.422   9.346  20.765  0.00  0.00    +0.000 A 
ATOM     27  C   UNL     1       0.582   9.753  19.428  0.00  0.00    +0.000 A 
ATOM     28  C   UNL     1       0.182  11.019  19.005  0.00  0.00    +0.000 A 
ATOM     29  C   UNL     1      -0.407  11.892  19.917  0.00  0.00    +0.000 A 
ATOM     30 CL   UNL     1      -0.908  13.454  19.401  0.00  0.00    +0.000 Cl
ATOM     31  C   UNL     1      -0.597  11.504  21.241  0.00  0.00    +0.000 A 
ATOM     32  C   UNL     1      -0.189  10.235  21.662  0.00  0.00    +0.000 A 
ATOM     33 CL   UNL     1      -0.481   9.807  23.310  0.00  0.00    +0.000 Cl
ENDBRANCH  25  26
ENDBRANCH   4  25
TORSDOF 10
ENDMDL
MODEL 2
REMARK VINA RESULT:      -7.8      1.236      1.970
REMARK  Name = 
REMARK  13 active torsions:
REMARK  status: ('A' for Active; 'I' for Inactive)
REMARK    1  A    between atoms: C_1  and  C_2
REMARK    2  A    between atoms: C_2  and  N_3
REMARK    3  A    between atoms: N_3  and  C_4
REMARK    4  A    between atoms: N_3  and  C_6
REMARK    5  A    between atoms: C_4  and  C_5
REMARK    6  A    between atoms: C_6  and  C_7
REMARK    7  A    between atoms: C_7  and  C_8
REMARK    8  A    between atoms: C_8  and  C_9
REMARK    9  A    between atoms: C_9  and  C_10
REMARK   10  A    between atoms: C_9  and  N_11
REMARK   11  A    between atoms: N_11  and  C_12
REMARK   12  A    between atoms: N_15  and  C_16
REMARK   13  A    between atoms: C_16  and  C_17
REMARK                            x       y       z     vdW  Elec       q    Type
REMARK                         _______ _______ _______ _____ _____    ______ ____
ROOT
ATOM      1  C   UNL     1       3.758   5.616  17.843  0.00  0.00    +0.000 A 
ATOM      2  N   UNL     1       3.356   6.641  18.612  0.00  0.00    +0.000 NA
ATOM      3  C   UNL     1       2.540   6.378  19.634  0.00  0.00    +0.000 A 
ATOM      4  N   UNL     1       2.204   7.451  20.436  0.00  0.00    +0.000 N 
ATOM      5  N   UNL     1       2.068   5.163  19.917  0.00  0.00    +0.000 NA
ATOM      6  C   UNL     1       2.523   4.137  19.200  0.00  0.00    +0.000 A 
ATOM      7  C   UNL     1       2.030   2.870  19.484  0.00  0.00    +0.000 A 
ATOM      8  C   UNL     1       2.499   1.734  18.822  0.00  0.00    +0.000 A 
ATOM      9  C   UNL     1       3.489   1.861  17.857  0.00  0.00    +0.000 A 
ATOM     10  C   UNL     1       3.953   3.131  17.516  0.00  0.00    +0.000 A 
ATOM     11  C   UNL     1       3.454   4.286  18.172  0.00  0.00    +0.000 A 
ATOM     12  H   UNL     1       2.417   8.299  19.921  0.00  0.00    +0.000 HD
ENDROOT
BRANCH   1  13
ATOM     13  N   UNL     1       4.454   5.887  16.655  0.00  0.00    +0.000 N 
ATOM     14  H   UNL     1       3.868   5.646  15.860  0.00  0.00    +0.000 HD
BRANCH  13  15
ATOM     15  C   UNL     1       5.865   5.474  16.500  0.00  0.00    +0.000 C 
ATOM     16  C   UNL     1       6.801   6.416  17.246  0.00  0.00    +0.000 C 
BRANCH  15  17
ATOM     17  C   UNL     1       6.254   5.210  15.028  0.00  0.00    +0.000 C 
BRANCH  17  18
ATOM     18  C   UNL     1       5.920   3.834  14.448  0.00  0.00    +0.000 C 
BRANCH  18  19
ATOM     19  C   UNL     1       6.277   3.681  12.969  0.00  0.00    +0.000 C 
BRANCH  19  20
ATOM     20  N   UNL     1       5.296   2.883  12.207  0.00  0.00    +0.000 NA
BRANCH  20  22
ATOM     21  C   UNL     1       3.305   3.080  10.668  0.00  0.00    +0.000 C 
ATOM     22  C   UNL     1       4.396   3.787  11.469  0.00  0.00    +0.000 C 
ENDBRANCH  20  22
BRANCH  20  23
ATOM     23  C   UNL     1       5.886   1.820  11.380  0.00  0.00    +0.000 C 
ATOM     24  C   UNL     1       7.393   1.906  11.146  0.00  0.00    +0.000 C 
ENDBRANCH  20  23
ENDBRANCH  19  20
ENDBRANCH  18  19
ENDBRANCH  17  18
ENDBRANCH  15  17
ENDBRANCH  13  15
ENDBRANCH   1  13
BRANCH   4  25
ATOM     25  C   UNL     1       0.901   7.409  21.058  0.00  0.00    +0.000 C 
BRANCH  25  26
ATOM     26  C   UNL     1       0.427   8.825  21.281  0.00  0.00    +0.000 A 
ATOM     27  C   UNL     1       0.019   9.193  22.575  0.00  0.00    +0.000 A 
ATOM     28  C   UNL     1      -0.424  10.485  22.854  0.00  0.00    +0.000 A 
ATOM     29  C   UNL     1      -0.443  11.437  21.836  0.00  0.00    +0.000 A 
ATOM     30 CL   UNL     1      -0.984  13.034  22.172  0.00  0.00    +0.000 Cl
ATOM     31  C   UNL     1      -0.023  11.102  20.552  0.00  0.00    +0.000 A 
ATOM     32  C   UNL     1       0.416   9.803  20.277  0.00  0.00    +0.000 A 
ATOM     33 CL   UNL     1       0.952   9.463  18.670  0.00  0.00    +0.000 Cl
ENDBRANCH  25  26
ENDBRANCH   4  25
TORSDOF 10
ENDMDL
MODEL 3
REMARK VINA RESULT:      -7.6      1.010      1.408
REMARK  Name = 
REMARK  13 active torsions:
REMARK  status: ('A' for Active; 'I' for Inactive)
REMARK    1  A    between atoms: C_1  and  C_2
REMARK    2  A    between atoms: C_2  and  N_3
REMARK    3  A    between atoms: N_3  and  C_4
REMARK    4  A    between atoms: N_3  and  C_6
REMARK    5  A    between atoms: C_4  and  C_5
REMARK    6  A    between atoms: C_6  and  C_7
REMARK    7  A    between atoms: C_7  and  C_8
REMARK    8  A    between atoms: C_8  and  C_9
REMARK    9  A    between atoms: C_9  and  C_10
REMARK   10  A    between atoms: C_9  and  N_11
REMARK   11  A    between atoms: N_11  and  C_12
REMARK   12  A    between atoms: N_15  and  C_16
REMARK   13  A    between atoms: C_16  and  C_17
REMARK                            x       y       z     vdW  Elec       q    Type
REMARK                         _______ _______ _______ _____ _____    ______ ____
ROOT
ATOM      1  C   UNL     1       3.650   5.504  18.043  0.00  0.00    +0.000 A 
ATOM      2  N   UNL     1       3.347   6.593  18.768  0.00  0.00    +0.000 NA
ATOM      3  C   UNL     1       2.393   6.486  19.694  0.00  0.00    +0.000 A 
ATOM      4  N   UNL     1       2.160   7.612  20.460  0.00  0.00    +0.000 N 
ATOM      5  N   UNL     1       1.694   5.373  19.918  0.00  0.00    +0.000 NA
ATOM      6  C   UNL     1       2.043   4.275  19.249  0.00  0.00    +0.000 A 
ATOM      7  C   UNL     1       1.314   3.114  19.472  0.00  0.00    +0.000 A 
ATOM      8  C   UNL     1       1.653   1.906  18.859  0.00  0.00    +0.000 A 
ATOM      9  C   UNL     1       2.748   1.850  18.009  0.00  0.00    +0.000 A 
ATOM     10  C   UNL     1       3.455   3.018  17.727  0.00  0.00    +0.000 A 
ATOM     11  C   UNL     1       3.092   4.249  18.330  0.00  0.00    +0.000 A 
ATOM     12  H   UNL     1       2.567   8.404  19.975  0.00  0.00    +0.000 HD
ENDROOT
BRANCH   1  13
ATOM     13  N   UNL     1       4.507   5.638  16.939  0.00  0.00    +0.000 N 
ATOM     14  H   UNL     1       4.125   5.119  16.153  0.00  0.00    +0.000 HD
BRANCH  13  15
ATOM     15  C   UNL     1       5.969   5.483  17.099  0.00  0.00    +0.000 C 
ATOM     16  C   UNL     1       6.677   6.830  17.041  0.00  0.00    +0.000 C 
BRANCH  15  17
ATOM     17  C   UNL     1       6.562   4.402  16.169  0.00  0.00    +0.000 C 
BRANCH  17  18
ATOM     18  C   UNL     1       6.501   4.658  14.662  0.00  0.00    +0.000 C 
BRANCH  18  19
ATOM     19  C   UNL     1       5.433   3.839  13.937  0.00  0.00    +0.000 C 
BRANCH  19  20
ATOM     20  N   UNL     1       5.564   3.873  12.466  0.00  0.00    +0.000 NA
BRANCH  20  22
ATOM     21  C   UNL     1       7.290   2.377  11.392  0.00  0.00    +0.000 C 
ATOM     22  C   UNL     1       6.980   3.695  12.096  0.00  0.00    +0.000 C 
ENDBRANCH  20  22
BRANCH  20  23
ATOM     23  C   UNL     1       4.642   2.978  11.752  0.00  0.00    +0.000 C 
ATOM     24  C   UNL     1       3.673   3.644  10.778  0.00  0.00    +0.000 C 
ENDBRANCH  20  23
ENDBRANCH  19  20
ENDBRANCH  18  19
ENDBRANCH  17  18
ENDBRANCH  15  17
ENDBRANCH  13  15
ENDBRANCH   1  13
BRANCH   4  25
ATOM     25  C   UNL     1       0.808   7.799  20.936  0.00  0.00    +0.000 C 
BRANCH  25  26
ATOM     26  C   UNL     1       0.492   9.275  20.921  0.00  0.00    +0.000 A 
ATOM     27  C   UNL     1       0.147   9.894  22.136  0.00  0.00    +0.000 A 
ATOM     28  C   UNL     1      -0.150  11.254  22.196  0.00  0.00    +0.000 A 
ATOM     29  C   UNL     1      -0.085  12.021  21.035  0.00  0.00    +0.000 A 
ATOM     30 CL   UNL     1      -0.446  13.701  21.101  0.00  0.00    +0.000 Cl
ATOM     31  C   UNL     1       0.276  11.436  19.824  0.00  0.00    +0.000 A 
ATOM     32  C   UNL     1       0.569  10.070  19.768  0.00  0.00    +0.000 A 
ATOM     33 CL   UNL     1       1.039   9.414  18.240  0.00  0.00    +0.000 Cl
ENDBRANCH  25  26
ENDBRANCH   4  25
TORSDOF 10
ENDMDL
MODEL 4
REMARK VINA RESULT:      -7.6      0.779      1.363
REMARK  Name = 
REMARK  13 active torsions:
REMARK  status: ('A' for Active; 'I' for Inactive)
REMARK    1  A    between atoms: C_1  and  C_2
REMARK    2  A    between atoms: C_2  and  N_3
REMARK    3  A    between atoms: N_3  and  C_4
REMARK    4  A    between atoms: N_3  and  C_6
REMARK    5  A    between atoms: C_4  and  C_5
REMARK    6  A    between atoms: C_6  and  C_7
REMARK    7  A    between atoms: C_7  and  C_8
REMARK    8  A    between atoms: C_8  and  C_9
REMARK    9  A    between atoms: C_9  and  C_10
REMARK   10  A    between atoms: C_9  and  N_11
REMARK   11  A    between atoms: N_11  and  C_12
REMARK   12  A    between atoms: N_15  and  C_16
REMARK   13  A    between atoms: C_16  and  C_17
REMARK                            x       y       z     vdW  Elec       q    Type
REMARK                         _______ _______ _______ _____ _____    ______ ____
ROOT
ATOM      1  C   UNL     1       3.212   5.721  18.476  0.00  0.00    +0.000 A 
ATOM      2  N   UNL     1       3.002   6.841  19.187  0.00  0.00    +0.000 NA
ATOM      3  C   UNL     1       2.067   6.815  20.139  0.00  0.00    +0.000 A 
ATOM      4  N   UNL     1       1.930   7.967  20.888  0.00  0.00    +0.000 N 
ATOM      5  N   UNL     1       1.300   5.756  20.400  0.00  0.00    +0.000 NA
ATOM      6  C   UNL     1       1.556   4.626  19.744  0.00  0.00    +0.000 A 
ATOM      7  C   UNL     1       0.756   3.521  20.006  0.00  0.00    +0.000 A 
ATOM      8  C   UNL     1       0.995   2.283  19.408  0.00  0.00    +0.000 A 
ATOM      9  C   UNL     1       2.062   2.138  18.532  0.00  0.00    +0.000 A 
ATOM     10  C   UNL     1       2.840   3.250  18.211  0.00  0.00    +0.000 A 
ATOM     11  C   UNL     1       2.577   4.513  18.800  0.00  0.00    +0.000 A 
ATOM     12  H   UNL     1       2.378   8.721  20.379  0.00  0.00    +0.000 HD
ENDROOT
BRANCH   1  13
ATOM     13  N   UNL     1       4.047   5.777  17.349  0.00  0.00    +0.000 N 
ATOM     14  H   UNL     1       3.598   5.296  16.574  0.00  0.00    +0.000 HD
BRANCH  13  15
ATOM     15  C   UNL     1       5.492   5.489  17.470  0.00  0.00    +0.000 C 
ATOM     16  C   UNL     1       6.321   6.761  17.349  0.00  0.00    +0.000 C 
BRANCH  15  17
ATOM     17  C   UNL     1       5.951   4.331  16.556  0.00  0.00    +0.000 C 
BRANCH  17  18
ATOM     18  C   UNL     1       5.723   4.489  15.051  0.00  0.00    +0.000 C 
BRANCH  18  19
ATOM     19  C   UNL     1       6.832   3.887  14.189  0.00  0.00    +0.000 C 
BRANCH  19  20
ATOM     20  N   UNL     1       6.421   3.638  12.792  0.00  0.00    +0.000 NA
BRANCH  20  22
ATOM     21  C   UNL     1       4.387   3.169  11.374  0.00  0.00    +0.000 C 
ATOM     22  C   UNL     1       4.951   3.673  12.700  0.00  0.00    +0.000 C 
ENDBRANCH  20  22
BRANCH  20  23
ATOM     23  C   UNL     1       7.103   4.479  11.798  0.00  0.00    +0.000 C 
ATOM     24  C   UNL     1       8.037   5.554  12.350  0.00  0.00    +0.000 C 
ENDBRANCH  20  23
ENDBRANCH  19  20
ENDBRANCH  18  19
ENDBRANCH  17  18
ENDBRANCH  15  17
ENDBRANCH  13  15
ENDBRANCH   1  13
BRANCH   4  25
ATOM     25  C   UNL     1       0.608   8.255  21.393  0.00  0.00    +0.000 C 
BRANCH  25  26
ATOM     26  C   UNL     1       0.205   9.634  20.932  0.00  0.00    +0.000 A 
ATOM     27  C   UNL     1       0.480   9.997  19.601  0.00  0.00    +0.000 A 
ATOM     28  C   UNL     1       0.130  11.252  19.107  0.00  0.00    +0.000 A 
ATOM     29  C   UNL     1      -0.524  12.159  19.940  0.00  0.00    +0.000 A 
ATOM     30 CL   UNL     1      -0.962  13.707  19.336  0.00  0.00    +0.000 Cl
ATOM     31  C   UNL     1      -0.826  11.814  21.254  0.00  0.00    +0.000 A 
ATOM     32  C   UNL     1      -0.469  10.556  21.746  0.00  0.00    +0.000 A 
ATOM     33 CL   UNL     1      -0.901  10.182  23.377  0.00  0.00    +0.000 Cl
ENDBRANCH  25  26
ENDBRANCH   4  25
TORSDOF 10
ENDMDL
MODEL 5
REMARK VINA RESULT:      -7.6      1.529      2.360
REMARK  Name = 
REMARK  13 active torsions:
REMARK  status: ('A' for Active; 'I' for Inactive)
REMARK    1  A    between atoms: C_1  and  C_2
REMARK    2  A    between atoms: C_2  and  N_3
REMARK    3  A    between atoms: N_3  and  C_4
REMARK    4  A    between atoms: N_3  and  C_6
REMARK    5  A    between atoms: C_4  and  C_5
REMARK    6  A    between atoms: C_6  and  C_7
REMARK    7  A    between atoms: C_7  and  C_8
REMARK    8  A    between atoms: C_8  and  C_9
REMARK    9  A    between atoms: C_9  and  C_10
REMARK   10  A    between atoms: C_9  and  N_11
REMARK   11  A    between atoms: N_11  and  C_12
REMARK   12  A    between atoms: N_15  and  C_16
REMARK   13  A    between atoms: C_16  and  C_17
REMARK                            x       y       z     vdW  Elec       q    Type
REMARK                         _______ _______ _______ _____ _____    ______ ____
ROOT
ATOM      1  C   UNL     1       4.791   4.624  19.160  0.00  0.00    +0.000 A 
ATOM      2  N   UNL     1       4.479   5.900  19.437  0.00  0.00    +0.000 NA
ATOM      3  C   UNL     1       3.196   6.262  19.370  0.00  0.00    +0.000 A 
ATOM      4  N   UNL     1       2.913   7.566  19.726  0.00  0.00    +0.000 N 
ATOM      5  N   UNL     1       2.209   5.442  19.007  0.00  0.00    +0.000 NA
ATOM      6  C   UNL     1       2.509   4.161  18.803  0.00  0.00    +0.000 A 
ATOM      7  C   UNL     1       1.487   3.303  18.417  0.00  0.00    +0.000 A 
ATOM      8  C   UNL     1       1.704   1.935  18.242  0.00  0.00    +0.000 A 
ATOM      9  C   UNL     1       2.968   1.406  18.463  0.00  0.00    +0.000 A 
ATOM     10  C   UNL     1       4.019   2.260  18.792  0.00  0.00    +0.000 A 
ATOM     11  C   UNL     1       3.801   3.654  18.943  0.00  0.00    +0.000 A 
ATOM     12  H   UNL     1       3.782   8.089  19.697  0.00  0.00    +0.000 HD
ENDROOT
BRANCH   1  13
ATOM     13  N   UNL     1       6.143   4.265  19.035  0.00  0.00    +0.000 N 
ATOM     14  H   UNL     1       6.617   4.431  19.918  0.00  0.00    +0.000 HD
BRANCH  13  15
ATOM     15  C   UNL     1       6.925   4.686  17.853  0.00  0.00    +0.000 C 
ATOM     16  C   UNL     1       7.114   6.197  17.825  0.00  0.00    +0.000 C 
BRANCH  15  17
ATOM     17  C   UNL     1       6.394   4.079  16.535  0.00  0.00    +0.000 C 
BRANCH  17  18
ATOM     18  C   UNL     1       5.705   5.026  15.550  0.00  0.00    +0.000 C 
BRANCH  18  19
ATOM     19  C   UNL     1       5.403   4.396  14.191  0.00  0.00    +0.000 C 
BRANCH  19  20
ATOM     20  N   UNL     1       6.612   3.967  13.460  0.00  0.00    +0.000 NA
BRANCH  20  22
ATOM     21  C   UNL     1       4.723   3.390  11.889  0.00  0.00    +0.000 C 
ATOM     22  C   UNL     1       6.218   3.335  12.188  0.00  0.00    +0.000 C 
ENDBRANCH  20  22
BRANCH  20  23
ATOM     23  C   UNL     1       7.638   5.011  13.316  0.00  0.00    +0.000 C 
ATOM     24  C   UNL     1       7.824   5.587  11.914  0.00  0.00    +0.000 C 
ENDBRANCH  20  23
ENDBRANCH  19  20
ENDBRANCH  18  19
ENDBRANCH  17  18
ENDBRANCH  15  17
ENDBRANCH  13  15
ENDBRANCH   1  13
BRANCH   4  25
ATOM     25  C   UNL     1       1.789   8.186  19.063  0.00  0.00    +0.000 C 
BRANCH  25  26
ATOM     26  C   UNL     1       0.986   8.949  20.088  0.00  0.00    +0.000 A 
ATOM     27  C   UNL     1       1.218   8.681  21.449  0.00  0.00    +0.000 A 
ATOM     28  C   UNL     1       0.517   9.353  22.449  0.00  0.00    +0.000 A 
ATOM     29  C   UNL     1      -0.418  10.324  22.095  0.00  0.00    +0.000 A 
ATOM     30 CL   UNL     1      -1.284  11.160  23.322  0.00  0.00    +0.000 Cl
ATOM     31  C   UNL     1      -0.649  10.622  20.755  0.00  0.00    +0.000 A 
ATOM     32  C   UNL     1       0.053   9.942  19.756  0.00  0.00    +0.000 A 
ATOM     33 CL   UNL     1      -0.261  10.383  18.115  0.00  0.00    +0.000 Cl
ENDBRANCH  25  26
ENDBRANCH   4  25
TORSDOF 10
ENDMDL
MODEL 6
REMARK VINA RESULT:      -7.5      0.413      1.234
REMARK  Name = 
REMARK  13 active torsions:
REMARK  status: ('A' for Active; 'I' for Inactive)
REMARK    1  A    between atoms: C_1  and  C_2
REMARK    2  A    between atoms: C_2  and  N_3
REMARK    3  A    between atoms: N_3  and  C_4
REMARK    4  A    between atoms: N_3  and  C_6
REMARK    5  A    between atoms: C_4  and  C_5
REMARK    6  A    between atoms: C_6  and  C_7
REMARK    7  A    between atoms: C_7  and  C_8
REMARK    8  A    between atoms: C_8  and  C_9
REMARK    9  A    between atoms: C_9  and  C_10
REMARK   10  A    between atoms: C_9  and  N_11
REMARK   11  A    between atoms: N_11  and  C_12
REMARK   12  A    between atoms: N_15  and  C_16
REMARK   13  A    between atoms: C_16  and  C_17
REMARK                            x       y       z     vdW  Elec       q    Type
REMARK                         _______ _______ _______ _____ _____    ______ ____
ROOT
ATOM      1  C   UNL     1       3.595   5.516  17.928  0.00  0.00    +0.000 A 
ATOM      2  N   UNL     1       3.372   6.596  18.694  0.00  0.00    +0.000 NA
ATOM      3  C   UNL     1       2.443   6.510  19.648  0.00  0.00    +0.000 A 
ATOM      4  N   UNL     1       2.294   7.622  20.453  0.00  0.00    +0.000 N 
ATOM      5  N   UNL     1       1.695   5.428  19.863  0.00  0.00    +0.000 NA
ATOM      6  C   UNL     1       1.965   4.334  19.152  0.00  0.00    +0.000 A 
ATOM      7  C   UNL     1       1.183   3.206  19.365  0.00  0.00    +0.000 A 
ATOM      8  C   UNL     1       1.438   2.001  18.707  0.00  0.00    +0.000 A 
ATOM      9  C   UNL     1       2.502   1.915  17.819  0.00  0.00    +0.000 A 
ATOM     10  C   UNL     1       3.260   3.054  17.548  0.00  0.00    +0.000 A 
ATOM     11  C   UNL     1       2.981   4.283  18.198  0.00  0.00    +0.000 A 
ATOM     12  H   UNL     1       2.727   8.407  19.978  0.00  0.00    +0.000 HD
ENDROOT
BRANCH   1  13
ATOM     13  N   UNL     1       4.422   5.639  16.801  0.00  0.00    +0.000 N 
ATOM     14  H   UNL     1       4.002   5.140  16.021  0.00  0.00    +0.000 HD
BRANCH  13  15
ATOM     15  C   UNL     1       5.882   5.441  16.915  0.00  0.00    +0.000 C 
ATOM     16  C   UNL     1       6.618   6.774  16.967  0.00  0.00    +0.000 C 
BRANCH  15  17
ATOM     17  C   UNL     1       6.435   4.440  15.877  0.00  0.00    +0.000 C 
BRANCH  17  18
ATOM     18  C   UNL     1       6.023   4.639  14.417  0.00  0.00    +0.000 C 
BRANCH  18  19
ATOM     19  C   UNL     1       5.171   3.503  13.852  0.00  0.00    +0.000 C 
BRANCH  19  20
ATOM     20  N   UNL     1       5.428   3.229  12.424  0.00  0.00    +0.000 NA
BRANCH  20  22
ATOM     21  C   UNL     1       3.462   3.079  10.849  0.00  0.00    +0.000 C 
ATOM     22  C   UNL     1       4.453   3.965  11.600  0.00  0.00    +0.000 C 
ENDBRANCH  20  22
BRANCH  20  23
ATOM     23  C   UNL     1       6.826   3.421  12.009  0.00  0.00    +0.000 C 
ATOM     24  C   UNL     1       7.478   2.253  11.272  0.00  0.00    +0.000 C 
ENDBRANCH  20  23
ENDBRANCH  19  20
ENDBRANCH  18  19
ENDBRANCH  17  18
ENDBRANCH  15  17
ENDBRANCH  13  15
ENDBRANCH   1  13
BRANCH   4  25
ATOM     25  C   UNL     1       0.970   7.865  20.979  0.00  0.00    +0.000 C 
BRANCH  25  26
ATOM     26  C   UNL     1       0.598   9.302  20.706  0.00  0.00    +0.000 A 
ATOM     27  C   UNL     1       0.794   9.804  19.407  0.00  0.00    +0.000 A 
ATOM     28  C   UNL     1       0.467  11.120  19.084  0.00  0.00    +0.000 A 
ATOM     29  C   UNL     1      -0.084  11.948  20.060  0.00  0.00    +0.000 A 
ATOM     30 CL   UNL     1      -0.494  13.571  19.667  0.00  0.00    +0.000 Cl
ATOM     31  C   UNL     1      -0.308  11.467  21.346  0.00  0.00    +0.000 A 
ATOM     32  C   UNL     1       0.027  10.148  21.667  0.00  0.00    +0.000 A 
ATOM     33 CL   UNL     1      -0.305   9.606  23.274  0.00  0.00    +0.000 Cl
ENDBRANCH  25  26
ENDBRANCH   4  25
TORSDOF 10
ENDMDL
MODEL 7
REMARK VINA RESULT:      -7.4      2.902      5.483
REMARK  Name = 
REMARK  13 active torsions:
REMARK  status: ('A' for Active; 'I' for Inactive)
REMARK    1  A    between atoms: C_1  and  C_2
REMARK    2  A    between atoms: C_2  and  N_3
REMARK    3  A    between atoms: N_3  and  C_4
REMARK    4  A    between atoms: N_3  and  C_6
REMARK    5  A    between atoms: C_4  and  C_5
REMARK    6  A    between atoms: C_6  and  C_7
REMARK    7  A    between atoms: C_7  and  C_8
REMARK    8  A    between atoms: C_8  and  C_9
REMARK    9  A    between atoms: C_9  and  C_10
REMARK   10  A    between atoms: C_9  and  N_11
REMARK   11  A    between atoms: N_11  and  C_12
REMARK   12  A    between atoms: N_15  and  C_16
REMARK   13  A    between atoms: C_16  and  C_17
REMARK                            x       y       z     vdW  Elec       q    Type
REMARK                         _______ _______ _______ _____ _____    ______ ____
ROOT
ATOM      1  C   UNL     1       4.674   5.758  17.157  0.00  0.00    +0.000 A 
ATOM      2  N   UNL     1       4.302   7.032  17.362  0.00  0.00    +0.000 NA
ATOM      3  C   UNL     1       3.063   7.262  17.800  0.00  0.00    +0.000 A 
ATOM      4  N   UNL     1       2.746   8.581  18.058  0.00  0.00    +0.000 N 
ATOM      5  N   UNL     1       2.157   6.307  18.009  0.00  0.00    +0.000 NA
ATOM      6  C   UNL     1       2.548   5.040  17.875  0.00  0.00    +0.000 A 
ATOM      7  C   UNL     1       1.607   4.040  18.084  0.00  0.00    +0.000 A 
ATOM      8  C   UNL     1       1.948   2.687  18.024  0.00  0.00    +0.000 A 
ATOM      9  C   UNL     1       3.260   2.321  17.755  0.00  0.00    +0.000 A 
ATOM     10  C   UNL     1       4.204   3.310  17.483  0.00  0.00    +0.000 A 
ATOM     11  C   UNL     1       3.848   4.682  17.519  0.00  0.00    +0.000 A 
ATOM     12  H   UNL     1       3.432   9.161  17.590  0.00  0.00    +0.000 HD
ENDROOT
BRANCH   1  13
ATOM     13  N   UNL     1       5.896   5.499  16.518  0.00  0.00    +0.000 N 
ATOM     14  H   UNL     1       5.893   4.548  16.160  0.00  0.00    +0.000 HD
BRANCH  13  15
ATOM     15  C   UNL     1       7.173   5.892  17.151  0.00  0.00    +0.000 C 
ATOM     16  C   UNL     1       7.734   4.765  18.009  0.00  0.00    +0.000 C 
BRANCH  15  17
ATOM     17  C   UNL     1       7.095   7.263  17.859  0.00  0.00    +0.000 C 
BRANCH  17  18
ATOM     18  C   UNL     1       8.173   8.293  17.519  0.00  0.00    +0.000 C 
BRANCH  18  19
ATOM     19  C   UNL     1       8.555   9.202  18.688  0.00  0.00    +0.000 C 
BRANCH  19  20
ATOM     20  N   UNL     1       9.201  10.461  18.267  0.00  0.00    +0.000 NA
BRANCH  20  22
ATOM     21  C   UNL     1       8.638  12.827  17.594  0.00  0.00    +0.000 C 
ATOM     22  C   UNL     1       8.184  11.375  17.718  0.00  0.00    +0.000 C 
ENDBRANCH  20  22
BRANCH  20  23
ATOM     23  C   UNL     1      10.065  11.072  19.288  0.00  0.00    +0.000 C 
ATOM     24  C   UNL     1       9.494  11.142  20.702  0.00  0.00    +0.000 C 
ENDBRANCH  20  23
ENDBRANCH  19  20
ENDBRANCH  18  19
ENDBRANCH  17  18
ENDBRANCH  15  17
ENDBRANCH  13  15
ENDBRANCH   1  13
BRANCH   4  25
ATOM     25  C   UNL     1       1.366   8.964  17.860  0.00  0.00    +0.000 C 
BRANCH  25  26
ATOM     26  C   UNL     1       0.776   9.350  19.194  0.00  0.00    +0.000 A 
ATOM     27  C   UNL     1       1.374   8.838  20.360  0.00  0.00    +0.000 A 
ATOM     28  C   UNL     1       0.886   9.159  21.624  0.00  0.00    +0.000 A 
ATOM     29  C   UNL     1      -0.204  10.020  21.740  0.00  0.00    +0.000 A 
ATOM     30 CL   UNL     1      -0.810  10.424  23.297  0.00  0.00    +0.000 Cl
ATOM     31  C   UNL     1      -0.799  10.557  20.601  0.00  0.00    +0.000 A 
ATOM     32  C   UNL     1      -0.308  10.229  19.335  0.00  0.00    +0.000 A 
ATOM     33 CL   UNL     1      -1.074  10.954  17.966  0.00  0.00    +0.000 Cl
ENDBRANCH  25  26
ENDBRANCH   4  25
TORSDOF 10
ENDMDL
MODEL 8
REMARK VINA RESULT:      -7.3      1.786      2.377
REMARK  Name = 
REMARK  13 active torsions:
REMARK  status: ('A' for Active; 'I' for Inactive)
REMARK    1  A    between atoms: C_1  and  C_2
REMARK    2  A    between atoms: C_2  and  N_3
REMARK    3  A    between atoms: N_3  and  C_4
REMARK    4  A    between atoms: N_3  and  C_6
REMARK    5  A    between atoms: C_4  and  C_5
REMARK    6  A    between atoms: C_6  and  C_7
REMARK    7  A    between atoms: C_7  and  C_8
REMARK    8  A    between atoms: C_8  and  C_9
REMARK    9  A    between atoms: C_9  and  C_10
REMARK   10  A    between atoms: C_9  and  N_11
REMARK   11  A    between atoms: N_11  and  C_12
REMARK   12  A    between atoms: N_15  and  C_16
REMARK   13  A    between atoms: C_16  and  C_17
REMARK                            x       y       z     vdW  Elec       q    Type
REMARK                         _______ _______ _______ _____ _____    ______ ____
ROOT
ATOM      1  C   UNL     1       4.235   4.950  18.333  0.00  0.00    +0.000 A 
ATOM      2  N   UNL     1       4.061   6.206  17.892  0.00  0.00    +0.000 NA
ATOM      3  C   UNL     1       3.037   6.908  18.382  0.00  0.00    +0.000 A 
ATOM      4  N   UNL     1       2.935   8.216  17.950  0.00  0.00    +0.000 N 
ATOM      5  N   UNL     1       2.153   6.424  19.254  0.00  0.00    +0.000 NA
ATOM      6  C   UNL     1       2.367   5.205  19.745  0.00  0.00    +0.000 A 
ATOM      7  C   UNL     1       1.444   4.692  20.648  0.00  0.00    +0.000 A 
ATOM      8  C   UNL     1       1.626   3.448  21.256  0.00  0.00    +0.000 A 
ATOM      9  C   UNL     1       2.756   2.699  20.962  0.00  0.00    +0.000 A 
ATOM     10  C   UNL     1       3.663   3.170  20.013  0.00  0.00    +0.000 A 
ATOM     11  C   UNL     1       3.461   4.422  19.378  0.00  0.00    +0.000 A 
ATOM     12  H   UNL     1       3.500   8.309  17.113  0.00  0.00    +0.000 HD
ENDROOT
BRANCH   1  13
ATOM     13  N   UNL     1       5.180   4.130  17.697  0.00  0.00    +0.000 N 
ATOM     14  H   UNL     1       4.972   3.156  17.903  0.00  0.00    +0.000 HD
BRANCH  13  15
ATOM     15  C   UNL     1       6.621   4.455  17.759  0.00  0.00    +0.000 C 
ATOM     16  C   UNL     1       6.899   5.536  18.795  0.00  0.00    +0.000 C 
BRANCH  15  17
ATOM     17  C   UNL     1       7.236   4.722  16.367  0.00  0.00    +0.000 C 
BRANCH  17  18
ATOM     18  C   UNL     1       6.278   5.095  15.234  0.00  0.00    +0.000 C 
BRANCH  18  19
ATOM     19  C   UNL     1       5.895   3.921  14.333  0.00  0.00    +0.000 C 
BRANCH  19  20
ATOM     20  N   UNL     1       6.714   3.830  13.107  0.00  0.00    +0.000 NA
BRANCH  20  22
ATOM     21  C   UNL     1       4.662   3.353  11.717  0.00  0.00    +0.000 C 
ATOM     22  C   UNL     1       6.061   2.921  12.148  0.00  0.00    +0.000 C 
ENDBRANCH  20  22
BRANCH  20  23
ATOM     23  C   UNL     1       7.098   5.129  12.534  0.00  0.00    +0.000 C 
ATOM     24  C   UNL     1       8.516   5.608  12.838  0.00  0.00    +0.000 C 
ENDBRANCH  20  23
ENDBRANCH  19  20
ENDBRANCH  18  19
ENDBRANCH  17  18
ENDBRANCH  15  17
ENDBRANCH  13  15
ENDBRANCH   1  13
BRANCH   4  25
ATOM     25  C   UNL     1       1.601   8.765  17.867  0.00  0.00    +0.000 C 
BRANCH  25  26
ATOM     26  C   UNL     1       1.581  10.093  18.584  0.00  0.00    +0.000 A 
ATOM     27  C   UNL     1       2.169  11.201  17.949  0.00  0.00    +0.000 A 
ATOM     28  C   UNL     1       2.181  12.458  18.551  0.00  0.00    +0.000 A 
ATOM     29  C   UNL     1       1.580  12.626  19.798  0.00  0.00    +0.000 A 
ATOM     30 CL   UNL     1       1.587  14.174  20.545  0.00  0.00    +0.000 Cl
ATOM     31  C   UNL     1       0.972  11.548  20.436  0.00  0.00    +0.000 A 
ATOM     32  C   UNL     1       0.968  10.289  19.830  0.00  0.00    +0.000 A 
ATOM     33 CL   UNL     1       0.170   9.003  20.663  0.00  0.00    +0.000 Cl
ENDBRANCH  25  26
ENDBRANCH   4  25
TORSDOF 10
ENDMDL
MODEL 9
REMARK VINA RESULT:      -7.2      1.868      2.446
REMARK  Name = 
REMARK  13 active torsions:
REMARK  status: ('A' for Active; 'I' for Inactive)
REMARK    1  A    between atoms: C_1  and  C_2
REMARK    2  A    between atoms: C_2  and  N_3
REMARK    3  A    between atoms: N_3  and  C_4
REMARK    4  A    between atoms: N_3  and  C_6
REMARK    5  A    between atoms: C_4  and  C_5
REMARK    6  A    between atoms: C_6  and  C_7
REMARK    7  A    between atoms: C_7  and  C_8
REMARK    8  A    between atoms: C_8  and  C_9
REMARK    9  A    between atoms: C_9  and  C_10
REMARK   10  A    between atoms: C_9  and  N_11
REMARK   11  A    between atoms: N_11  and  C_12
REMARK   12  A    between atoms: N_15  and  C_16
REMARK   13  A    between atoms: C_16  and  C_17
REMARK                            x       y       z     vdW  Elec       q    Type
REMARK                         _______ _______ _______ _____ _____    ______ ____
ROOT
ATOM      1  C   UNL     1       4.034   5.090  17.960  0.00  0.00    +0.000 A 
ATOM      2  N   UNL     1       3.755   6.347  17.576  0.00  0.00    +0.000 NA
ATOM      3  C   UNL     1       2.846   7.030  18.275  0.00  0.00    +0.000 A 
ATOM      4  N   UNL     1       2.639   8.338  17.885  0.00  0.00    +0.000 N 
ATOM      5  N   UNL     1       2.171   6.528  19.309  0.00  0.00    +0.000 NA
ATOM      6  C   UNL     1       2.499   5.309  19.734  0.00  0.00    +0.000 A 
ATOM      7  C   UNL     1       1.793   4.777  20.805  0.00  0.00    +0.000 A 
ATOM      8  C   UNL     1       2.115   3.533  21.351  0.00  0.00    +0.000 A 
ATOM      9  C   UNL     1       3.169   2.802  20.821  0.00  0.00    +0.000 A 
ATOM     10  C   UNL     1       3.850   3.293  19.707  0.00  0.00    +0.000 A 
ATOM     11  C   UNL     1       3.503   4.545  19.139  0.00  0.00    +0.000 A 
ATOM     12  H   UNL     1       3.014   8.445  16.950  0.00  0.00    +0.000 HD
ENDROOT
BRANCH   1  13
ATOM     13  N   UNL     1       4.836   4.288  17.133  0.00  0.00    +0.000 N 
ATOM     14  H   UNL     1       4.631   3.309  17.315  0.00  0.00    +0.000 HD
BRANCH  13  15
ATOM     15  C   UNL     1       6.278   4.574  16.978  0.00  0.00    +0.000 C 
ATOM     16  C   UNL     1       6.807   5.394  18.148  0.00  0.00    +0.000 C 
BRANCH  15  17
ATOM     17  C   UNL     1       6.631   5.138  15.583  0.00  0.00    +0.000 C 
BRANCH  17  18
ATOM     18  C   UNL     1       6.667   4.152  14.414  0.00  0.00    +0.000 C 
BRANCH  18  19
ATOM     19  C   UNL     1       5.358   4.073  13.629  0.00  0.00    +0.000 C 
BRANCH  19  20
ATOM     20  N   UNL     1       5.478   3.326  12.360  0.00  0.00    +0.000 NA
BRANCH  20  22
ATOM     21  C   UNL     1       3.474   2.904  10.885  0.00  0.00    +0.000 C 
ATOM     22  C   UNL     1       4.538   3.884  11.372  0.00  0.00    +0.000 C 
ENDBRANCH  20  22
BRANCH  20  23
ATOM     23  C   UNL     1       6.855   3.187  11.863  0.00  0.00    +0.000 C 
ATOM     24  C   UNL     1       7.184   1.882  11.142  0.00  0.00    +0.000 C 
ENDBRANCH  20  23
ENDBRANCH  19  20
ENDBRANCH  18  19
ENDBRANCH  17  18
ENDBRANCH  15  17
ENDBRANCH  13  15
ENDBRANCH   1  13
BRANCH   4  25
ATOM     25  C   UNL     1       1.309   8.868  18.088  0.00  0.00    +0.000 C 
BRANCH  25  26
ATOM     26  C   UNL     1       1.412  10.358  18.307  0.00  0.00    +0.000 A 
ATOM     27  C   UNL     1       2.558  11.022  17.833  0.00  0.00    +0.000 A 
ATOM     28  C   UNL     1       2.716  12.397  17.995  0.00  0.00    +0.000 A 
ATOM     29  C   UNL     1       1.711  13.133  18.620  0.00  0.00    +0.000 A 
ATOM     30 CL   UNL     1       1.896  14.831  18.820  0.00  0.00    +0.000 Cl
ATOM     31  C   UNL     1       0.558  12.501  19.077  0.00  0.00    +0.000 A 
ATOM     32  C   UNL     1       0.407  11.121  18.917  0.00  0.00    +0.000 A 
ATOM     33 CL   UNL     1      -1.062  10.406  19.480  0.00  0.00    +0.000 Cl
ENDBRANCH  25  26
ENDBRANCH   4  25
TORSDOF 10
ENDMDL
