MODEL 1
REMARK VINA RESULT:      -7.8      0.000      0.000
REMARK  Name = 
REMARK  6 active torsions:
REMARK  status: ('A' for Active; 'I' for Inactive)
REMARK    1  A    between atoms: C_1  and  C_2
REMARK    2  A    between atoms: C_11  and  C_12
REMARK    3  A    between atoms: N_14  and  C_15
REMARK    4  A    between atoms: C_15  and  C_16
REMARK    5  A    between atoms: C_16  and  O_17
REMARK    6  A    between atoms: O_17  and  C_18
REMARK                            x       y       z     vdW  Elec       q    Type
REMARK                         _______ _______ _______ _____ _____    ______ ____
ROOT
ATOM      1  C   UNL     1       4.610   6.037  18.280  0.00  0.00    +0.000 C 
ATOM      2  O   UNL     1       4.576   6.859  17.367  0.00  0.00    +0.000 OA
ATOM      3  N   UNL     1       5.811   5.580  18.779  0.00  0.00    +0.000 N 
ATOM      4  H   UNL     1       5.806   4.904  19.524  0.00  0.00    +0.000 HD
ENDROOT
BRANCH   1  15
ATOM      5  C   UNL     1       2.169   7.597  19.935  0.00  0.00    +0.000 C 
ATOM      6  C   UNL     1       2.386   6.165  19.612  0.00  0.00    +0.000 A 
ATOM      7  N   UNL     1       1.461   5.262  20.079  0.00  0.00    +0.000 NA
ATOM      8  C   UNL     1       1.901   4.081  19.719  0.00  0.00    +0.000 A 
ATOM      9  C   UNL     1       1.343   2.787  19.932  0.00  0.00    +0.000 A 
ATOM     10  C   UNL     1       1.970   1.701  19.442  0.00  0.00    +0.000 A 
ATOM     11  C   UNL     1       3.208   1.833  18.707  0.00  0.00    +0.000 A 
ATOM     12  F   UNL     1       3.792   0.719  18.227  0.00  0.00    +0.000 F 
ATOM     13  C   UNL     1       3.751   3.043  18.506  0.00  0.00    +0.000 A 
ATOM     14  N   UNL     1       3.102   4.172  19.014  0.00  0.00    +0.000 N 
ATOM     15  C   UNL     1       3.421   5.526  18.929  0.00  0.00    +0.000 A 
ENDBRANCH   1  15
BRANCH   3  16
ATOM     16  C   UNL     1       7.099   5.993  18.229  0.00  0.00    +0.000 C 
BRANCH  16  17
ATOM     17  C   UNL     1       7.543   5.068  17.096  0.00  0.00    +0.000 C 
BRANCH  17  18
ATOM     18  O   UNL     1       7.539   5.753  15.842  0.00  0.00    +0.000 OA
BRANCH  18  19
ATOM     19  C   UNL     1       7.005   5.056  14.786  0.00  0.00    +0.000 A 
ATOM     20  C   UNL     1       7.604   4.907  13.531  0.00  0.00    +0.000 A 
ATOM     21  C   UNL     1       6.963   4.186  12.517  0.00  0.00    +0.000 A 
ATOM     22  C   UNL     1       5.720   3.608  12.759  0.00  0.00    +0.000 A 
ATOM     23 CL   UNL     1       4.930   2.736  11.504  0.00  0.00    +0.000 Cl
ATOM     24  C   UNL     1       5.117   3.738  14.008  0.00  0.00    +0.000 A 
ATOM     25  C   UNL     1       5.760   4.464  15.018  0.00  0.00    +0.000 A 
ENDBRANCH  18  19
ENDBRANCH  17  18
ENDBRANCH  16  17
ENDBRANCH   3  16
TORSDOF 5
ENDMDL
MODEL 2
REMARK VINA RESULT:      -7.7      5.093      6.593
REMARK  Name = 
REMARK  6 active torsions:
REMARK  status: ('A' for Active; 'I' for Inactive)
REMARK    1  A    between atoms: C_1  and  C_2
REMARK    2  A    between atoms: C_11  and  C_12
REMARK    3  A    between atoms: N_14  and  C_15
REMARK    4  A    between atoms: C_15  and  C_16
REMARK    5  A    between atoms: C_16  and  O_17
REMARK    6  A    between atoms: O_17  and  C_18
REMARK                            x       y       z     vdW  Elec       q    Type
REMARK                         _______ _______ _______ _____ _____    ______ ____
ROOT
ATOM      1  C   UNL     1       6.629   5.687  18.651  0.00  0.00    +0.000 C 
ATOM      2  O   UNL     1       7.074   5.356  19.747  0.00  0.00    +0.000 OA
ATOM      3  N   UNL     1       7.170   6.748  17.957  0.00  0.00    +0.000 N 
ATOM      4  H   UNL     1       6.780   6.997  17.062  0.00  0.00    +0.000 HD
ENDROOT
BRANCH   1  15
ATOM      5  C   UNL     1       6.526   4.108  15.714  0.00  0.00    +0.000 C 
ATOM      6  C   UNL     1       5.499   4.304  16.767  0.00  0.00    +0.000 A 
ATOM      7  N   UNL     1       4.246   3.787  16.536  0.00  0.00    +0.000 NA
ATOM      8  C   UNL     1       3.520   4.137  17.569  0.00  0.00    +0.000 A 
ATOM      9  C   UNL     1       2.151   3.873  17.862  0.00  0.00    +0.000 A 
ATOM     10  C   UNL     1       1.617   4.320  19.014  0.00  0.00    +0.000 A 
ATOM     11  C   UNL     1       2.417   5.072  19.955  0.00  0.00    +0.000 A 
ATOM     12  F   UNL     1       1.841   5.488  21.099  0.00  0.00    +0.000 F 
ATOM     13  C   UNL     1       3.704   5.337  19.690  0.00  0.00    +0.000 A 
ATOM     14  N   UNL     1       4.261   4.874  18.494  0.00  0.00    +0.000 N 
ATOM     15  C   UNL     1       5.555   4.978  17.986  0.00  0.00    +0.000 A 
ENDBRANCH   1  15
BRANCH   3  16
ATOM     16  C   UNL     1       8.252   7.568  18.492  0.00  0.00    +0.000 C 
BRANCH  16  17
ATOM     17  C   UNL     1       8.222   8.980  17.906  0.00  0.00    +0.000 C 
BRANCH  17  18
ATOM     18  O   UNL     1       8.575   9.952  18.892  0.00  0.00    +0.000 OA
BRANCH  18  19
ATOM     19  C   UNL     1       9.267  11.044  18.428  0.00  0.00    +0.000 A 
ATOM     20  C   UNL     1       8.689  12.234  17.975  0.00  0.00    +0.000 A 
ATOM     21  C   UNL     1       9.490  13.283  17.507  0.00  0.00    +0.000 A 
ATOM     22  C   UNL     1      10.874  13.142  17.495  0.00  0.00    +0.000 A 
ATOM     23 CL   UNL     1      11.852  14.428  16.904  0.00  0.00    +0.000 Cl
ATOM     24  C   UNL     1      11.465  11.967  17.953  0.00  0.00    +0.000 A 
ATOM     25  C   UNL     1      10.659  10.920  18.417  0.00  0.00    +0.000 A 
ENDBRANCH  18  19
ENDBRANCH  17  18
ENDBRANCH  16  17
ENDBRANCH   3  16
TORSDOF 5
ENDMDL
MODEL 3
REMARK VINA RESULT:      -7.6      4.630      5.951
REMARK  Name = 
REMARK  6 active torsions:
REMARK  status: ('A' for Active; 'I' for Inactive)
REMARK    1  A    between atoms: C_1  and  C_2
REMARK    2  A    between atoms: C_11  and  C_12
REMARK    3  A    between atoms: N_14  and  C_15
REMARK    4  A    between atoms: C_15  and  C_16
REMARK    5  A    between atoms: C_16  and  O_17
REMARK    6  A    between atoms: O_17  and  C_18
REMARK                            x       y       z     vdW  Elec       q    Type
REMARK                         _______ _______ _______ _____ _____    ______ ____
ROOT
ATOM      1  C   UNL     1       5.606   5.817  18.580  0.00  0.00    +0.000 C 
ATOM      2  O   UNL     1       6.207   5.413  19.573  0.00  0.00    +0.000 OA
ATOM      3  N   UNL     1       6.260   6.519  17.591  0.00  0.00    +0.000 N 
ATOM      4  H   UNL     1       5.738   6.840  16.792  0.00  0.00    +0.000 HD
ENDROOT
BRANCH   1  15
ATOM      5  C   UNL     1       3.046   7.881  18.021  0.00  0.00    +0.000 C 
ATOM      6  C   UNL     1       3.124   6.402  18.098  0.00  0.00    +0.000 A 
ATOM      7  N   UNL     1       1.953   5.696  17.949  0.00  0.00    +0.000 NA
ATOM      8  C   UNL     1       2.272   4.436  18.114  0.00  0.00    +0.000 A 
ATOM      9  C   UNL     1       1.459   3.267  18.065  0.00  0.00    +0.000 A 
ATOM     10  C   UNL     1       2.019   2.056  18.243  0.00  0.00    +0.000 A 
ATOM     11  C   UNL     1       3.437   1.929  18.491  0.00  0.00    +0.000 A 
ATOM     12  F   UNL     1       3.953   0.696  18.652  0.00  0.00    +0.000 F 
ATOM     13  C   UNL     1       4.216   3.020  18.550  0.00  0.00    +0.000 A 
ATOM     14  N   UNL     1       3.636   4.279  18.365  0.00  0.00    +0.000 N 
ATOM     15  C   UNL     1       4.202   5.552  18.345  0.00  0.00    +0.000 A 
ENDBRANCH   1  15
BRANCH   3  16
ATOM     16  C   UNL     1       7.674   6.873  17.681  0.00  0.00    +0.000 C 
BRANCH  16  17
ATOM     17  C   UNL     1       7.867   8.389  17.706  0.00  0.00    +0.000 C 
BRANCH  17  18
ATOM     18  O   UNL     1       8.722   8.779  18.783  0.00  0.00    +0.000 OA
BRANCH  18  19
ATOM     19  C   UNL     1       9.008  10.120  18.859  0.00  0.00    +0.000 A 
ATOM     20  C   UNL     1       8.755  11.058  17.853  0.00  0.00    +0.000 A 
ATOM     21  C   UNL     1       9.102  12.403  18.028  0.00  0.00    +0.000 A 
ATOM     22  C   UNL     1       9.702  12.812  19.215  0.00  0.00    +0.000 A 
ATOM     23 CL   UNL     1      10.141  14.463  19.418  0.00  0.00    +0.000 Cl
ATOM     24  C   UNL     1       9.951  11.892  20.230  0.00  0.00    +0.000 A 
ATOM     25  C   UNL     1       9.605  10.547  20.049  0.00  0.00    +0.000 A 
ENDBRANCH  18  19
ENDBRANCH  17  18
ENDBRANCH  16  17
ENDBRANCH   3  16
TORSDOF 5
ENDMDL
MODEL 4
REMARK VINA RESULT:      -7.6      3.558      7.254
REMARK  Name = 
REMARK  6 active torsions:
REMARK  status: ('A' for Active; 'I' for Inactive)
REMARK    1  A    between atoms: C_1  and  C_2
REMARK    2  A    between atoms: C_11  and  C_12
REMARK    3  A    between atoms: N_14  and  C_15
REMARK    4  A    between atoms: C_15  and  C_16
REMARK    5  A    between atoms: C_16  and  O_17
REMARK    6  A    between atoms: O_17  and  C_18
REMARK                            x       y       z     vdW  Elec       q    Type
REMARK                         _______ _______ _______ _____ _____    ______ ____
ROOT
ATOM      1  C   UNL     1       4.594   4.035  16.792  0.00  0.00    +0.000 C 
ATOM      2  O   UNL     1       4.481   2.836  17.037  0.00  0.00    +0.000 OA
ATOM      3  N   UNL     1       3.659   4.942  17.241  0.00  0.00    +0.000 N 
ATOM      4  H   UNL     1       3.779   5.918  17.020  0.00  0.00    +0.000 HD
ENDROOT
BRANCH   1  15
ATOM      5  C   UNL     1       6.988   6.154  17.746  0.00  0.00    +0.000 C 
ATOM      6  C   UNL     1       6.733   5.466  16.456  0.00  0.00    +0.000 A 
ATOM      7  N   UNL     1       7.590   5.733  15.415  0.00  0.00    +0.000 NA
ATOM      8  C   UNL     1       7.126   5.062  14.389  0.00  0.00    +0.000 A 
ATOM      9  C   UNL     1       7.617   4.966  13.055  0.00  0.00    +0.000 A 
ATOM     10  C   UNL     1       6.978   4.184  12.164  0.00  0.00    +0.000 A 
ATOM     11  C   UNL     1       5.796   3.445  12.545  0.00  0.00    +0.000 A 
ATOM     12  F   UNL     1       5.199   2.667  11.623  0.00  0.00    +0.000 F 
ATOM     13  C   UNL     1       5.316   3.532  13.795  0.00  0.00    +0.000 A 
ATOM     14  N   UNL     1       5.977   4.344  14.721  0.00  0.00    +0.000 N 
ATOM     15  C   UNL     1       5.719   4.591  16.069  0.00  0.00    +0.000 A 
ENDBRANCH   1  15
BRANCH   3  16
ATOM     16  C   UNL     1       2.465   4.541  17.978  0.00  0.00    +0.000 C 
BRANCH  16  17
ATOM     17  C   UNL     1       2.372   5.262  19.323  0.00  0.00    +0.000 C 
BRANCH  17  18
ATOM     18  O   UNL     1       3.061   6.514  19.283  0.00  0.00    +0.000 OA
BRANCH  18  19
ATOM     19  C   UNL     1       2.263   7.631  19.301  0.00  0.00    +0.000 A 
ATOM     20  C   UNL     1       1.615   8.143  20.430  0.00  0.00    +0.000 A 
ATOM     21  C   UNL     1       0.810   9.284  20.333  0.00  0.00    +0.000 A 
ATOM     22  C   UNL     1       0.653   9.917  19.103  0.00  0.00    +0.000 A 
ATOM     23 CL   UNL     1      -0.351  11.309  18.988  0.00  0.00    +0.000 Cl
ATOM     24  C   UNL     1       1.300   9.425  17.973  0.00  0.00    +0.000 A 
ATOM     25  C   UNL     1       2.102   8.282  18.073  0.00  0.00    +0.000 A 
ENDBRANCH  18  19
ENDBRANCH  17  18
ENDBRANCH  16  17
ENDBRANCH   3  16
TORSDOF 5
ENDMDL
MODEL 5
REMARK VINA RESULT:      -7.5      4.749      6.158
REMARK  Name = 
REMARK  6 active torsions:
REMARK  status: ('A' for Active; 'I' for Inactive)
REMARK    1  A    between atoms: C_1  and  C_2
REMARK    2  A    between atoms: C_11  and  C_12
REMARK    3  A    between atoms: N_14  and  C_15
REMARK    4  A    between atoms: C_15  and  C_16
REMARK    5  A    between atoms: C_16  and  O_17
REMARK    6  A    between atoms: O_17  and  C_18
REMARK                            x       y       z     vdW  Elec       q    Type
REMARK                         _______ _______ _______ _____ _____    ______ ____
ROOT
ATOM      1  C   UNL     1       5.359   6.495  16.974  0.00  0.00    +0.000 C 
ATOM      2  O   UNL     1       5.649   6.499  15.780  0.00  0.00    +0.000 OA
ATOM      3  N   UNL     1       6.282   6.861  17.930  0.00  0.00    +0.000 N 
ATOM      4  H   UNL     1       6.014   6.843  18.900  0.00  0.00    +0.000 HD
ENDROOT
BRANCH   1  15
ATOM      5  C   UNL     1       2.801   8.428  17.895  0.00  0.00    +0.000 C 
ATOM      6  C   UNL     1       2.956   6.954  17.842  0.00  0.00    +0.000 A 
ATOM      7  N   UNL     1       1.895   6.188  18.265  0.00  0.00    +0.000 NA
ATOM      8  C   UNL     1       2.295   4.944  18.178  0.00  0.00    +0.000 A 
ATOM      9  C   UNL     1       1.609   3.733  18.482  0.00  0.00    +0.000 A 
ATOM     10  C   UNL     1       2.222   2.550  18.288  0.00  0.00    +0.000 A 
ATOM     11  C   UNL     1       3.574   2.496  17.779  0.00  0.00    +0.000 A 
ATOM     12  F   UNL     1       4.142   1.290  17.591  0.00  0.00    +0.000 F 
ATOM     13  C   UNL     1       4.238   3.626  17.497  0.00  0.00    +0.000 A 
ATOM     14  N   UNL     1       3.603   4.856  17.699  0.00  0.00    +0.000 N 
ATOM     15  C   UNL     1       4.038   6.159  17.465  0.00  0.00    +0.000 A 
ENDBRANCH   1  15
BRANCH   3  16
ATOM     16  C   UNL     1       7.657   7.220  17.598  0.00  0.00    +0.000 C 
BRANCH  16  17
ATOM     17  C   UNL     1       7.910   8.712  17.812  0.00  0.00    +0.000 C 
BRANCH  17  18
ATOM     18  O   UNL     1       8.902   8.926  18.818  0.00  0.00    +0.000 OA
BRANCH  18  19
ATOM     19  C   UNL     1       9.169  10.239  19.120  0.00  0.00    +0.000 A 
ATOM     20  C   UNL     1       9.336  10.754  20.409  0.00  0.00    +0.000 A 
ATOM     21  C   UNL     1       9.590  12.116  20.605  0.00  0.00    +0.000 A 
ATOM     22  C   UNL     1       9.680  12.967  19.507  0.00  0.00    +0.000 A 
ATOM     23 CL   UNL     1       9.978  14.643  19.754  0.00  0.00    +0.000 Cl
ATOM     24  C   UNL     1       9.527  12.467  18.216  0.00  0.00    +0.000 A 
ATOM     25  C   UNL     1       9.269  11.103  18.026  0.00  0.00    +0.000 A 
ENDBRANCH  18  19
ENDBRANCH  17  18
ENDBRANCH  16  17
ENDBRANCH   3  16
TORSDOF 5
ENDMDL
MODEL 6
REMARK VINA RESULT:      -7.4      5.152      6.880
REMARK  Name = 
REMARK  6 active torsions:
REMARK  status: ('A' for Active; 'I' for Inactive)
REMARK    1  A    between atoms: C_1  and  C_2
REMARK    2  A    between atoms: C_11  and  C_12
REMARK    3  A    between atoms: N_14  and  C_15
REMARK    4  A    between atoms: C_15  and  C_16
REMARK    5  A    between atoms: C_16  and  O_17
REMARK    6  A    between atoms: O_17  and  C_18
REMARK                            x       y       z     vdW  Elec       q    Type
REMARK                         _______ _______ _______ _____ _____    ______ ____
ROOT
ATOM      1  C   UNL     1       6.511   5.715  18.556  0.00  0.00    +0.000 C 
ATOM      2  O   UNL     1       6.952   5.462  19.675  0.00  0.00    +0.000 OA
ATOM      3  N   UNL     1       7.061   6.717  17.787  0.00  0.00    +0.000 N 
ATOM      4  H   UNL     1       6.674   6.903  16.876  0.00  0.00    +0.000 HD
ENDROOT
BRANCH   1  15
ATOM      5  C   UNL     1       6.362   4.022  15.685  0.00  0.00    +0.000 C 
ATOM      6  C   UNL     1       5.357   4.246  16.754  0.00  0.00    +0.000 A 
ATOM      7  N   UNL     1       4.106   3.706  16.571  0.00  0.00    +0.000 NA
ATOM      8  C   UNL     1       3.398   4.087  17.606  0.00  0.00    +0.000 A 
ATOM      9  C   UNL     1       2.040   3.818  17.940  0.00  0.00    +0.000 A 
ATOM     10  C   UNL     1       1.526   4.303  19.086  0.00  0.00    +0.000 A 
ATOM     11  C   UNL     1       2.337   5.101  19.979  0.00  0.00    +0.000 A 
ATOM     12  F   UNL     1       1.782   5.554  21.119  0.00  0.00    +0.000 F 
ATOM     13  C   UNL     1       3.614   5.371  19.675  0.00  0.00    +0.000 A 
ATOM     14  N   UNL     1       4.150   4.869  18.484  0.00  0.00    +0.000 N 
ATOM     15  C   UNL     1       5.431   4.968  17.944  0.00  0.00    +0.000 A 
ENDBRANCH   1  15
BRANCH   3  16
ATOM     16  C   UNL     1       8.149   7.566  18.262  0.00  0.00    +0.000 C 
BRANCH  16  17
ATOM     17  C   UNL     1       7.859   9.044  17.999  0.00  0.00    +0.000 C 
BRANCH  17  18
ATOM     18  O   UNL     1       9.061   9.759  17.706  0.00  0.00    +0.000 OA
BRANCH  18  19
ATOM     19  C   UNL     1       9.392  10.751  18.596  0.00  0.00    +0.000 A 
ATOM     20  C   UNL     1       9.315  10.646  19.989  0.00  0.00    +0.000 A 
ATOM     21  C   UNL     1       9.665  11.728  20.805  0.00  0.00    +0.000 A 
ATOM     22  C   UNL     1      10.096  12.919  20.227  0.00  0.00    +0.000 A 
ATOM     23 CL   UNL     1      10.509  14.250  21.236  0.00  0.00    +0.000 Cl
ATOM     24  C   UNL     1      10.188  13.035  18.843  0.00  0.00    +0.000 A 
ATOM     25  C   UNL     1       9.834  11.951  18.030  0.00  0.00    +0.000 A 
ENDBRANCH  18  19
ENDBRANCH  17  18
ENDBRANCH  16  17
ENDBRANCH   3  16
TORSDOF 5
ENDMDL
MODEL 7
REMARK VINA RESULT:      -7.4      5.082      6.783
REMARK  Name = 
REMARK  6 active torsions:
REMARK  status: ('A' for Active; 'I' for Inactive)
REMARK    1  A    between atoms: C_1  and  C_2
REMARK    2  A    between atoms: C_11  and  C_12
REMARK    3  A    between atoms: N_14  and  C_15
REMARK    4  A    between atoms: C_15  and  C_16
REMARK    5  A    between atoms: C_16  and  O_17
REMARK    6  A    between atoms: O_17  and  C_18
REMARK                            x       y       z     vdW  Elec       q    Type
REMARK                         _______ _______ _______ _____ _____    ______ ____
ROOT
ATOM      1  C   UNL     1       6.601   5.483  18.271  0.00  0.00    +0.000 C 
ATOM      2  O   UNL     1       7.299   5.016  19.168  0.00  0.00    +0.000 OA
ATOM      3  N   UNL     1       6.914   6.690  17.685  0.00  0.00    +0.000 N 
ATOM      4  H   UNL     1       6.320   7.048  16.955  0.00  0.00    +0.000 HD
ENDROOT
BRANCH   1  15
ATOM      5  C   UNL     1       6.164   3.842  15.399  0.00  0.00    +0.000 C 
ATOM      6  C   UNL     1       5.250   4.099  16.540  0.00  0.00    +0.000 A 
ATOM      7  N   UNL     1       3.964   3.622  16.443  0.00  0.00    +0.000 NA
ATOM      8  C   UNL     1       3.352   4.022  17.530  0.00  0.00    +0.000 A 
ATOM      9  C   UNL     1       2.010   3.813  17.960  0.00  0.00    +0.000 A 
ATOM     10  C   UNL     1       1.604   4.305  19.145  0.00  0.00    +0.000 A 
ATOM     11  C   UNL     1       2.515   5.049  19.986  0.00  0.00    +0.000 A 
ATOM     12  F   UNL     1       2.067   5.512  21.168  0.00  0.00    +0.000 F 
ATOM     13  C   UNL     1       3.780   5.262  19.593  0.00  0.00    +0.000 A 
ATOM     14  N   UNL     1       4.203   4.752  18.361  0.00  0.00    +0.000 N 
ATOM     15  C   UNL     1       5.445   4.798  17.731  0.00  0.00    +0.000 A 
ENDBRANCH   1  15
BRANCH   3  16
ATOM     16  C   UNL     1       8.043   7.507  18.120  0.00  0.00    +0.000 C 
BRANCH  16  17
ATOM     17  C   UNL     1       7.752   8.998  17.945  0.00  0.00    +0.000 C 
BRANCH  17  18
ATOM     18  O   UNL     1       8.944   9.719  17.628  0.00  0.00    +0.000 OA
BRANCH  18  19
ATOM     19  C   UNL     1       9.219  10.796  18.435  0.00  0.00    +0.000 A 
ATOM     20  C   UNL     1       9.260  12.130  18.016  0.00  0.00    +0.000 A 
ATOM     21  C   UNL     1       9.566  13.152  18.922  0.00  0.00    +0.000 A 
ATOM     22  C   UNL     1       9.831  12.840  20.252  0.00  0.00    +0.000 A 
ATOM     23 CL   UNL     1      10.223  14.099  21.358  0.00  0.00    +0.000 Cl
ATOM     24  C   UNL     1       9.783  11.517  20.686  0.00  0.00    +0.000 A 
ATOM     25  C   UNL     1       9.479  10.498  19.776  0.00  0.00    +0.000 A 
ENDBRANCH  18  19
ENDBRANCH  17  18
ENDBRANCH  16  17
ENDBRANCH   3  16
TORSDOF 5
ENDMDL
MODEL 8
REMARK VINA RESULT:      -7.4      0.940      1.368
REMARK  Name = 
REMARK  6 active torsions:
REMARK  status: ('A' for Active; 'I' for Inactive)
REMARK    1  A    between atoms: C_1  and  C_2
REMARK    2  A    between atoms: C_11  and  C_12
REMARK    3  A    between atoms: N_14  and  C_15
REMARK    4  A    between atoms: C_15  and  C_16
REMARK    5  A    between atoms: C_16  and  O_17
REMARK    6  A    between atoms: O_17  and  C_18
REMARK                            x       y       z     vdW  Elec       q    Type
REMARK                         _______ _______ _______ _____ _____    ______ ____
ROOT
ATOM      1  C   UNL     1       3.552   6.809  18.046  0.00  0.00    +0.000 C 
ATOM      2  O   UNL     1       3.255   7.882  17.525  0.00  0.00    +0.000 OA
ATOM      3  N   UNL     1       4.769   6.213  17.797  0.00  0.00    +0.000 N 
ATOM      4  H   UNL     1       4.982   5.332  18.236  0.00  0.00    +0.000 HD
ENDROOT
BRANCH   1  15
ATOM      5  C   UNL     1       1.817   7.925  20.668  0.00  0.00    +0.000 C 
ATOM      6  C   UNL     1       1.949   6.572  20.073  0.00  0.00    +0.000 A 
ATOM      7  N   UNL     1       1.280   5.541  20.688  0.00  0.00    +0.000 NA
ATOM      8  C   UNL     1       1.598   4.459  20.021  0.00  0.00    +0.000 A 
ATOM      9  C   UNL     1       1.194   3.107  20.213  0.00  0.00    +0.000 A 
ATOM     10  C   UNL     1       1.637   2.152  19.374  0.00  0.00    +0.000 A 
ATOM     11  C   UNL     1       2.525   2.483  18.282  0.00  0.00    +0.000 A 
ATOM     12  F   UNL     1       2.932   1.496  17.463  0.00  0.00    +0.000 F 
ATOM     13  C   UNL     1       2.923   3.750  18.093  0.00  0.00    +0.000 A 
ATOM     14  N   UNL     1       2.464   4.743  18.964  0.00  0.00    +0.000 N 
ATOM     15  C   UNL     1       2.690   6.119  18.982  0.00  0.00    +0.000 A 
ENDBRANCH   1  15
BRANCH   3  16
ATOM     16  C   UNL     1       5.748   6.779  16.872  0.00  0.00    +0.000 C 
BRANCH  16  17
ATOM     17  C   UNL     1       7.027   5.942  16.836  0.00  0.00    +0.000 C 
BRANCH  17  18
ATOM     18  O   UNL     1       7.594   5.929  15.524  0.00  0.00    +0.000 OA
BRANCH  18  19
ATOM     19  C   UNL     1       7.000   5.074  14.629  0.00  0.00    +0.000 A 
ATOM     20  C   UNL     1       5.919   4.232  14.910  0.00  0.00    +0.000 A 
ATOM     21  C   UNL     1       5.399   3.387  13.924  0.00  0.00    +0.000 A 
ATOM     22  C   UNL     1       5.958   3.385  12.650  0.00  0.00    +0.000 A 
ATOM     23 CL   UNL     1       5.324   2.332  11.446  0.00  0.00    +0.000 Cl
ATOM     24  C   UNL     1       7.027   4.226  12.351  0.00  0.00    +0.000 A 
ATOM     25  C   UNL     1       7.547   5.068  13.342  0.00  0.00    +0.000 A 
ENDBRANCH  18  19
ENDBRANCH  17  18
ENDBRANCH  16  17
ENDBRANCH   3  16
TORSDOF 5
ENDMDL
MODEL 9
REMARK VINA RESULT:      -7.4      3.204      6.696
REMARK  Name = 
REMARK  6 active torsions:
REMARK  status: ('A' for Active; 'I' for Inactive)
REMARK    1  A    between atoms: C_1  and  C_2
REMARK    2  A    between atoms: C_11  and  C_12
REMARK    3  A    between atoms: N_14  and  C_15
REMARK    4  A    between atoms: C_15  and  C_16
REMARK    5  A    between atoms: C_16  and  O_17
REMARK    6  A    between atoms: O_17  and  C_18
REMARK                            x       y       z     vdW  Elec       q    Type
REMARK                         _______ _______ _______ _____ _____    ______ ____
ROOT
ATOM      1  C   UNL     1       4.748   3.913  16.834  0.00  0.00    +0.000 C 
ATOM      2  O   UNL     1       3.636   3.697  16.358  0.00  0.00    +0.000 OA
ATOM      3  N   UNL     1       5.055   3.528  18.121  0.00  0.00    +0.000 N 
ATOM      4  H   UNL     1       5.975   3.723  18.483  0.00  0.00    +0.000 HD
ENDROOT
BRANCH   1  15
ATOM      5  C   UNL     1       7.036   6.169  17.731  0.00  0.00    +0.000 C 
ATOM      6  C   UNL     1       6.792   5.465  16.448  0.00  0.00    +0.000 A 
ATOM      7  N   UNL     1       7.608   5.779  15.387  0.00  0.00    +0.000 NA
ATOM      8  C   UNL     1       7.160   5.081  14.373  0.00  0.00    +0.000 A 
ATOM      9  C   UNL     1       7.624   5.011  13.028  0.00  0.00    +0.000 A 
ATOM     10  C   UNL     1       7.012   4.192  12.152  0.00  0.00    +0.000 A 
ATOM     11  C   UNL     1       5.883   3.386  12.561  0.00  0.00    +0.000 A 
ATOM     12  F   UNL     1       5.311   2.574  11.653  0.00  0.00    +0.000 F 
ATOM     13  C   UNL     1       5.428   3.447  13.821  0.00  0.00    +0.000 A 
ATOM     14  N   UNL     1       6.062   4.298  14.732  0.00  0.00    +0.000 N 
ATOM     15  C   UNL     1       5.822   4.532  16.085  0.00  0.00    +0.000 A 
ENDBRANCH   1  15
BRANCH   3  16
ATOM     16  C   UNL     1       4.081   2.899  19.008  0.00  0.00    +0.000 C 
BRANCH  16  17
ATOM     17  C   UNL     1       2.937   3.855  19.346  0.00  0.00    +0.000 C 
BRANCH  17  18
ATOM     18  O   UNL     1       3.427   5.035  19.985  0.00  0.00    +0.000 OA
BRANCH  18  19
ATOM     19  C   UNL     1       2.938   6.222  19.496  0.00  0.00    +0.000 A 
ATOM     20  C   UNL     1       3.185   6.732  18.217  0.00  0.00    +0.000 A 
ATOM     21  C   UNL     1       2.648   7.964  17.825  0.00  0.00    +0.000 A 
ATOM     22  C   UNL     1       1.857   8.687  18.713  0.00  0.00    +0.000 A 
ATOM     23 CL   UNL     1       1.213  10.207  18.231  0.00  0.00    +0.000 Cl
ATOM     24  C   UNL     1       1.593   8.186  19.986  0.00  0.00    +0.000 A 
ATOM     25  C   UNL     1       2.136   6.955  20.375  0.00  0.00    +0.000 A 
ENDBRANCH  18  19
ENDBRANCH  17  18
ENDBRANCH  16  17
ENDBRANCH   3  16
TORSDOF 5
ENDMDL
