MODEL 1
REMARK VINA RESULT:      -7.1      0.000      0.000
REMARK  Name = 
REMARK  5 active torsions:
REMARK  status: ('A' for Active; 'I' for Inactive)
REMARK    1  A    between atoms: C_2  and  C_3
REMARK    2  A    between atoms: C_3  and  N_4
REMARK    3  A    between atoms: N_9  and  C_10
REMARK    4  A    between atoms: C_10  and  C_11
REMARK    5  A    between atoms: C_11  and  O_12
REMARK                            x       y       z     vdW  Elec       q    Type
REMARK                         _______ _______ _______ _____ _____    ______ ____
ROOT
ATOM      1  C   UNL     1       3.135   3.417  18.996  0.00  0.00    +0.000 C 
ATOM      2  C   UNL     1       4.464   2.851  19.559  0.00  0.00    +0.000 C 
ATOM      3  O   UNL     1       5.557   3.764  19.401  0.00  0.00    +0.000 OA
ATOM      4  C   UNL     1       5.720   4.224  18.123  0.00  0.00    +0.000 A 
ATOM      5  C   UNL     1       6.962   4.782  17.825  0.00  0.00    +0.000 A 
ATOM      6  C   UNL     1       7.218   5.278  16.548  0.00  0.00    +0.000 A 
ATOM      7  C   UNL     1       6.226   5.219  15.570  0.00  0.00    +0.000 A 
ATOM      8  C   UNL     1       4.973   4.676  15.872  0.00  0.00    +0.000 A 
ATOM      9  C   UNL     1       4.705   4.196  17.161  0.00  0.00    +0.000 A 
ATOM     10  C   UNL     1       3.343   3.637  17.478  0.00  0.00    +0.000 C 
ENDROOT
BRANCH   1  13
ATOM     11  O   UNL     1       0.730   4.678  20.347  0.00  0.00    +0.000 OA
ATOM     12  C   UNL     1       1.794   5.283  20.229  0.00  0.00    +0.000 C 
ATOM     13  N   UNL     1       2.913   4.753  19.646  0.00  0.00    +0.000 N 
ATOM     14  H   UNL     1       3.728   5.360  19.586  0.00  0.00    +0.000 HD
BRANCH  12  15
ATOM     15  C   UNL     1       1.990   6.711  20.744  0.00  0.00    +0.000 C 
BRANCH  15  16
ATOM     16  N   UNL     1       1.965   7.668  19.654  0.00  0.00    +0.000 N 
ATOM     17  C   UNL     1       1.322   8.873  19.635  0.00  0.00    +0.000 A 
ATOM     18  C   UNL     1       1.520   9.391  18.376  0.00  0.00    +0.000 A 
ATOM     19  C   UNL     1       2.337   8.447  17.728  0.00  0.00    +0.000 A 
ATOM     20  N   UNL     1       2.631   7.405  18.511  0.00  0.00    +0.000 NA
ENDBRANCH  15  16
ENDBRANCH  12  15
ENDBRANCH   1  13
BRANCH   1  21
ATOM     21  C   UNL     1       2.044   2.341  19.216  0.00  0.00    +0.000 C 
BRANCH  21  22
ATOM     22  O   UNL     1       0.931   2.480  18.340  0.00  0.00    +0.000 OA
ATOM     23  H   UNL     1       1.235   3.091  17.634  0.00  0.00    +0.000 HD
ENDBRANCH  21  22
ENDBRANCH   1  21
TORSDOF 5
ENDMDL
MODEL 2
REMARK VINA RESULT:      -6.9      1.670      4.377
REMARK  Name = 
REMARK  5 active torsions:
REMARK  status: ('A' for Active; 'I' for Inactive)
REMARK    1  A    between atoms: C_2  and  C_3
REMARK    2  A    between atoms: C_3  and  N_4
REMARK    3  A    between atoms: N_9  and  C_10
REMARK    4  A    between atoms: C_10  and  C_11
REMARK    5  A    between atoms: C_11  and  O_12
REMARK                            x       y       z     vdW  Elec       q    Type
REMARK                         _______ _______ _______ _____ _____    ______ ____
ROOT
ATOM      1  C   UNL     1       4.000   4.080  17.298  0.00  0.00    +0.000 C 
ATOM      2  C   UNL     1       2.834   3.162  16.850  0.00  0.00    +0.000 C 
ATOM      3  O   UNL     1       1.678   3.301  17.687  0.00  0.00    +0.000 OA
ATOM      4  C   UNL     1       1.936   3.154  19.023  0.00  0.00    +0.000 A 
ATOM      5  C   UNL     1       0.834   2.887  19.834  0.00  0.00    +0.000 A 
ATOM      6  C   UNL     1       1.001   2.725  21.209  0.00  0.00    +0.000 A 
ATOM      7  C   UNL     1       2.272   2.835  21.770  0.00  0.00    +0.000 A 
ATOM      8  C   UNL     1       3.375   3.121  20.960  0.00  0.00    +0.000 A 
ATOM      9  C   UNL     1       3.209   3.307  19.581  0.00  0.00    +0.000 A 
ATOM     10  C   UNL     1       4.403   3.638  18.726  0.00  0.00    +0.000 C 
ENDROOT
BRANCH   1  13
ATOM     11  O   UNL     1       5.316   6.778  17.732  0.00  0.00    +0.000 OA
ATOM     12  C   UNL     1       4.100   6.670  17.584  0.00  0.00    +0.000 C 
ATOM     13  N   UNL     1       3.460   5.480  17.366  0.00  0.00    +0.000 N 
ATOM     14  H   UNL     1       2.446   5.515  17.281  0.00  0.00    +0.000 HD
BRANCH  12  15
ATOM     15  C   UNL     1       3.158   7.875  17.611  0.00  0.00    +0.000 C 
BRANCH  15  16
ATOM     16  N   UNL     1       2.392   7.913  18.843  0.00  0.00    +0.000 N 
ATOM     17  C   UNL     1       1.574   8.920  19.270  0.00  0.00    +0.000 A 
ATOM     18  C   UNL     1       1.125   8.544  20.514  0.00  0.00    +0.000 A 
ATOM     19  C   UNL     1       1.689   7.273  20.727  0.00  0.00    +0.000 A 
ATOM     20  N   UNL     1       2.443   6.873  19.700  0.00  0.00    +0.000 NA
ENDBRANCH  15  16
ENDBRANCH  12  15
ENDBRANCH   1  13
BRANCH   1  21
ATOM     21  C   UNL     1       5.182   3.831  16.329  0.00  0.00    +0.000 C 
BRANCH  21  22
ATOM     22  O   UNL     1       6.456   4.035  16.930  0.00  0.00    +0.000 OA
ATOM     23  H   UNL     1       7.038   3.350  16.538  0.00  0.00    +0.000 HD
ENDBRANCH  21  22
ENDBRANCH   1  21
TORSDOF 5
ENDMDL
MODEL 3
REMARK VINA RESULT:      -6.9      3.227      6.368
REMARK  Name = 
REMARK  5 active torsions:
REMARK  status: ('A' for Active; 'I' for Inactive)
REMARK    1  A    between atoms: C_2  and  C_3
REMARK    2  A    between atoms: C_3  and  N_4
REMARK    3  A    between atoms: N_9  and  C_10
REMARK    4  A    between atoms: C_10  and  C_11
REMARK    5  A    between atoms: C_11  and  O_12
REMARK                            x       y       z     vdW  Elec       q    Type
REMARK                         _______ _______ _______ _____ _____    ______ ____
ROOT
ATOM      1  C   UNL     1       5.368   5.957  17.904  0.00  0.00    +0.000 C 
ATOM      2  C   UNL     1       6.023   5.233  19.107  0.00  0.00    +0.000 C 
ATOM      3  O   UNL     1       5.423   3.957  19.369  0.00  0.00    +0.000 OA
ATOM      4  C   UNL     1       4.062   3.997  19.499  0.00  0.00    +0.000 A 
ATOM      5  C   UNL     1       3.474   2.901  20.129  0.00  0.00    +0.000 A 
ATOM      6  C   UNL     1       2.091   2.855  20.305  0.00  0.00    +0.000 A 
ATOM      7  C   UNL     1       1.298   3.904  19.844  0.00  0.00    +0.000 A 
ATOM      8  C   UNL     1       1.885   4.996  19.196  0.00  0.00    +0.000 A 
ATOM      9  C   UNL     1       3.272   5.037  18.998  0.00  0.00    +0.000 A 
ATOM     10  C   UNL     1       3.886   6.207  18.276  0.00  0.00    +0.000 C 
ENDROOT
BRANCH   1  13
ATOM     11  O   UNL     1       7.624   4.417  16.587  0.00  0.00    +0.000 OA
ATOM     12  C   UNL     1       6.470   4.352  16.170  0.00  0.00    +0.000 C 
ATOM     13  N   UNL     1       5.414   5.010  16.738  0.00  0.00    +0.000 N 
ATOM     14  H   UNL     1       4.508   4.896  16.289  0.00  0.00    +0.000 HD
BRANCH  12  15
ATOM     15  C   UNL     1       6.080   3.500  14.959  0.00  0.00    +0.000 C 
BRANCH  15  16
ATOM     16  N   UNL     1       6.622   4.055  13.733  0.00  0.00    +0.000 N 
ATOM     17  C   UNL     1       6.471   3.556  12.471  0.00  0.00    +0.000 A 
ATOM     18  C   UNL     1       7.216   4.369  11.648  0.00  0.00    +0.000 A 
ATOM     19  C   UNL     1       7.736   5.358  12.502  0.00  0.00    +0.000 A 
ATOM     20  N   UNL     1       7.357   5.185  13.772  0.00  0.00    +0.000 NA
ENDBRANCH  15  16
ENDBRANCH  12  15
ENDBRANCH   1  13
BRANCH   1  21
ATOM     21  C   UNL     1       6.091   7.316  17.732  0.00  0.00    +0.000 C 
BRANCH  21  22
ATOM     22  O   UNL     1       7.509   7.209  17.785  0.00  0.00    +0.000 OA
ATOM     23  H   UNL     1       7.821   8.086  18.099  0.00  0.00    +0.000 HD
ENDBRANCH  21  22
ENDBRANCH   1  21
TORSDOF 5
ENDMDL
MODEL 4
REMARK VINA RESULT:      -6.8      2.946      5.403
REMARK  Name = 
REMARK  5 active torsions:
REMARK  status: ('A' for Active; 'I' for Inactive)
REMARK    1  A    between atoms: C_2  and  C_3
REMARK    2  A    between atoms: C_3  and  N_4
REMARK    3  A    between atoms: N_9  and  C_10
REMARK    4  A    between atoms: C_10  and  C_11
REMARK    5  A    between atoms: C_11  and  O_12
REMARK                            x       y       z     vdW  Elec       q    Type
REMARK                         _______ _______ _______ _____ _____    ______ ____
ROOT
ATOM      1  C   UNL     1       4.933   4.610  17.218  0.00  0.00    +0.000 C 
ATOM      2  C   UNL     1       3.679   5.521  17.237  0.00  0.00    +0.000 C 
ATOM      3  O   UNL     1       3.276   5.869  18.568  0.00  0.00    +0.000 OA
ATOM      4  C   UNL     1       3.118   4.795  19.401  0.00  0.00    +0.000 A 
ATOM      5  C   UNL     1       2.367   5.019  20.554  0.00  0.00    +0.000 A 
ATOM      6  C   UNL     1       2.155   3.983  21.462  0.00  0.00    +0.000 A 
ATOM      7  C   UNL     1       2.699   2.723  21.216  0.00  0.00    +0.000 A 
ATOM      8  C   UNL     1       3.467   2.502  20.069  0.00  0.00    +0.000 A 
ATOM      9  C   UNL     1       3.701   3.546  19.165  0.00  0.00    +0.000 A 
ATOM     10  C   UNL     1       4.551   3.298  17.946  0.00  0.00    +0.000 C 
ENDROOT
BRANCH   1  13
ATOM     11  O   UNL     1       7.952   4.343  17.299  0.00  0.00    +0.000 OA
ATOM     12  C   UNL     1       7.356   5.133  18.026  0.00  0.00    +0.000 C 
ATOM     13  N   UNL     1       5.998   5.306  18.016  0.00  0.00    +0.000 N 
ATOM     14  H   UNL     1       5.617   5.975  18.681  0.00  0.00    +0.000 HD
BRANCH  12  15
ATOM     15  C   UNL     1       8.079   6.037  19.028  0.00  0.00    +0.000 C 
BRANCH  15  16
ATOM     16  N   UNL     1       8.143   7.405  18.548  0.00  0.00    +0.000 N 
ATOM     17  C   UNL     1       8.850   8.435  19.098  0.00  0.00    +0.000 A 
ATOM     18  C   UNL     1       8.548   9.548  18.348  0.00  0.00    +0.000 A 
ATOM     19  C   UNL     1       7.692   9.074  17.338  0.00  0.00    +0.000 A 
ATOM     20  N   UNL     1       7.460   7.762  17.441  0.00  0.00    +0.000 NA
ENDBRANCH  15  16
ENDBRANCH  12  15
ENDBRANCH   1  13
BRANCH   1  21
ATOM     21  C   UNL     1       5.257   4.300  15.735  0.00  0.00    +0.000 C 
BRANCH  21  22
ATOM     22  O   UNL     1       6.029   3.117  15.563  0.00  0.00    +0.000 OA
ATOM     23  H   UNL     1       6.529   3.013  16.401  0.00  0.00    +0.000 HD
ENDBRANCH  21  22
ENDBRANCH   1  21
TORSDOF 5
ENDMDL
MODEL 5
REMARK VINA RESULT:      -6.7      1.338      1.704
REMARK  Name = 
REMARK  5 active torsions:
REMARK  status: ('A' for Active; 'I' for Inactive)
REMARK    1  A    between atoms: C_2  and  C_3
REMARK    2  A    between atoms: C_3  and  N_4
REMARK    3  A    between atoms: N_9  and  C_10
REMARK    4  A    between atoms: C_10  and  C_11
REMARK    5  A    between atoms: C_11  and  O_12
REMARK                            x       y       z     vdW  Elec       q    Type
REMARK                         _______ _______ _______ _____ _____    ______ ____
ROOT
ATOM      1  C   UNL     1       3.700   4.096  18.245  0.00  0.00    +0.000 C 
ATOM      2  C   UNL     1       4.875   3.249  18.796  0.00  0.00    +0.000 C 
ATOM      3  O   UNL     1       5.844   4.045  19.490  0.00  0.00    +0.000 OA
ATOM      4  C   UNL     1       6.302   5.116  18.773  0.00  0.00    +0.000 A 
ATOM      5  C   UNL     1       7.497   5.683  19.215  0.00  0.00    +0.000 A 
ATOM      6  C   UNL     1       8.039   6.780  18.547  0.00  0.00    +0.000 A 
ATOM      7  C   UNL     1       7.381   7.312  17.440  0.00  0.00    +0.000 A 
ATOM      8  C   UNL     1       6.172   6.756  17.007  0.00  0.00    +0.000 A 
ATOM      9  C   UNL     1       5.613   5.667  17.688  0.00  0.00    +0.000 A 
ATOM     10  C   UNL     1       4.299   5.095  17.225  0.00  0.00    +0.000 C 
ENDROOT
BRANCH   1  13
ATOM     11  O   UNL     1       0.979   4.115  19.584  0.00  0.00    +0.000 OA
ATOM     12  C   UNL     1       1.885   4.856  19.957  0.00  0.00    +0.000 C 
ATOM     13  N   UNL     1       3.136   4.874  19.400  0.00  0.00    +0.000 N 
ATOM     14  H   UNL     1       3.796   5.548  19.779  0.00  0.00    +0.000 HD
BRANCH  12  15
ATOM     15  C   UNL     1       1.718   5.845  21.112  0.00  0.00    +0.000 C 
BRANCH  15  16
ATOM     16  N   UNL     1       1.555   7.201  20.621  0.00  0.00    +0.000 N 
ATOM     17  C   UNL     1       0.881   8.219  21.233  0.00  0.00    +0.000 A 
ATOM     18  C   UNL     1       0.935   9.286  20.366  0.00  0.00    +0.000 A 
ATOM     19  C   UNL     1       1.707   8.827  19.284  0.00  0.00    +0.000 A 
ATOM     20  N   UNL     1       2.108   7.563  19.446  0.00  0.00    +0.000 NA
ENDBRANCH  15  16
ENDBRANCH  12  15
ENDBRANCH   1  13
BRANCH   1  21
ATOM     21  C   UNL     1       2.736   3.129  17.513  0.00  0.00    +0.000 C 
BRANCH  21  22
ATOM     22  O   UNL     1       3.003   1.758  17.782  0.00  0.00    +0.000 OA
ATOM     23  H   UNL     1       2.975   1.677  18.760  0.00  0.00    +0.000 HD
ENDBRANCH  21  22
ENDBRANCH   1  21
TORSDOF 5
ENDMDL
MODEL 6
REMARK VINA RESULT:      -6.7      1.585      1.910
REMARK  Name = 
REMARK  5 active torsions:
REMARK  status: ('A' for Active; 'I' for Inactive)
REMARK    1  A    between atoms: C_2  and  C_3
REMARK    2  A    between atoms: C_3  and  N_4
REMARK    3  A    between atoms: N_9  and  C_10
REMARK    4  A    between atoms: C_10  and  C_11
REMARK    5  A    between atoms: C_11  and  O_12
REMARK                            x       y       z     vdW  Elec       q    Type
REMARK                         _______ _______ _______ _____ _____    ______ ____
ROOT
ATOM      1  C   UNL     1       3.001   5.205  18.342  0.00  0.00    +0.000 C 
ATOM      2  C   UNL     1       3.818   4.128  19.100  0.00  0.00    +0.000 C 
ATOM      3  O   UNL     1       4.967   4.678  19.759  0.00  0.00    +0.000 OA
ATOM      4  C   UNL     1       5.772   5.426  18.945  0.00  0.00    +0.000 A 
ATOM      5  C   UNL     1       7.069   5.651  19.405  0.00  0.00    +0.000 A 
ATOM      6  C   UNL     1       7.960   6.405  18.642  0.00  0.00    +0.000 A 
ATOM      7  C   UNL     1       7.550   6.938  17.421  0.00  0.00    +0.000 A 
ATOM      8  C   UNL     1       6.243   6.729  16.968  0.00  0.00    +0.000 A 
ATOM      9  C   UNL     1       5.338   5.990  17.741  0.00  0.00    +0.000 A 
ATOM     10  C   UNL     1       3.927   5.794  17.251  0.00  0.00    +0.000 C 
ENDROOT
BRANCH   1  13
ATOM     11  O   UNL     1       1.103   5.343  20.704  0.00  0.00    +0.000 OA
ATOM     12  C   UNL     1       1.791   6.306  20.374  0.00  0.00    +0.000 C 
ATOM     13  N   UNL     1       2.676   6.290  19.329  0.00  0.00    +0.000 N 
ATOM     14  H   UNL     1       3.174   7.157  19.138  0.00  0.00    +0.000 HD
BRANCH  12  15
ATOM     15  C   UNL     1       1.745   7.644  21.115  0.00  0.00    +0.000 C 
BRANCH  15  16
ATOM     16  N   UNL     1       1.085   8.661  20.318  0.00  0.00    +0.000 N 
ATOM     17  C   UNL     1       0.001   9.409  20.678  0.00  0.00    +0.000 A 
ATOM     18  C   UNL     1      -0.310  10.181  19.583  0.00  0.00    +0.000 A 
ATOM     19  C   UNL     1       0.676   9.862  18.632  0.00  0.00    +0.000 A 
ATOM     20  N   UNL     1       1.544   8.953  19.084  0.00  0.00    +0.000 NA
ENDBRANCH  15  16
ENDBRANCH  12  15
ENDBRANCH   1  13
BRANCH   1  21
ATOM     21  C   UNL     1       1.804   4.488  17.669  0.00  0.00    +0.000 C 
BRANCH  21  22
ATOM     22  O   UNL     1       1.308   3.390  18.426  0.00  0.00    +0.000 OA
ATOM     23  H   UNL     1       0.780   3.792  19.148  0.00  0.00    +0.000 HD
ENDBRANCH  21  22
ENDBRANCH   1  21
TORSDOF 5
ENDMDL
MODEL 7
REMARK VINA RESULT:      -6.6      2.895      5.815
REMARK  Name = 
REMARK  5 active torsions:
REMARK  status: ('A' for Active; 'I' for Inactive)
REMARK    1  A    between atoms: C_2  and  C_3
REMARK    2  A    between atoms: C_3  and  N_4
REMARK    3  A    between atoms: N_9  and  C_10
REMARK    4  A    between atoms: C_10  and  C_11
REMARK    5  A    between atoms: C_11  and  O_12
REMARK                            x       y       z     vdW  Elec       q    Type
REMARK                         _______ _______ _______ _____ _____    ______ ____
ROOT
ATOM      1  C   UNL     1       3.503   6.304  17.986  0.00  0.00    +0.000 C 
ATOM      2  C   UNL     1       3.574   6.437  19.528  0.00  0.00    +0.000 C 
ATOM      3  O   UNL     1       3.706   5.167  20.181  0.00  0.00    +0.000 OA
ATOM      4  C   UNL     1       2.763   4.248  19.807  0.00  0.00    +0.000 A 
ATOM      5  C   UNL     1       2.592   3.162  20.665  0.00  0.00    +0.000 A 
ATOM      6  C   UNL     1       1.655   2.175  20.365  0.00  0.00    +0.000 A 
ATOM      7  C   UNL     1       0.893   2.273  19.202  0.00  0.00    +0.000 A 
ATOM      8  C   UNL     1       1.076   3.352  18.331  0.00  0.00    +0.000 A 
ATOM      9  C   UNL     1       2.032   4.336  18.618  0.00  0.00    +0.000 A 
ATOM     10  C   UNL     1       2.235   5.479  17.659  0.00  0.00    +0.000 C 
ENDROOT
BRANCH   1  13
ATOM     11  O   UNL     1       6.404   7.064  17.530  0.00  0.00    +0.000 OA
ATOM     12  C   UNL     1       6.001   5.918  17.344  0.00  0.00    +0.000 C 
ATOM     13  N   UNL     1       4.709   5.519  17.554  0.00  0.00    +0.000 N 
ATOM     14  H   UNL     1       4.490   4.547  17.344  0.00  0.00    +0.000 HD
BRANCH  12  15
ATOM     15  C   UNL     1       6.919   4.790  16.868  0.00  0.00    +0.000 C 
BRANCH  15  16
ATOM     16  N   UNL     1       6.831   4.616  15.430  0.00  0.00    +0.000 N 
ATOM     17  C   UNL     1       6.011   3.755  14.757  0.00  0.00    +0.000 A 
ATOM     18  C   UNL     1       6.329   3.889  13.426  0.00  0.00    +0.000 A 
ATOM     19  C   UNL     1       7.315   4.892  13.394  0.00  0.00    +0.000 A 
ATOM     20  N   UNL     1       7.608   5.355  14.613  0.00  0.00    +0.000 NA
ENDBRANCH  15  16
ENDBRANCH  12  15
ENDBRANCH   1  13
BRANCH   1  21
ATOM     21  C   UNL     1       3.352   7.732  17.406  0.00  0.00    +0.000 C 
BRANCH  21  22
ATOM     22  O   UNL     1       2.395   8.524  18.100  0.00  0.00    +0.000 OA
ATOM     23  H   UNL     1       2.917   9.222  18.551  0.00  0.00    +0.000 HD
ENDBRANCH  21  22
ENDBRANCH   1  21
TORSDOF 5
ENDMDL
MODEL 8
REMARK VINA RESULT:      -6.6      2.577      5.322
REMARK  Name = 
REMARK  5 active torsions:
REMARK  status: ('A' for Active; 'I' for Inactive)
REMARK    1  A    between atoms: C_2  and  C_3
REMARK    2  A    between atoms: C_3  and  N_4
REMARK    3  A    between atoms: N_9  and  C_10
REMARK    4  A    between atoms: C_10  and  C_11
REMARK    5  A    between atoms: C_11  and  O_12
REMARK                            x       y       z     vdW  Elec       q    Type
REMARK                         _______ _______ _______ _____ _____    ______ ____
ROOT
ATOM      1  C   UNL     1       2.839   6.704  18.279  0.00  0.00    +0.000 C 
ATOM      2  C   UNL     1       2.450   7.023  19.744  0.00  0.00    +0.000 C 
ATOM      3  O   UNL     1       2.669   5.912  20.622  0.00  0.00    +0.000 OA
ATOM      4  C   UNL     1       2.089   4.746  20.201  0.00  0.00    +0.000 A 
ATOM      5  C   UNL     1       1.928   3.757  21.170  0.00  0.00    +0.000 A 
ATOM      6  C   UNL     1       1.348   2.535  20.832  0.00  0.00    +0.000 A 
ATOM      7  C   UNL     1       0.934   2.303  19.521  0.00  0.00    +0.000 A 
ATOM      8  C   UNL     1       1.113   3.288  18.544  0.00  0.00    +0.000 A 
ATOM      9  C   UNL     1       1.715   4.509  18.875  0.00  0.00    +0.000 A 
ATOM     10  C   UNL     1       1.922   5.550  17.806  0.00  0.00    +0.000 C 
ENDROOT
BRANCH   1  13
ATOM     11  O   UNL     1       4.400   4.859  16.446  0.00  0.00    +0.000 OA
ATOM     12  C   UNL     1       4.911   5.357  17.447  0.00  0.00    +0.000 C 
ATOM     13  N   UNL     1       4.258   6.209  18.295  0.00  0.00    +0.000 N 
ATOM     14  H   UNL     1       4.780   6.539  19.104  0.00  0.00    +0.000 HD
BRANCH  12  15
ATOM     15  C   UNL     1       6.362   5.086  17.851  0.00  0.00    +0.000 C 
BRANCH  15  16
ATOM     16  N   UNL     1       7.120   6.320  17.940  0.00  0.00    +0.000 N 
ATOM     17  C   UNL     1       8.087   6.625  18.855  0.00  0.00    +0.000 A 
ATOM     18  C   UNL     1       8.465   7.921  18.592  0.00  0.00    +0.000 A 
ATOM     19  C   UNL     1       7.705   8.292  17.468  0.00  0.00    +0.000 A 
ATOM     20  N   UNL     1       6.900   7.311  17.052  0.00  0.00    +0.000 NA
ENDBRANCH  15  16
ENDBRANCH  12  15
ENDBRANCH   1  13
BRANCH   1  21
ATOM     21  C   UNL     1       2.548   7.971  17.436  0.00  0.00    +0.000 C 
BRANCH  21  22
ATOM     22  O   UNL     1       1.350   8.637  17.818  0.00  0.00    +0.000 OA
ATOM     23  H   UNL     1       1.272   8.492  18.786  0.00  0.00    +0.000 HD
ENDBRANCH  21  22
ENDBRANCH   1  21
TORSDOF 5
ENDMDL
MODEL 9
REMARK VINA RESULT:      -6.6      1.485      1.976
REMARK  Name = 
REMARK  5 active torsions:
REMARK  status: ('A' for Active; 'I' for Inactive)
REMARK    1  A    between atoms: C_2  and  C_3
REMARK    2  A    between atoms: C_3  and  N_4
REMARK    3  A    between atoms: N_9  and  C_10
REMARK    4  A    between atoms: C_10  and  C_11
REMARK    5  A    between atoms: C_11  and  O_12
REMARK                            x       y       z     vdW  Elec       q    Type
REMARK                         _______ _______ _______ _____ _____    ______ ____
ROOT
ATOM      1  C   UNL     1       2.570   3.976  18.696  0.00  0.00    +0.000 C 
ATOM      2  C   UNL     1       3.693   3.442  19.620  0.00  0.00    +0.000 C 
ATOM      3  O   UNL     1       4.911   4.185  19.486  0.00  0.00    +0.000 OA
ATOM      4  C   UNL     1       5.351   4.306  18.196  0.00  0.00    +0.000 A 
ATOM      5  C   UNL     1       6.690   4.658  18.035  0.00  0.00    +0.000 A 
ATOM      6  C   UNL     1       7.225   4.806  16.756  0.00  0.00    +0.000 A 
ATOM      7  C   UNL     1       6.416   4.606  15.638  0.00  0.00    +0.000 A 
ATOM      8  C   UNL     1       5.068   4.271  15.799  0.00  0.00    +0.000 A 
ATOM      9  C   UNL     1       4.521   4.142  17.082  0.00  0.00    +0.000 A 
ATOM     10  C   UNL     1       3.061   3.804  17.238  0.00  0.00    +0.000 C 
ENDROOT
BRANCH   1  13
ATOM     11  O   UNL     1       1.743   5.524  21.169  0.00  0.00    +0.000 OA
ATOM     12  C   UNL     1       2.027   6.094  20.118  0.00  0.00    +0.000 C 
ATOM     13  N   UNL     1       2.424   5.444  18.980  0.00  0.00    +0.000 N 
ATOM     14  H   UNL     1       2.611   6.023  18.164  0.00  0.00    +0.000 HD
BRANCH  12  15
ATOM     15  C   UNL     1       1.982   7.616  19.968  0.00  0.00    +0.000 C 
BRANCH  15  16
ATOM     16  N   UNL     1       1.178   8.222  21.013  0.00  0.00    +0.000 N 
ATOM     17  C   UNL     1      -0.185   8.234  21.095  0.00  0.00    +0.000 A 
ATOM     18  C   UNL     1      -0.493   8.980  22.209  0.00  0.00    +0.000 A 
ATOM     19  C   UNL     1       0.754   9.330  22.758  0.00  0.00    +0.000 A 
ATOM     20  N   UNL     1       1.777   8.849  22.045  0.00  0.00    +0.000 NA
ENDBRANCH  15  16
ENDBRANCH  12  15
ENDBRANCH   1  13
BRANCH   1  21
ATOM     21  C   UNL     1       1.320   3.090  18.926  0.00  0.00    +0.000 C 
BRANCH  21  22
ATOM     22  O   UNL     1       1.561   1.707  18.695  0.00  0.00    +0.000 OA
ATOM     23  H   UNL     1       2.338   1.484  19.253  0.00  0.00    +0.000 HD
ENDBRANCH  21  22
ENDBRANCH   1  21
TORSDOF 5
ENDMDL
