MODEL 1
REMARK VINA RESULT:      -7.7      0.000      0.000
REMARK  Name = 
REMARK  7 active torsions:
REMARK  status: ('A' for Active; 'I' for Inactive)
REMARK    1  A    between atoms: C_1  and  O_2
REMARK    2  A    between atoms: O_2  and  C_3
REMARK    3  A    between atoms: C_6  and  C_7
REMARK    4  A    between atoms: C_12  and  C_14
REMARK    5  A    between atoms: N_19  and  S_20
REMARK    6  A    between atoms: S_20  and  C_23
REMARK    7  A    between atoms: C_28  and  C_29
REMARK                            x       y       z     vdW  Elec       q    Type
REMARK                         _______ _______ _______ _____ _____    ______ ____
ROOT
ATOM      1  C   UNL     1       2.865   6.492  18.774  0.00  0.00    +0.000 A 
ATOM      2  C   UNL     1       2.274   5.633  19.684  0.00  0.00    +0.000 A 
ATOM      3  S   UNL     1       1.322   6.535  20.803  0.00  0.00    +0.000 S 
ATOM      4  C   UNL     1       1.702   7.953  19.940  0.00  0.00    +0.000 A 
ATOM      5  N   UNL     1       1.085   9.094  20.372  0.00  0.00    +0.000 N 
ATOM      6  C   UNL     1       1.047  10.213  19.566  0.00  0.00    +0.000 C 
ATOM      7  O   UNL     1       1.526  10.282  18.433  0.00  0.00    +0.000 OA
ATOM      8  N   UNL     1       2.530   7.820  18.941  0.00  0.00    +0.000 NA
ATOM      9  H   UNL     1       0.479   9.023  21.187  0.00  0.00    +0.000 HD
ENDROOT
BRANCH   1  13
ATOM     10  C   UNL     1       5.495   5.393  15.592  0.00  0.00    +0.000 A 
ATOM     11  C   UNL     1       5.213   6.732  15.855  0.00  0.00    +0.000 A 
ATOM     12  C   UNL     1       4.357   7.080  16.902  0.00  0.00    +0.000 A 
ATOM     13  C   UNL     1       3.742   6.091  17.683  0.00  0.00    +0.000 A 
ATOM     14  C   UNL     1       4.014   4.748  17.402  0.00  0.00    +0.000 A 
ATOM     15  C   UNL     1       4.885   4.400  16.360  0.00  0.00    +0.000 A 
BRANCH  10  17
ATOM     16  C   UNL     1       6.122   3.975  13.813  0.00  0.00    +0.000 C 
ATOM     17  O   UNL     1       6.352   5.170  14.551  0.00  0.00    +0.000 OA
ENDBRANCH  10  17
ENDBRANCH   1  13
BRANCH   6  18
ATOM     18  C   UNL     1       0.299  11.410  20.181  0.00  0.00    +0.000 C 
ATOM     19  C   UNL     1       1.282  12.328  20.938  0.00  0.00    +0.000 C 
ATOM     20  C   UNL     1       2.182  13.153  20.021  0.00  0.00    +0.000 C 
ATOM     21  C   UNL     1       1.343  13.918  19.008  0.00  0.00    +0.000 C 
ATOM     22  C   UNL     1       0.348  13.028  18.263  0.00  0.00    +0.000 C 
ATOM     23  N   UNL     1      -0.512  12.230  19.197  0.00  0.00    +0.000 NA
BRANCH  23  24
ATOM     24  S   UNL     1      -1.792  11.366  18.412  0.00  0.00    +0.000 S 
ATOM     25  O   UNL     1      -1.744  11.668  17.002  0.00  0.00    +0.000 OA
ATOM     26  O   UNL     1      -1.695   9.987  18.890  0.00  0.00    +0.000 OA
BRANCH  24  27
ATOM     27  C   UNL     1      -3.341  11.988  19.054  0.00  0.00    +0.000 A 
ATOM     28  C   UNL     1      -3.341  12.667  20.283  0.00  0.00    +0.000 A 
ATOM     29  C   UNL     1      -4.549  13.036  20.882  0.00  0.00    +0.000 A 
ATOM     30  C   UNL     1      -5.760  12.752  20.258  0.00  0.00    +0.000 A 
ATOM     31  C   UNL     1      -5.766  12.114  19.019  0.00  0.00    +0.000 A 
ATOM     32  C   UNL     1      -4.567  11.707  18.403  0.00  0.00    +0.000 A 
ATOM     33  C   UNL     1      -4.698  11.038  17.058  0.00  0.00    +0.000 C 
ENDBRANCH  24  27
ENDBRANCH  23  24
ENDBRANCH   6  18
TORSDOF 5
ENDMDL
MODEL 2
REMARK VINA RESULT:      -7.5      3.178      9.757
REMARK  Name = 
REMARK  7 active torsions:
REMARK  status: ('A' for Active; 'I' for Inactive)
REMARK    1  A    between atoms: C_1  and  O_2
REMARK    2  A    between atoms: O_2  and  C_3
REMARK    3  A    between atoms: C_6  and  C_7
REMARK    4  A    between atoms: C_12  and  C_14
REMARK    5  A    between atoms: N_19  and  S_20
REMARK    6  A    between atoms: S_20  and  C_23
REMARK    7  A    between atoms: C_28  and  C_29
REMARK                            x       y       z     vdW  Elec       q    Type
REMARK                         _______ _______ _______ _____ _____    ______ ____
ROOT
ATOM      1  C   UNL     1       0.807   9.616  19.988  0.00  0.00    +0.000 A 
ATOM      2  C   UNL     1       1.245  10.022  18.740  0.00  0.00    +0.000 A 
ATOM      3  S   UNL     1       2.350   8.861  18.105  0.00  0.00    +0.000 S 
ATOM      4  C   UNL     1       2.084   7.895  19.482  0.00  0.00    +0.000 A 
ATOM      5  N   UNL     1       2.704   6.677  19.482  0.00  0.00    +0.000 N 
ATOM      6  C   UNL     1       2.304   5.692  20.360  0.00  0.00    +0.000 C 
ATOM      7  O   UNL     1       1.387   5.805  21.175  0.00  0.00    +0.000 OA
ATOM      8  N   UNL     1       1.305   8.397  20.400  0.00  0.00    +0.000 NA
ATOM      9  H   UNL     1       3.299   6.451  18.688  0.00  0.00    +0.000 HD
ENDROOT
BRANCH   1  13
ATOM     10  C   UNL     1      -1.881  11.749  22.533  0.00  0.00    +0.000 A 
ATOM     11  C   UNL     1      -1.102  10.706  23.031  0.00  0.00    +0.000 A 
ATOM     12  C   UNL     1      -0.222  10.019  22.192  0.00  0.00    +0.000 A 
ATOM     13  C   UNL     1      -0.131  10.345  20.831  0.00  0.00    +0.000 A 
ATOM     14  C   UNL     1      -0.929  11.381  20.333  0.00  0.00    +0.000 A 
ATOM     15  C   UNL     1      -1.801  12.078  21.180  0.00  0.00    +0.000 A 
BRANCH  10  17
ATOM     16  C   UNL     1      -3.630  13.288  22.910  0.00  0.00    +0.000 C 
ATOM     17  O   UNL     1      -2.699  12.355  23.446  0.00  0.00    +0.000 OA
ENDBRANCH  10  17
ENDBRANCH   1  13
BRANCH   6  18
ATOM     18  C   UNL     1       3.081   4.369  20.225  0.00  0.00    +0.000 C 
ATOM     19  C   UNL     1       2.745   3.426  21.400  0.00  0.00    +0.000 C 
ATOM     20  C   UNL     1       1.353   2.805  21.311  0.00  0.00    +0.000 C 
ATOM     21  C   UNL     1       1.161   2.134  19.959  0.00  0.00    +0.000 C 
ATOM     22  C   UNL     1       1.508   3.047  18.784  0.00  0.00    +0.000 C 
ATOM     23  N   UNL     1       2.879   3.642  18.911  0.00  0.00    +0.000 NA
BRANCH  23  24
ATOM     24  S   UNL     1       3.402   4.515  17.510  0.00  0.00    +0.000 S 
ATOM     25  O   UNL     1       3.516   3.584  16.413  0.00  0.00    +0.000 OA
ATOM     26  O   UNL     1       2.529   5.684  17.418  0.00  0.00    +0.000 OA
BRANCH  24  27
ATOM     27  C   UNL     1       5.034   5.163  17.851  0.00  0.00    +0.000 A 
ATOM     28  C   UNL     1       5.686   4.770  19.030  0.00  0.00    +0.000 A 
ATOM     29  C   UNL     1       6.895   5.368  19.397  0.00  0.00    +0.000 A 
ATOM     30  C   UNL     1       7.472   6.343  18.590  0.00  0.00    +0.000 A 
ATOM     31  C   UNL     1       6.851   6.710  17.397  0.00  0.00    +0.000 A 
ATOM     32  C   UNL     1       5.620   6.144  17.014  0.00  0.00    +0.000 A 
ATOM     33  C   UNL     1       5.051   6.609  15.697  0.00  0.00    +0.000 C 
ENDBRANCH  24  27
ENDBRANCH  23  24
ENDBRANCH   6  18
TORSDOF 5
ENDMDL
MODEL 3
REMARK VINA RESULT:      -7.5      2.873     10.049
REMARK  Name = 
REMARK  7 active torsions:
REMARK  status: ('A' for Active; 'I' for Inactive)
REMARK    1  A    between atoms: C_1  and  O_2
REMARK    2  A    between atoms: O_2  and  C_3
REMARK    3  A    between atoms: C_6  and  C_7
REMARK    4  A    between atoms: C_12  and  C_14
REMARK    5  A    between atoms: N_19  and  S_20
REMARK    6  A    between atoms: S_20  and  C_23
REMARK    7  A    between atoms: C_28  and  C_29
REMARK                            x       y       z     vdW  Elec       q    Type
REMARK                         _______ _______ _______ _____ _____    ______ ____
ROOT
ATOM      1  C   UNL     1       0.133  10.525  20.117  0.00  0.00    +0.000 A 
ATOM      2  C   UNL     1       0.460  10.999  18.858  0.00  0.00    +0.000 A 
ATOM      3  S   UNL     1       1.610   9.947  18.121  0.00  0.00    +0.000 S 
ATOM      4  C   UNL     1       1.507   8.926  19.480  0.00  0.00    +0.000 A 
ATOM      5  N   UNL     1       2.219   7.762  19.403  0.00  0.00    +0.000 N 
ATOM      6  C   UNL     1       1.952   6.724  20.271  0.00  0.00    +0.000 C 
ATOM      7  O   UNL     1       1.082   6.741  21.143  0.00  0.00    +0.000 OA
ATOM      8  N   UNL     1       0.749   9.339  20.459  0.00  0.00    +0.000 NA
ATOM      9  H   UNL     1       2.779   7.606  18.568  0.00  0.00    +0.000 HD
ENDROOT
BRANCH   1  13
ATOM     10  C   UNL     1      -2.685  12.362  22.750  0.00  0.00    +0.000 A 
ATOM     11  C   UNL     1      -2.681  12.660  21.388  0.00  0.00    +0.000 A 
ATOM     12  C   UNL     1      -1.759  12.049  20.536  0.00  0.00    +0.000 A 
ATOM     13  C   UNL     1      -0.804  11.153  21.038  0.00  0.00    +0.000 A 
ATOM     14  C   UNL     1      -0.802  10.872  22.409  0.00  0.00    +0.000 A 
ATOM     15  C   UNL     1      -1.737  11.475  23.261  0.00  0.00    +0.000 A 
BRANCH  10  17
ATOM     16  C   UNL     1      -4.219  12.253  24.540  0.00  0.00    +0.000 C 
ATOM     17  O   UNL     1      -3.636  13.012  23.487  0.00  0.00    +0.000 OA
ENDBRANCH  10  17
ENDBRANCH   1  13
BRANCH   6  18
ATOM     18  C   UNL     1       2.820   5.472  20.047  0.00  0.00    +0.000 C 
ATOM     19  C   UNL     1       2.162   4.237  20.699  0.00  0.00    +0.000 C 
ATOM     20  C   UNL     1       0.939   3.723  19.943  0.00  0.00    +0.000 C 
ATOM     21  C   UNL     1       1.283   3.489  18.480  0.00  0.00    +0.000 C 
ATOM     22  C   UNL     1       1.955   4.694  17.824  0.00  0.00    +0.000 C 
ATOM     23  N   UNL     1       3.147   5.173  18.598  0.00  0.00    +0.000 NA
BRANCH  23  24
ATOM     24  S   UNL     1       4.065   6.401  17.792  0.00  0.00    +0.000 S 
ATOM     25  O   UNL     1       3.167   7.163  16.957  0.00  0.00    +0.000 OA
ATOM     26  O   UNL     1       4.861   7.052  18.831  0.00  0.00    +0.000 OA
BRANCH  24  27
ATOM     27  C   UNL     1       5.245   5.585  16.724  0.00  0.00    +0.000 A 
ATOM     28  C   UNL     1       4.922   5.404  15.370  0.00  0.00    +0.000 A 
ATOM     29  C   UNL     1       5.755   4.644  14.544  0.00  0.00    +0.000 A 
ATOM     30  C   UNL     1       6.920   4.075  15.051  0.00  0.00    +0.000 A 
ATOM     31  C   UNL     1       7.268   4.284  16.384  0.00  0.00    +0.000 A 
ATOM     32  C   UNL     1       6.436   5.024  17.246  0.00  0.00    +0.000 A 
ATOM     33  C   UNL     1       6.923   5.193  18.664  0.00  0.00    +0.000 C 
ENDBRANCH  24  27
ENDBRANCH  23  24
ENDBRANCH   6  18
TORSDOF 5
ENDMDL
MODEL 4
REMARK VINA RESULT:      -7.5      3.530     10.142
REMARK  Name = 
REMARK  7 active torsions:
REMARK  status: ('A' for Active; 'I' for Inactive)
REMARK    1  A    between atoms: C_1  and  O_2
REMARK    2  A    between atoms: O_2  and  C_3
REMARK    3  A    between atoms: C_6  and  C_7
REMARK    4  A    between atoms: C_12  and  C_14
REMARK    5  A    between atoms: N_19  and  S_20
REMARK    6  A    between atoms: S_20  and  C_23
REMARK    7  A    between atoms: C_28  and  C_29
REMARK                            x       y       z     vdW  Elec       q    Type
REMARK                         _______ _______ _______ _____ _____    ______ ____
ROOT
ATOM      1  C   UNL     1       1.042   9.177  19.978  0.00  0.00    +0.000 A 
ATOM      2  C   UNL     1       1.241   9.526  18.654  0.00  0.00    +0.000 A 
ATOM      3  S   UNL     1       2.157   8.300  17.861  0.00  0.00    +0.000 S 
ATOM      4  C   UNL     1       2.133   7.389  19.300  0.00  0.00    +0.000 A 
ATOM      5  N   UNL     1       2.697   6.146  19.227  0.00  0.00    +0.000 N 
ATOM      6  C   UNL     1       2.442   5.207  20.203  0.00  0.00    +0.000 C 
ATOM      7  O   UNL     1       1.707   5.383  21.176  0.00  0.00    +0.000 OA
ATOM      8  N   UNL     1       1.567   7.952  20.332  0.00  0.00    +0.000 NA
ATOM      9  H   UNL     1       3.117   5.871  18.341  0.00  0.00    +0.000 HD
ENDROOT
BRANCH   1  13
ATOM     10  C   UNL     1      -1.148  11.541  22.784  0.00  0.00    +0.000 A 
ATOM     11  C   UNL     1      -0.839  12.038  21.519  0.00  0.00    +0.000 A 
ATOM     12  C   UNL     1      -0.128  11.254  20.607  0.00  0.00    +0.000 A 
ATOM     13  C   UNL     1       0.314   9.971  20.959  0.00  0.00    +0.000 A 
ATOM     14  C   UNL     1       0.016   9.484  22.237  0.00  0.00    +0.000 A 
ATOM     15  C   UNL     1      -0.710  10.267  23.146  0.00  0.00    +0.000 A 
BRANCH  10  17
ATOM     16  C   UNL     1      -1.543  13.772  23.443  0.00  0.00    +0.000 C 
ATOM     17  O   UNL     1      -1.855  12.391  23.588  0.00  0.00    +0.000 OA
ENDBRANCH  10  17
ENDBRANCH   1  13
BRANCH   6  18
ATOM     18  C   UNL     1       3.130   3.849  19.970  0.00  0.00    +0.000 C 
ATOM     19  C   UNL     1       2.093   2.706  20.010  0.00  0.00    +0.000 C 
ATOM     20  C   UNL     1       1.197   2.648  18.774  0.00  0.00    +0.000 C 
ATOM     21  C   UNL     1       2.043   2.615  17.511  0.00  0.00    +0.000 C 
ATOM     22  C   UNL     1       3.090   3.727  17.464  0.00  0.00    +0.000 C 
ATOM     23  N   UNL     1       3.945   3.757  18.696  0.00  0.00    +0.000 NA
BRANCH  23  24
ATOM     24  S   UNL     1       5.277   4.860  18.604  0.00  0.00    +0.000 S 
ATOM     25  O   UNL     1       4.787   6.187  18.892  0.00  0.00    +0.000 OA
ATOM     26  O   UNL     1       6.347   4.263  19.403  0.00  0.00    +0.000 OA
BRANCH  24  27
ATOM     27  C   UNL     1       5.876   4.851  16.919  0.00  0.00    +0.000 A 
ATOM     28  C   UNL     1       5.390   3.876  16.033  0.00  0.00    +0.000 A 
ATOM     29  C   UNL     1       5.943   3.750  14.755  0.00  0.00    +0.000 A 
ATOM     30  C   UNL     1       6.966   4.599  14.343  0.00  0.00    +0.000 A 
ATOM     31  C   UNL     1       7.425   5.595  15.203  0.00  0.00    +0.000 A 
ATOM     32  C   UNL     1       6.906   5.730  16.505  0.00  0.00    +0.000 A 
ATOM     33  C   UNL     1       7.472   6.852  17.339  0.00  0.00    +0.000 C 
ENDBRANCH  24  27
ENDBRANCH  23  24
ENDBRANCH   6  18
TORSDOF 5
ENDMDL
MODEL 5
REMARK VINA RESULT:      -7.3      2.950     10.058
REMARK  Name = 
REMARK  7 active torsions:
REMARK  status: ('A' for Active; 'I' for Inactive)
REMARK    1  A    between atoms: C_1  and  O_2
REMARK    2  A    between atoms: O_2  and  C_3
REMARK    3  A    between atoms: C_6  and  C_7
REMARK    4  A    between atoms: C_12  and  C_14
REMARK    5  A    between atoms: N_19  and  S_20
REMARK    6  A    between atoms: S_20  and  C_23
REMARK    7  A    between atoms: C_28  and  C_29
REMARK                            x       y       z     vdW  Elec       q    Type
REMARK                         _______ _______ _______ _____ _____    ______ ____
ROOT
ATOM      1  C   UNL     1       0.174  10.453  20.116  0.00  0.00    +0.000 A 
ATOM      2  C   UNL     1       0.494  10.919  18.853  0.00  0.00    +0.000 A 
ATOM      3  S   UNL     1       1.632   9.857  18.111  0.00  0.00    +0.000 S 
ATOM      4  C   UNL     1       1.532   8.842  19.475  0.00  0.00    +0.000 A 
ATOM      5  N   UNL     1       2.235   7.673  19.398  0.00  0.00    +0.000 N 
ATOM      6  C   UNL     1       1.968   6.640  20.273  0.00  0.00    +0.000 C 
ATOM      7  O   UNL     1       1.104   6.667  21.151  0.00  0.00    +0.000 OA
ATOM      8  N   UNL     1       0.785   9.264  20.458  0.00  0.00    +0.000 NA
ATOM      9  H   UNL     1       2.788   7.509  18.559  0.00  0.00    +0.000 HD
ENDROOT
BRANCH   1  13
ATOM     10  C   UNL     1      -2.476  12.318  22.899  0.00  0.00    +0.000 A 
ATOM     11  C   UNL     1      -1.646  11.271  23.295  0.00  0.00    +0.000 A 
ATOM     12  C   UNL     1      -0.779  10.672  22.378  0.00  0.00    +0.000 A 
ATOM     13  C   UNL     1      -0.752  11.092  21.041  0.00  0.00    +0.000 A 
ATOM     14  C   UNL     1      -1.601  12.131  20.645  0.00  0.00    +0.000 A 
ATOM     15  C   UNL     1      -2.460  12.740  21.569  0.00  0.00    +0.000 A 
BRANCH  10  17
ATOM     16  C   UNL     1      -4.670  12.838  23.596  0.00  0.00    +0.000 C 
ATOM     17  O   UNL     1      -3.276  12.833  23.881  0.00  0.00    +0.000 OA
ENDBRANCH  10  17
ENDBRANCH   1  13
BRANCH   6  18
ATOM     18  C   UNL     1       2.826   5.382  20.047  0.00  0.00    +0.000 C 
ATOM     19  C   UNL     1       2.157   4.152  20.699  0.00  0.00    +0.000 C 
ATOM     20  C   UNL     1       0.930   3.648  19.944  0.00  0.00    +0.000 C 
ATOM     21  C   UNL     1       1.271   3.412  18.480  0.00  0.00    +0.000 C 
ATOM     22  C   UNL     1       1.953   4.612  17.824  0.00  0.00    +0.000 C 
ATOM     23  N   UNL     1       3.148   5.081  18.598  0.00  0.00    +0.000 NA
BRANCH  23  24
ATOM     24  S   UNL     1       4.076   6.302  17.792  0.00  0.00    +0.000 S 
ATOM     25  O   UNL     1       3.174   7.115  17.013  0.00  0.00    +0.000 OA
ATOM     26  O   UNL     1       4.932   6.896  18.817  0.00  0.00    +0.000 OA
BRANCH  24  27
ATOM     27  C   UNL     1       5.189   5.479  16.658  0.00  0.00    +0.000 A 
ATOM     28  C   UNL     1       4.729   4.357  15.951  0.00  0.00    +0.000 A 
ATOM     29  C   UNL     1       5.612   3.606  15.171  0.00  0.00    +0.000 A 
ATOM     30  C   UNL     1       6.951   3.974  15.073  0.00  0.00    +0.000 A 
ATOM     31  C   UNL     1       7.407   5.110  15.739  0.00  0.00    +0.000 A 
ATOM     32  C   UNL     1       6.546   5.871  16.553  0.00  0.00    +0.000 A 
ATOM     33  C   UNL     1       7.149   7.085  17.214  0.00  0.00    +0.000 C 
ENDBRANCH  24  27
ENDBRANCH  23  24
ENDBRANCH   6  18
TORSDOF 5
ENDMDL
MODEL 6
REMARK VINA RESULT:      -7.3      2.475      4.885
REMARK  Name = 
REMARK  7 active torsions:
REMARK  status: ('A' for Active; 'I' for Inactive)
REMARK    1  A    between atoms: C_1  and  O_2
REMARK    2  A    between atoms: O_2  and  C_3
REMARK    3  A    between atoms: C_6  and  C_7
REMARK    4  A    between atoms: C_12  and  C_14
REMARK    5  A    between atoms: N_19  and  S_20
REMARK    6  A    between atoms: S_20  and  C_23
REMARK    7  A    between atoms: C_28  and  C_29
REMARK                            x       y       z     vdW  Elec       q    Type
REMARK                         _______ _______ _______ _____ _____    ______ ____
ROOT
ATOM      1  C   UNL     1       1.577   7.795  20.538  0.00  0.00    +0.000 A 
ATOM      2  C   UNL     1       1.453   8.124  21.877  0.00  0.00    +0.000 A 
ATOM      3  S   UNL     1       0.751   9.691  22.029  0.00  0.00    +0.000 S 
ATOM      4  C   UNL     1       0.596   9.755  20.334  0.00  0.00    +0.000 A 
ATOM      5  N   UNL     1      -0.045  10.855  19.837  0.00  0.00    +0.000 N 
ATOM      6  C   UNL     1      -0.522  10.859  18.543  0.00  0.00    +0.000 C 
ATOM      7  O   UNL     1      -0.434   9.914  17.757  0.00  0.00    +0.000 OA
ATOM      8  N   UNL     1       1.087   8.746  19.668  0.00  0.00    +0.000 NA
ATOM      9  H   UNL     1      -0.349  11.564  20.502  0.00  0.00    +0.000 HD
ENDROOT
BRANCH   1  13
ATOM     10  C   UNL     1       3.283   4.191  19.004  0.00  0.00    +0.000 A 
ATOM     11  C   UNL     1       3.503   5.412  18.369  0.00  0.00    +0.000 A 
ATOM     12  C   UNL     1       2.945   6.585  18.883  0.00  0.00    +0.000 A 
ATOM     13  C   UNL     1       2.132   6.550  20.024  0.00  0.00    +0.000 A 
ATOM     14  C   UNL     1       1.900   5.318  20.647  0.00  0.00    +0.000 A 
ATOM     15  C   UNL     1       2.472   4.144  20.138  0.00  0.00    +0.000 A 
BRANCH  10  17
ATOM     16  C   UNL     1       3.174   1.883  18.525  0.00  0.00    +0.000 C 
ATOM     17  O   UNL     1       3.885   3.111  18.419  0.00  0.00    +0.000 OA
ENDBRANCH  10  17
ENDBRANCH   1  13
BRANCH   6  18
ATOM     18  C   UNL     1      -1.239  12.159  18.136  0.00  0.00    +0.000 C 
ATOM     19  C   UNL     1      -2.752  11.906  17.960  0.00  0.00    +0.000 C 
ATOM     20  C   UNL     1      -3.500  11.714  19.278  0.00  0.00    +0.000 C 
ATOM     21  C   UNL     1      -3.215  12.874  20.220  0.00  0.00    +0.000 C 
ATOM     22  C   UNL     1      -1.722  13.153  20.390  0.00  0.00    +0.000 C 
ATOM     23  N   UNL     1      -1.022  13.328  19.075  0.00  0.00    +0.000 NA
BRANCH  23  24
ATOM     24  S   UNL     1       0.624  13.850  19.216  0.00  0.00    +0.000 S 
ATOM     25  O   UNL     1       1.012  13.754  20.603  0.00  0.00    +0.000 OA
ATOM     26  O   UNL     1       1.361  13.134  18.176  0.00  0.00    +0.000 OA
BRANCH  24  27
ATOM     27  C   UNL     1       0.689  15.575  18.747  0.00  0.00    +0.000 A 
ATOM     28  C   UNL     1      -0.515  16.271  18.555  0.00  0.00    +0.000 A 
ATOM     29  C   UNL     1      -0.501  17.574  18.049  0.00  0.00    +0.000 A 
ATOM     30  C   UNL     1       0.705  18.199  17.749  0.00  0.00    +0.000 A 
ATOM     31  C   UNL     1       1.906  17.530  17.975  0.00  0.00    +0.000 A 
ATOM     32  C   UNL     1       1.923  16.208  18.460  0.00  0.00    +0.000 A 
ATOM     33  C   UNL     1       3.282  15.591  18.677  0.00  0.00    +0.000 C 
ENDBRANCH  24  27
ENDBRANCH  23  24
ENDBRANCH   6  18
TORSDOF 5
ENDMDL
MODEL 7
REMARK VINA RESULT:      -7.3      0.488      1.273
REMARK  Name = 
REMARK  7 active torsions:
REMARK  status: ('A' for Active; 'I' for Inactive)
REMARK    1  A    between atoms: C_1  and  O_2
REMARK    2  A    between atoms: O_2  and  C_3
REMARK    3  A    between atoms: C_6  and  C_7
REMARK    4  A    between atoms: C_12  and  C_14
REMARK    5  A    between atoms: N_19  and  S_20
REMARK    6  A    between atoms: S_20  and  C_23
REMARK    7  A    between atoms: C_28  and  C_29
REMARK                            x       y       z     vdW  Elec       q    Type
REMARK                         _______ _______ _______ _____ _____    ______ ____
ROOT
ATOM      1  C   UNL     1       2.978   6.383  18.747  0.00  0.00    +0.000 A 
ATOM      2  C   UNL     1       2.472   5.521  19.704  0.00  0.00    +0.000 A 
ATOM      3  S   UNL     1       1.490   6.398  20.817  0.00  0.00    +0.000 S 
ATOM      4  C   UNL     1       1.749   7.805  19.894  0.00  0.00    +0.000 A 
ATOM      5  N   UNL     1       1.067   8.917  20.302  0.00  0.00    +0.000 N 
ATOM      6  C   UNL     1       0.930  10.000  19.458  0.00  0.00    +0.000 C 
ATOM      7  O   UNL     1       1.374  10.058  18.310  0.00  0.00    +0.000 OA
ATOM      8  N   UNL     1       2.558   7.691  18.877  0.00  0.00    +0.000 NA
ATOM      9  H   UNL     1       0.489   8.836  21.136  0.00  0.00    +0.000 HD
ENDROOT
BRANCH   1  13
ATOM     10  C   UNL     1       5.597   5.340  15.537  0.00  0.00    +0.000 A 
ATOM     11  C   UNL     1       5.319   6.675  15.827  0.00  0.00    +0.000 A 
ATOM     12  C   UNL     1       4.466   7.005  16.882  0.00  0.00    +0.000 A 
ATOM     13  C   UNL     1       3.852   6.002  17.646  0.00  0.00    +0.000 A 
ATOM     14  C   UNL     1       4.121   4.663  17.339  0.00  0.00    +0.000 A 
ATOM     15  C   UNL     1       4.988   4.334  16.288  0.00  0.00    +0.000 A 
BRANCH  10  17
ATOM     16  C   UNL     1       6.227   3.946  13.740  0.00  0.00    +0.000 C 
ATOM     17  O   UNL     1       6.451   5.136  14.489  0.00  0.00    +0.000 OA
ENDBRANCH  10  17
ENDBRANCH   1  13
BRANCH   6  18
ATOM     18  C   UNL     1       0.119  11.166  20.051  0.00  0.00    +0.000 C 
ATOM     19  C   UNL     1       1.053  12.158  20.776  0.00  0.00    +0.000 C 
ATOM     20  C   UNL     1       1.895  13.012  19.830  0.00  0.00    +0.000 C 
ATOM     21  C   UNL     1       1.004  13.700  18.807  0.00  0.00    +0.000 C 
ATOM     22  C   UNL     1       0.056  12.736  18.094  0.00  0.00    +0.000 C 
ATOM     23  N   UNL     1      -0.747  11.912  19.056  0.00  0.00    +0.000 NA
BRANCH  23  24
ATOM     24  S   UNL     1      -1.981  10.955  18.305  0.00  0.00    +0.000 S 
ATOM     25  O   UNL     1      -1.782  11.000  16.876  0.00  0.00    +0.000 OA
ATOM     26  O   UNL     1      -1.992   9.682  19.024  0.00  0.00    +0.000 OA
BRANCH  24  27
ATOM     27  C   UNL     1      -3.557  11.721  18.664  0.00  0.00    +0.000 A 
ATOM     28  C   UNL     1      -4.567  11.681  17.690  0.00  0.00    +0.000 A 
ATOM     29  C   UNL     1      -5.755  12.393  17.879  0.00  0.00    +0.000 A 
ATOM     30  C   UNL     1      -5.954  13.133  19.041  0.00  0.00    +0.000 A 
ATOM     31  C   UNL     1      -4.973  13.145  20.030  0.00  0.00    +0.000 A 
ATOM     32  C   UNL     1      -3.756  12.459  19.856  0.00  0.00    +0.000 A 
ATOM     33  C   UNL     1      -2.775  12.534  21.000  0.00  0.00    +0.000 C 
ENDBRANCH  24  27
ENDBRANCH  23  24
ENDBRANCH   6  18
TORSDOF 5
ENDMDL
MODEL 8
REMARK VINA RESULT:      -7.3      2.728      9.330
REMARK  Name = 
REMARK  7 active torsions:
REMARK  status: ('A' for Active; 'I' for Inactive)
REMARK    1  A    between atoms: C_1  and  O_2
REMARK    2  A    between atoms: O_2  and  C_3
REMARK    3  A    between atoms: C_6  and  C_7
REMARK    4  A    between atoms: C_12  and  C_14
REMARK    5  A    between atoms: N_19  and  S_20
REMARK    6  A    between atoms: S_20  and  C_23
REMARK    7  A    between atoms: C_28  and  C_29
REMARK                            x       y       z     vdW  Elec       q    Type
REMARK                         _______ _______ _______ _____ _____    ______ ____
ROOT
ATOM      1  C   UNL     1       0.135   9.583  20.243  0.00  0.00    +0.000 A 
ATOM      2  C   UNL     1       0.703  10.226  21.329  0.00  0.00    +0.000 A 
ATOM      3  S   UNL     1       1.639   9.105  22.245  0.00  0.00    +0.000 S 
ATOM      4  C   UNL     1       1.285   7.906  21.088  0.00  0.00    +0.000 A 
ATOM      5  N   UNL     1       1.900   6.700  21.274  0.00  0.00    +0.000 N 
ATOM      6  C   UNL     1       1.961   5.783  20.246  0.00  0.00    +0.000 C 
ATOM      7  O   UNL     1       1.503   5.959  19.116  0.00  0.00    +0.000 OA
ATOM      8  N   UNL     1       0.474   8.251  20.125  0.00  0.00    +0.000 NA
ATOM      9  H   UNL     1       2.490   6.594  22.097  0.00  0.00    +0.000 HD
ENDROOT
BRANCH   1  13
ATOM     10  C   UNL     1      -2.410  11.331  17.290  0.00  0.00    +0.000 A 
ATOM     11  C   UNL     1      -1.666  10.187  17.005  0.00  0.00    +0.000 A 
ATOM     12  C   UNL     1      -0.842   9.621  17.980  0.00  0.00    +0.000 A 
ATOM     13  C   UNL     1      -0.724  10.209  19.247  0.00  0.00    +0.000 A 
ATOM     14  C   UNL     1      -1.460  11.367  19.521  0.00  0.00    +0.000 A 
ATOM     15  C   UNL     1      -2.297  11.927  18.546  0.00  0.00    +0.000 A 
BRANCH  10  17
ATOM     16  C   UNL     1      -4.158  10.875  15.772  0.00  0.00    +0.000 C 
ATOM     17  O   UNL     1      -3.188  11.792  16.264  0.00  0.00    +0.000 OA
ENDBRANCH  10  17
ENDBRANCH   1  13
BRANCH   6  18
ATOM     18  C   UNL     1       2.705   4.482  20.602  0.00  0.00    +0.000 C 
ATOM     19  C   UNL     1       1.698   3.366  20.956  0.00  0.00    +0.000 C 
ATOM     20  C   UNL     1       0.956   2.803  19.747  0.00  0.00    +0.000 C 
ATOM     21  C   UNL     1       1.945   2.368  18.676  0.00  0.00    +0.000 C 
ATOM     22  C   UNL     1       2.963   3.453  18.327  0.00  0.00    +0.000 C 
ATOM     23  N   UNL     1       3.666   3.986  19.540  0.00  0.00    +0.000 NA
BRANCH  23  24
ATOM     24  S   UNL     1       4.972   5.065  19.182  0.00  0.00    +0.000 S 
ATOM     25  O   UNL     1       4.562   6.404  19.530  0.00  0.00    +0.000 OA
ATOM     26  O   UNL     1       6.163   4.464  19.779  0.00  0.00    +0.000 OA
BRANCH  24  27
ATOM     27  C   UNL     1       5.247   5.018  17.415  0.00  0.00    +0.000 A 
ATOM     28  C   UNL     1       5.984   3.954  16.872  0.00  0.00    +0.000 A 
ATOM     29  C   UNL     1       6.341   3.963  15.520  0.00  0.00    +0.000 A 
ATOM     30  C   UNL     1       5.953   5.016  14.697  0.00  0.00    +0.000 A 
ATOM     31  C   UNL     1       5.187   6.056  15.220  0.00  0.00    +0.000 A 
ATOM     32  C   UNL     1       4.834   6.087  16.583  0.00  0.00    +0.000 A 
ATOM     33  C   UNL     1       3.992   7.256  17.030  0.00  0.00    +0.000 C 
ENDBRANCH  24  27
ENDBRANCH  23  24
ENDBRANCH   6  18
TORSDOF 5
ENDMDL
MODEL 9
REMARK VINA RESULT:      -7.2      2.924      9.658
REMARK  Name = 
REMARK  7 active torsions:
REMARK  status: ('A' for Active; 'I' for Inactive)
REMARK    1  A    between atoms: C_1  and  O_2
REMARK    2  A    between atoms: O_2  and  C_3
REMARK    3  A    between atoms: C_6  and  C_7
REMARK    4  A    between atoms: C_12  and  C_14
REMARK    5  A    between atoms: N_19  and  S_20
REMARK    6  A    between atoms: S_20  and  C_23
REMARK    7  A    between atoms: C_28  and  C_29
REMARK                            x       y       z     vdW  Elec       q    Type
REMARK                         _______ _______ _______ _____ _____    ______ ____
ROOT
ATOM      1  C   UNL     1       0.917   9.793  19.488  0.00  0.00    +0.000 A 
ATOM      2  C   UNL     1       1.450  10.114  18.252  0.00  0.00    +0.000 A 
ATOM      3  S   UNL     1       2.575   8.899  17.770  0.00  0.00    +0.000 S 
ATOM      4  C   UNL     1       2.194   8.026  19.182  0.00  0.00    +0.000 A 
ATOM      5  N   UNL     1       2.789   6.801  19.301  0.00  0.00    +0.000 N 
ATOM      6  C   UNL     1       2.309   5.879  20.207  0.00  0.00    +0.000 C 
ATOM      7  O   UNL     1       1.339   6.055  20.945  0.00  0.00    +0.000 OA
ATOM      8  N   UNL     1       1.361   8.595  20.009  0.00  0.00    +0.000 NA
ATOM      9  H   UNL     1       3.435   6.517  18.567  0.00  0.00    +0.000 HD
ENDROOT
BRANCH   1  13
ATOM     10  C   UNL     1      -2.028  12.099  21.553  0.00  0.00    +0.000 A 
ATOM     11  C   UNL     1      -1.982  12.082  20.161  0.00  0.00    +0.000 A 
ATOM     12  C   UNL     1      -1.019  11.320  19.496  0.00  0.00    +0.000 A 
ATOM     13  C   UNL     1      -0.065  10.587  20.215  0.00  0.00    +0.000 A 
ATOM     14  C   UNL     1      -0.104  10.622  21.614  0.00  0.00    +0.000 A 
ATOM     15  C   UNL     1      -1.080  11.377  22.280  0.00  0.00    +0.000 A 
BRANCH  10  17
ATOM     16  C   UNL     1      -3.228  14.129  21.463  0.00  0.00    +0.000 C 
ATOM     17  O   UNL     1      -3.016  12.872  22.096  0.00  0.00    +0.000 OA
ENDBRANCH  10  17
ENDBRANCH   1  13
BRANCH   6  18
ATOM     18  C   UNL     1       3.068   4.539  20.209  0.00  0.00    +0.000 C 
ATOM     19  C   UNL     1       2.668   3.696  21.439  0.00  0.00    +0.000 C 
ATOM     20  C   UNL     1       1.271   3.089  21.339  0.00  0.00    +0.000 C 
ATOM     21  C   UNL     1       1.124   2.316  20.037  0.00  0.00    +0.000 C 
ATOM     22  C   UNL     1       1.535   3.129  18.810  0.00  0.00    +0.000 C 
ATOM     23  N   UNL     1       2.909   3.713  18.949  0.00  0.00    +0.000 NA
BRANCH  23  24
ATOM     24  S   UNL     1       3.505   4.466  17.507  0.00  0.00    +0.000 S 
ATOM     25  O   UNL     1       3.667   3.447  16.498  0.00  0.00    +0.000 OA
ATOM     26  O   UNL     1       2.644   5.624  17.275  0.00  0.00    +0.000 OA
BRANCH  24  27
ATOM     27  C   UNL     1       5.122   5.137  17.872  0.00  0.00    +0.000 A 
ATOM     28  C   UNL     1       5.752   4.772  19.073  0.00  0.00    +0.000 A 
ATOM     29  C   UNL     1       6.946   5.388  19.456  0.00  0.00    +0.000 A 
ATOM     30  C   UNL     1       7.531   6.356  18.644  0.00  0.00    +0.000 A 
ATOM     31  C   UNL     1       6.933   6.695  17.432  0.00  0.00    +0.000 A 
ATOM     32  C   UNL     1       5.717   6.109  17.031  0.00  0.00    +0.000 A 
ATOM     33  C   UNL     1       5.172   6.545  15.694  0.00  0.00    +0.000 C 
ENDBRANCH  24  27
ENDBRANCH  23  24
ENDBRANCH   6  18
TORSDOF 5
ENDMDL
