MODEL 1
REMARK VINA RESULT:      -7.3      0.000      0.000
REMARK  Name = 
REMARK  6 active torsions:
REMARK  status: ('A' for Active; 'I' for Inactive)
REMARK    1  A    between atoms: N_7  and  C_8
REMARK    2  A    between atoms: C_8  and  C_9
REMARK    3  A    between atoms: C_9  and  O_10
REMARK    4  A    between atoms: C_9  and  C_11
REMARK    5  A    between atoms: C_9  and  C_17
REMARK    6  A    between atoms: C_11  and  N_12
REMARK                            x       y       z     vdW  Elec       q    Type
REMARK                         _______ _______ _______ _____ _____    ______ ____
ROOT
ATOM      1  C   UNL     1       3.194   5.787  18.675  0.00  0.00    +0.000 C 
ENDROOT
BRANCH   1   2
ATOM      2  C   UNL     1       2.491   7.150  18.811  0.00  0.00    +0.000 A 
ATOM      3  C   UNL     1       2.511   8.136  17.804  0.00  0.00    +0.000 A 
ATOM      4  C   UNL     1       1.903   9.381  17.997  0.00  0.00    +0.000 A 
ATOM      5  C   UNL     1       1.276   9.665  19.202  0.00  0.00    +0.000 A 
ATOM      6  F   UNL     1       0.704  10.861  19.383  0.00  0.00    +0.000 F 
ATOM      7  C   UNL     1       1.233   8.723  20.216  0.00  0.00    +0.000 A 
ATOM      8  C   UNL     1       1.828   7.480  20.010  0.00  0.00    +0.000 A 
ATOM      9  F   UNL     1       1.762   6.581  21.004  0.00  0.00    +0.000 F 
ENDBRANCH   1   2
BRANCH   1  10
ATOM     10  O   UNL     1       4.143   5.747  19.769  0.00  0.00    +0.000 OA
ATOM     11  H   UNL     1       3.914   6.437  20.418  0.00  0.00    +0.000 HD
ENDBRANCH   1  10
BRANCH   1  12
ATOM     12  C   UNL     1       2.242   4.589  18.934  0.00  0.00    +0.000 C 
BRANCH  12  19
ATOM     13  O   UNL     1       5.516  -0.025  20.123  0.00  0.00    +0.000 OA
ATOM     14  N   UNL     1       5.118   1.068  20.550  0.00  0.00    +0.000 N 
ATOM     15  O   UNL     1       5.446   1.573  21.635  0.00  0.00    +0.000 OA
ATOM     16  C   UNL     1       4.181   1.809  19.714  0.00  0.00    +0.000 A 
ATOM     17  N   UNL     1       3.739   1.347  18.498  0.00  0.00    +0.000 NA
ATOM     18  C   UNL     1       2.944   2.313  18.098  0.00  0.00    +0.000 A 
ATOM     19  N   UNL     1       2.911   3.304  19.034  0.00  0.00    +0.000 N 
ATOM     20  N   UNL     1       3.676   2.996  20.101  0.00  0.00    +0.000 NA
ENDBRANCH  12  19
ENDBRANCH   1  12
BRANCH   1  21
ATOM     21  C   UNL     1       3.935   5.631  17.312  0.00  0.00    +0.000 C 
BRANCH  21  22
ATOM     22  N   UNL     1       5.375   5.574  17.398  0.00  0.00    +0.000 N 
ATOM     23  C   UNL     1       6.276   6.536  17.048  0.00  0.00    +0.000 A 
ATOM     24  N   UNL     1       7.492   6.080  17.243  0.00  0.00    +0.000 NA
ATOM     25  C   UNL     1       7.283   4.817  17.707  0.00  0.00    +0.000 A 
ATOM     26  N   UNL     1       6.001   4.463  17.816  0.00  0.00    +0.000 NA
ENDBRANCH  21  22
ENDBRANCH   1  21
TORSDOF 6
ENDMDL
MODEL 2
REMARK VINA RESULT:      -7.3      2.276      4.456
REMARK  Name = 
REMARK  6 active torsions:
REMARK  status: ('A' for Active; 'I' for Inactive)
REMARK    1  A    between atoms: N_7  and  C_8
REMARK    2  A    between atoms: C_8  and  C_9
REMARK    3  A    between atoms: C_9  and  O_10
REMARK    4  A    between atoms: C_9  and  C_11
REMARK    5  A    between atoms: C_9  and  C_17
REMARK    6  A    between atoms: C_11  and  N_12
REMARK                            x       y       z     vdW  Elec       q    Type
REMARK                         _______ _______ _______ _____ _____    ______ ____
ROOT
ATOM      1  C   UNL     1       2.995   5.866  19.071  0.00  0.00    +0.000 C 
ENDROOT
BRANCH   1   2
ATOM      2  C   UNL     1       2.277   7.168  19.471  0.00  0.00    +0.000 A 
ATOM      3  C   UNL     1       1.653   7.356  20.721  0.00  0.00    +0.000 A 
ATOM      4  C   UNL     1       0.966   8.539  21.016  0.00  0.00    +0.000 A 
ATOM      5  C   UNL     1       0.883   9.546  20.065  0.00  0.00    +0.000 A 
ATOM      6  F   UNL     1       0.217  10.671  20.352  0.00  0.00    +0.000 F 
ATOM      7  C   UNL     1       1.484   9.401  18.827  0.00  0.00    +0.000 A 
ATOM      8  C   UNL     1       2.178   8.226  18.546  0.00  0.00    +0.000 A 
ATOM      9  F   UNL     1       2.761   8.115  17.342  0.00  0.00    +0.000 F 
ENDBRANCH   1   2
BRANCH   1  10
ATOM     10  O   UNL     1       2.796   5.756  17.640  0.00  0.00    +0.000 OA
ATOM     11  H   UNL     1       3.432   6.335  17.182  0.00  0.00    +0.000 HD
ENDBRANCH   1  10
BRANCH   1  12
ATOM     12  C   UNL     1       4.534   5.945  19.251  0.00  0.00    +0.000 C 
BRANCH  12  19
ATOM     13  O   UNL     1       7.525   5.321  14.344  0.00  0.00    +0.000 OA
ATOM     14  N   UNL     1       6.782   4.748  15.153  0.00  0.00    +0.000 N 
ATOM     15  O   UNL     1       6.428   3.561  15.081  0.00  0.00    +0.000 OA
ATOM     16  C   UNL     1       6.276   5.539  16.269  0.00  0.00    +0.000 A 
ATOM     17  N   UNL     1       6.590   6.865  16.447  0.00  0.00    +0.000 NA
ATOM     18  C   UNL     1       5.947   7.164  17.552  0.00  0.00    +0.000 A 
ATOM     19  N   UNL     1       5.276   6.069  18.009  0.00  0.00    +0.000 N 
ATOM     20  N   UNL     1       5.445   5.012  17.188  0.00  0.00    +0.000 NA
ENDBRANCH  12  19
ENDBRANCH   1  12
BRANCH   1  21
ATOM     21  C   UNL     1       2.408   4.615  19.795  0.00  0.00    +0.000 C 
BRANCH  21  22
ATOM     22  N   UNL     1       2.697   3.348  19.165  0.00  0.00    +0.000 N 
ATOM     23  C   UNL     1       3.641   2.430  19.519  0.00  0.00    +0.000 A 
ATOM     24  N   UNL     1       3.610   1.429  18.669  0.00  0.00    +0.000 NA
ATOM     25  C   UNL     1       2.628   1.789  17.796  0.00  0.00    +0.000 A 
ATOM     26  N   UNL     1       2.043   2.959  18.059  0.00  0.00    +0.000 NA
ENDBRANCH  21  22
ENDBRANCH   1  21
TORSDOF 6
ENDMDL
MODEL 3
REMARK VINA RESULT:      -7.3      2.362      4.762
REMARK  Name = 
REMARK  6 active torsions:
REMARK  status: ('A' for Active; 'I' for Inactive)
REMARK    1  A    between atoms: N_7  and  C_8
REMARK    2  A    between atoms: C_8  and  C_9
REMARK    3  A    between atoms: C_9  and  O_10
REMARK    4  A    between atoms: C_9  and  C_11
REMARK    5  A    between atoms: C_9  and  C_17
REMARK    6  A    between atoms: C_11  and  N_12
REMARK                            x       y       z     vdW  Elec       q    Type
REMARK                         _______ _______ _______ _____ _____    ______ ____
ROOT
ATOM      1  C   UNL     1       3.311   5.745  19.073  0.00  0.00    +0.000 C 
ENDROOT
BRANCH   1   2
ATOM      2  C   UNL     1       2.605   7.112  19.142  0.00  0.00    +0.000 A 
ATOM      3  C   UNL     1       1.887   7.556  20.271  0.00  0.00    +0.000 A 
ATOM      4  C   UNL     1       1.216   8.784  20.265  0.00  0.00    +0.000 A 
ATOM      5  C   UNL     1       1.244   9.581  19.129  0.00  0.00    +0.000 A 
ATOM      6  F   UNL     1       0.593  10.750  19.128  0.00  0.00    +0.000 F 
ATOM      7  C   UNL     1       1.939   9.181  18.001  0.00  0.00    +0.000 A 
ATOM      8  C   UNL     1       2.616   7.964  18.020  0.00  0.00    +0.000 A 
ATOM      9  F   UNL     1       3.292   7.605  16.918  0.00  0.00    +0.000 F 
ENDBRANCH   1   2
BRANCH   1  10
ATOM     10  O   UNL     1       3.114   5.294  17.710  0.00  0.00    +0.000 OA
ATOM     11  H   UNL     1       3.064   4.321  17.699  0.00  0.00    +0.000 HD
ENDBRANCH   1  10
BRANCH   1  12
ATOM     12  C   UNL     1       4.850   5.852  19.236  0.00  0.00    +0.000 C 
BRANCH  12  19
ATOM     13  O   UNL     1       7.665   5.346  14.212  0.00  0.00    +0.000 OA
ATOM     14  N   UNL     1       6.888   4.782  14.995  0.00  0.00    +0.000 N 
ATOM     15  O   UNL     1       6.422   3.642  14.842  0.00  0.00    +0.000 OA
ATOM     16  C   UNL     1       6.483   5.525  16.182  0.00  0.00    +0.000 A 
ATOM     17  N   UNL     1       6.926   6.798  16.454  0.00  0.00    +0.000 NA
ATOM     18  C   UNL     1       6.337   7.066  17.597  0.00  0.00    +0.000 A 
ATOM     19  N   UNL     1       5.575   6.005  17.987  0.00  0.00    +0.000 N 
ATOM     20  N   UNL     1       5.625   5.006  17.081  0.00  0.00    +0.000 NA
ENDBRANCH  12  19
ENDBRANCH   1  12
BRANCH   1  21
ATOM     21  C   UNL     1       2.710   4.712  20.075  0.00  0.00    +0.000 C 
BRANCH  21  22
ATOM     22  N   UNL     1       2.035   3.589  19.469  0.00  0.00    +0.000 N 
ATOM     23  C   UNL     1       0.707   3.284  19.514  0.00  0.00    +0.000 A 
ATOM     24  N   UNL     1       0.500   2.159  18.869  0.00  0.00    +0.000 NA
ATOM     25  C   UNL     1       1.747   1.802  18.452  0.00  0.00    +0.000 A 
ATOM     26  N   UNL     1       2.719   2.648  18.799  0.00  0.00    +0.000 NA
ENDBRANCH  21  22
ENDBRANCH   1  21
TORSDOF 6
ENDMDL
MODEL 4
REMARK VINA RESULT:      -7.2      2.096      4.292
REMARK  Name = 
REMARK  6 active torsions:
REMARK  status: ('A' for Active; 'I' for Inactive)
REMARK    1  A    between atoms: N_7  and  C_8
REMARK    2  A    between atoms: C_8  and  C_9
REMARK    3  A    between atoms: C_9  and  O_10
REMARK    4  A    between atoms: C_9  and  C_11
REMARK    5  A    between atoms: C_9  and  C_17
REMARK    6  A    between atoms: C_11  and  N_12
REMARK                            x       y       z     vdW  Elec       q    Type
REMARK                         _______ _______ _______ _____ _____    ______ ____
ROOT
ATOM      1  C   UNL     1       3.082   5.782  18.722  0.00  0.00    +0.000 C 
ENDROOT
BRANCH   1   2
ATOM      2  C   UNL     1       2.365   7.126  18.949  0.00  0.00    +0.000 A 
ATOM      3  C   UNL     1       2.259   8.123  17.959  0.00  0.00    +0.000 A 
ATOM      4  C   UNL     1       1.644   9.351  18.232  0.00  0.00    +0.000 A 
ATOM      5  C   UNL     1       1.137   9.604  19.499  0.00  0.00    +0.000 A 
ATOM      6  F   UNL     1       0.558  10.783  19.754  0.00  0.00    +0.000 F 
ATOM      7  C   UNL     1       1.220   8.649  20.497  0.00  0.00    +0.000 A 
ATOM      8  C   UNL     1       1.820   7.424  20.214  0.00  0.00    +0.000 A 
ATOM      9  F   UNL     1       1.878   6.512  21.196  0.00  0.00    +0.000 F 
ENDBRANCH   1   2
BRANCH   1  10
ATOM     10  O   UNL     1       3.002   5.555  17.293  0.00  0.00    +0.000 OA
ATOM     11  H   UNL     1       3.158   4.611  17.109  0.00  0.00    +0.000 HD
ENDBRANCH   1  10
BRANCH   1  12
ATOM     12  C   UNL     1       4.601   5.849  19.027  0.00  0.00    +0.000 C 
BRANCH  12  19
ATOM     13  O   UNL     1       7.861   5.407  14.273  0.00  0.00    +0.000 OA
ATOM     14  N   UNL     1       7.006   4.840  14.968  0.00  0.00    +0.000 N 
ATOM     15  O   UNL     1       6.539   3.711  14.745  0.00  0.00    +0.000 OA
ATOM     16  C   UNL     1       6.504   5.563  16.130  0.00  0.00    +0.000 A 
ATOM     17  N   UNL     1       6.939   6.821  16.472  0.00  0.00    +0.000 NA
ATOM     18  C   UNL     1       6.251   7.074  17.561  0.00  0.00    +0.000 A 
ATOM     19  N   UNL     1       5.441   6.018  17.854  0.00  0.00    +0.000 N 
ATOM     20  N   UNL     1       5.559   5.038  16.934  0.00  0.00    +0.000 NA
ENDBRANCH  12  19
ENDBRANCH   1  12
BRANCH   1  21
ATOM     21  C   UNL     1       2.405   4.607  19.493  0.00  0.00    +0.000 C 
BRANCH  21  22
ATOM     22  N   UNL     1       2.972   3.302  19.245  0.00  0.00    +0.000 N 
ATOM     23  C   UNL     1       3.763   2.559  20.070  0.00  0.00    +0.000 A 
ATOM     24  N   UNL     1       4.101   1.447  19.459  0.00  0.00    +0.000 NA
ATOM     25  C   UNL     1       3.494   1.560  18.245  0.00  0.00    +0.000 A 
ATOM     26  N   UNL     1       2.794   2.682  18.068  0.00  0.00    +0.000 NA
ENDBRANCH  21  22
ENDBRANCH   1  21
TORSDOF 6
ENDMDL
MODEL 5
REMARK VINA RESULT:      -7.1      2.184      4.514
REMARK  Name = 
REMARK  6 active torsions:
REMARK  status: ('A' for Active; 'I' for Inactive)
REMARK    1  A    between atoms: N_7  and  C_8
REMARK    2  A    between atoms: C_8  and  C_9
REMARK    3  A    between atoms: C_9  and  O_10
REMARK    4  A    between atoms: C_9  and  C_11
REMARK    5  A    between atoms: C_9  and  C_17
REMARK    6  A    between atoms: C_11  and  N_12
REMARK                            x       y       z     vdW  Elec       q    Type
REMARK                         _______ _______ _______ _____ _____    ______ ____
ROOT
ATOM      1  C   UNL     1       3.037   5.920  18.962  0.00  0.00    +0.000 C 
ENDROOT
BRANCH   1   2
ATOM      2  C   UNL     1       2.385   7.315  18.936  0.00  0.00    +0.000 A 
ATOM      3  C   UNL     1       2.433   8.171  17.817  0.00  0.00    +0.000 A 
ATOM      4  C   UNL     1       1.871   9.452  17.861  0.00  0.00    +0.000 A 
ATOM      5  C   UNL     1       1.263   9.901  19.025  0.00  0.00    +0.000 A 
ATOM      6  F   UNL     1       0.736  11.130  19.062  0.00  0.00    +0.000 F 
ATOM      7  C   UNL     1       1.194   9.090  20.144  0.00  0.00    +0.000 A 
ATOM      8  C   UNL     1       1.742   7.811  20.088  0.00  0.00    +0.000 A 
ATOM      9  F   UNL     1       1.651   7.041  21.183  0.00  0.00    +0.000 F 
ENDBRANCH   1   2
BRANCH   1  10
ATOM     10  O   UNL     1       2.876   5.409  17.617  0.00  0.00    +0.000 OA
ATOM     11  H   UNL     1       2.482   6.102  17.055  0.00  0.00    +0.000 HD
ENDBRANCH   1  10
BRANCH   1  12
ATOM     12  C   UNL     1       4.571   5.976  19.184  0.00  0.00    +0.000 C 
BRANCH  12  19
ATOM     13  O   UNL     1       7.661   5.345  14.339  0.00  0.00    +0.000 OA
ATOM     14  N   UNL     1       6.881   4.782  15.118  0.00  0.00    +0.000 N 
ATOM     15  O   UNL     1       6.492   3.607  15.016  0.00  0.00    +0.000 OA
ATOM     16  C   UNL     1       6.373   5.568  16.237  0.00  0.00    +0.000 A 
ATOM     17  N   UNL     1       6.725   6.880  16.448  0.00  0.00    +0.000 NA
ATOM     18  C   UNL     1       6.064   7.179  17.542  0.00  0.00    +0.000 A 
ATOM     19  N   UNL     1       5.348   6.098  17.962  0.00  0.00    +0.000 N 
ATOM     20  N   UNL     1       5.503   5.051  17.125  0.00  0.00    +0.000 NA
ENDBRANCH  12  19
ENDBRANCH   1  12
BRANCH   1  21
ATOM     21  C   UNL     1       2.355   4.963  19.988  0.00  0.00    +0.000 C 
BRANCH  21  22
ATOM     22  N   UNL     1       1.975   3.672  19.465  0.00  0.00    +0.000 N 
ATOM     23  C   UNL     1       0.723   3.141  19.366  0.00  0.00    +0.000 A 
ATOM     24  N   UNL     1       0.806   1.927  18.872  0.00  0.00    +0.000 NA
ATOM     25  C   UNL     1       2.145   1.753  18.692  0.00  0.00    +0.000 A 
ATOM     26  N   UNL     1       2.900   2.795  19.045  0.00  0.00    +0.000 NA
ENDBRANCH  21  22
ENDBRANCH   1  21
TORSDOF 6
ENDMDL
MODEL 6
REMARK VINA RESULT:      -7.0      2.337      3.996
REMARK  Name = 
REMARK  6 active torsions:
REMARK  status: ('A' for Active; 'I' for Inactive)
REMARK    1  A    between atoms: N_7  and  C_8
REMARK    2  A    between atoms: C_8  and  C_9
REMARK    3  A    between atoms: C_9  and  O_10
REMARK    4  A    between atoms: C_9  and  C_11
REMARK    5  A    between atoms: C_9  and  C_17
REMARK    6  A    between atoms: C_11  and  N_12
REMARK                            x       y       z     vdW  Elec       q    Type
REMARK                         _______ _______ _______ _____ _____    ______ ____
ROOT
ATOM      1  C   UNL     1       2.412   6.216  19.023  0.00  0.00    +0.000 C 
ENDROOT
BRANCH   1   2
ATOM      2  C   UNL     1       1.918   7.674  19.035  0.00  0.00    +0.000 A 
ATOM      3  C   UNL     1       1.980   8.522  17.911  0.00  0.00    +0.000 A 
ATOM      4  C   UNL     1       1.567   9.857  17.987  0.00  0.00    +0.000 A 
ATOM      5  C   UNL     1       1.099  10.368  19.190  0.00  0.00    +0.000 A 
ATOM      6  F   UNL     1       0.715  11.648  19.257  0.00  0.00    +0.000 F 
ATOM      7  C   UNL     1       1.022   9.568  20.316  0.00  0.00    +0.000 A 
ATOM      8  C   UNL     1       1.420   8.236  20.228  0.00  0.00    +0.000 A 
ATOM      9  F   UNL     1       1.324   7.478  21.331  0.00  0.00    +0.000 F 
ENDBRANCH   1   2
BRANCH   1  10
ATOM     10  O   UNL     1       2.821   5.973  17.655  0.00  0.00    +0.000 OA
ATOM     11  H   UNL     1       3.435   5.217  17.633  0.00  0.00    +0.000 HD
ENDBRANCH   1  10
BRANCH   1  12
ATOM     12  C   UNL     1       3.700   6.008  19.863  0.00  0.00    +0.000 C 
BRANCH  12  19
ATOM     13  O   UNL     1       7.981   4.397  16.329  0.00  0.00    +0.000 OA
ATOM     14  N   UNL     1       7.309   5.358  16.728  0.00  0.00    +0.000 N 
ATOM     15  O   UNL     1       7.424   6.526  16.324  0.00  0.00    +0.000 OA
ATOM     16  C   UNL     1       6.315   5.093  17.761  0.00  0.00    +0.000 A 
ATOM     17  N   UNL     1       6.104   3.843  18.292  0.00  0.00    +0.000 NA
ATOM     18  C   UNL     1       5.138   4.059  19.154  0.00  0.00    +0.000 A 
ATOM     19  N   UNL     1       4.790   5.377  19.141  0.00  0.00    +0.000 N 
ATOM     20  N   UNL     1       5.551   6.076  18.274  0.00  0.00    +0.000 NA
ENDBRANCH  12  19
ENDBRANCH   1  12
BRANCH   1  21
ATOM     21  C   UNL     1       1.300   5.206  19.441  0.00  0.00    +0.000 C 
BRANCH  21  22
ATOM     22  N   UNL     1       1.576   3.824  19.130  0.00  0.00    +0.000 N 
ATOM     23  C   UNL     1       1.796   2.795  19.998  0.00  0.00    +0.000 A 
ATOM     24  N   UNL     1       2.050   1.701  19.316  0.00  0.00    +0.000 NA
ATOM     25  C   UNL     1       1.985   2.117  18.020  0.00  0.00    +0.000 A 
ATOM     26  N   UNL     1       1.700   3.411  17.859  0.00  0.00    +0.000 NA
ENDBRANCH  21  22
ENDBRANCH   1  21
TORSDOF 6
ENDMDL
MODEL 7
REMARK VINA RESULT:      -7.0      3.539      6.494
REMARK  Name = 
REMARK  6 active torsions:
REMARK  status: ('A' for Active; 'I' for Inactive)
REMARK    1  A    between atoms: N_7  and  C_8
REMARK    2  A    between atoms: C_8  and  C_9
REMARK    3  A    between atoms: C_9  and  O_10
REMARK    4  A    between atoms: C_9  and  C_11
REMARK    5  A    between atoms: C_9  and  C_17
REMARK    6  A    between atoms: C_11  and  N_12
REMARK                            x       y       z     vdW  Elec       q    Type
REMARK                         _______ _______ _______ _____ _____    ______ ____
ROOT
ATOM      1  C   UNL     1       4.609   4.084  18.339  0.00  0.00    +0.000 C 
ENDROOT
BRANCH   1   2
ATOM      2  C   UNL     1       5.360   4.355  17.023  0.00  0.00    +0.000 A 
ATOM      3  C   UNL     1       4.776   4.189  15.750  0.00  0.00    +0.000 A 
ATOM      4  C   UNL     1       5.518   4.396  14.582  0.00  0.00    +0.000 A 
ATOM      5  C   UNL     1       6.854   4.760  14.666  0.00  0.00    +0.000 A 
ATOM      6  F   UNL     1       7.559   4.947  13.543  0.00  0.00    +0.000 F 
ATOM      7  C   UNL     1       7.463   4.935  15.896  0.00  0.00    +0.000 A 
ATOM      8  C   UNL     1       6.715   4.742  17.055  0.00  0.00    +0.000 A 
ATOM      9  F   UNL     1       7.326   4.929  18.235  0.00  0.00    +0.000 F 
ENDBRANCH   1   2
BRANCH   1  10
ATOM     10  O   UNL     1       5.390   3.065  19.010  0.00  0.00    +0.000 OA
ATOM     11  H   UNL     1       4.862   2.249  19.078  0.00  0.00    +0.000 HD
ENDBRANCH   1  10
BRANCH   1  12
ATOM     12  C   UNL     1       4.630   5.297  19.306  0.00  0.00    +0.000 C 
BRANCH  12  19
ATOM     13  O   UNL     1       0.824   9.554  18.403  0.00  0.00    +0.000 OA
ATOM     14  N   UNL     1       1.264   8.754  19.240  0.00  0.00    +0.000 N 
ATOM     15  O   UNL     1       0.850   8.640  20.405  0.00  0.00    +0.000 OA
ATOM     16  C   UNL     1       2.362   7.889  18.824  0.00  0.00    +0.000 A 
ATOM     17  N   UNL     1       2.908   7.931  17.563  0.00  0.00    +0.000 NA
ATOM     18  C   UNL     1       3.832   7.000  17.623  0.00  0.00    +0.000 A 
ATOM     19  N   UNL     1       3.839   6.431  18.861  0.00  0.00    +0.000 N 
ATOM     20  N   UNL     1       2.921   7.003  19.669  0.00  0.00    +0.000 NA
ENDBRANCH  12  19
ENDBRANCH   1  12
BRANCH   1  21
ATOM     21  C   UNL     1       3.153   3.579  18.103  0.00  0.00    +0.000 C 
BRANCH  21  22
ATOM     22  N   UNL     1       2.393   3.311  19.301  0.00  0.00    +0.000 N 
ATOM     23  C   UNL     1       1.191   3.838  19.669  0.00  0.00    +0.000 A 
ATOM     24  N   UNL     1       0.855   3.367  20.848  0.00  0.00    +0.000 NA
ATOM     25  C   UNL     1       1.900   2.555  21.171  0.00  0.00    +0.000 A 
ATOM     26  N   UNL     1       2.867   2.492  20.253  0.00  0.00    +0.000 NA
ENDBRANCH  21  22
ENDBRANCH   1  21
TORSDOF 6
ENDMDL
MODEL 8
REMARK VINA RESULT:      -7.0      1.379      1.598
REMARK  Name = 
REMARK  6 active torsions:
REMARK  status: ('A' for Active; 'I' for Inactive)
REMARK    1  A    between atoms: N_7  and  C_8
REMARK    2  A    between atoms: C_8  and  C_9
REMARK    3  A    between atoms: C_9  and  O_10
REMARK    4  A    between atoms: C_9  and  C_11
REMARK    5  A    between atoms: C_9  and  C_17
REMARK    6  A    between atoms: C_11  and  N_12
REMARK                            x       y       z     vdW  Elec       q    Type
REMARK                         _______ _______ _______ _____ _____    ______ ____
ROOT
ATOM      1  C   UNL     1       3.562   6.547  18.249  0.00  0.00    +0.000 C 
ENDROOT
BRANCH   1   2
ATOM      2  C   UNL     1       2.573   7.693  18.532  0.00  0.00    +0.000 A 
ATOM      3  C   UNL     1       2.323   8.741  17.624  0.00  0.00    +0.000 A 
ATOM      4  C   UNL     1       1.455   9.790  17.951  0.00  0.00    +0.000 A 
ATOM      5  C   UNL     1       0.834   9.813  19.192  0.00  0.00    +0.000 A 
ATOM      6  F   UNL     1       0.013  10.823  19.500  0.00  0.00    +0.000 F 
ATOM      7  C   UNL     1       1.053   8.801  20.110  0.00  0.00    +0.000 A 
ATOM      8  C   UNL     1       1.906   7.753  19.772  0.00  0.00    +0.000 A 
ATOM      9  F   UNL     1       2.092   6.779  20.676  0.00  0.00    +0.000 F 
ENDBRANCH   1   2
BRANCH   1  10
ATOM     10  O   UNL     1       4.182   6.266  19.528  0.00  0.00    +0.000 OA
ATOM     11  H   UNL     1       5.004   5.764  19.382  0.00  0.00    +0.000 HD
ENDBRANCH   1  10
BRANCH   1  12
ATOM     12  C   UNL     1       2.854   5.223  17.854  0.00  0.00    +0.000 C 
BRANCH  12  19
ATOM     13  O   UNL     1       3.333   1.408  22.171  0.00  0.00    +0.000 OA
ATOM     14  N   UNL     1       2.690   2.379  21.749  0.00  0.00    +0.000 N 
ATOM     15  O   UNL     1       1.744   2.922  22.341  0.00  0.00    +0.000 OA
ATOM     16  C   UNL     1       3.072   2.916  20.448  0.00  0.00    +0.000 A 
ATOM     17  N   UNL     1       4.096   2.394  19.695  0.00  0.00    +0.000 NA
ATOM     18  C   UNL     1       4.098   3.172  18.637  0.00  0.00    +0.000 A 
ATOM     19  N   UNL     1       3.118   4.112  18.751  0.00  0.00    +0.000 N 
ATOM     20  N   UNL     1       2.420   3.957  19.895  0.00  0.00    +0.000 NA
ENDBRANCH  12  19
ENDBRANCH   1  12
BRANCH   1  21
ATOM     21  C   UNL     1       4.646   6.939  17.199  0.00  0.00    +0.000 C 
BRANCH  21  22
ATOM     22  N   UNL     1       5.804   6.079  17.160  0.00  0.00    +0.000 N 
ATOM     23  C   UNL     1       6.196   5.242  16.158  0.00  0.00    +0.000 A 
ATOM     24  N   UNL     1       7.284   4.605  16.527  0.00  0.00    +0.000 NA
ATOM     25  C   UNL     1       7.517   5.083  17.782  0.00  0.00    +0.000 A 
ATOM     26  N   UNL     1       6.634   5.987  18.212  0.00  0.00    +0.000 NA
ENDBRANCH  21  22
ENDBRANCH   1  21
TORSDOF 6
ENDMDL
MODEL 9
REMARK VINA RESULT:      -6.9      3.558      6.469
REMARK  Name = 
REMARK  6 active torsions:
REMARK  status: ('A' for Active; 'I' for Inactive)
REMARK    1  A    between atoms: N_7  and  C_8
REMARK    2  A    between atoms: C_8  and  C_9
REMARK    3  A    between atoms: C_9  and  O_10
REMARK    4  A    between atoms: C_9  and  C_11
REMARK    5  A    between atoms: C_9  and  C_17
REMARK    6  A    between atoms: C_11  and  N_12
REMARK                            x       y       z     vdW  Elec       q    Type
REMARK                         _______ _______ _______ _____ _____    ______ ____
ROOT
ATOM      1  C   UNL     1       4.130   4.826  18.667  0.00  0.00    +0.000 C 
ENDROOT
BRANCH   1   2
ATOM      2  C   UNL     1       5.142   4.918  17.511  0.00  0.00    +0.000 A 
ATOM      3  C   UNL     1       6.317   5.695  17.569  0.00  0.00    +0.000 A 
ATOM      4  C   UNL     1       7.178   5.788  16.470  0.00  0.00    +0.000 A 
ATOM      5  C   UNL     1       6.874   5.116  15.294  0.00  0.00    +0.000 A 
ATOM      6  F   UNL     1       7.699   5.218  14.245  0.00  0.00    +0.000 F 
ATOM      7  C   UNL     1       5.731   4.342  15.198  0.00  0.00    +0.000 A 
ATOM      8  C   UNL     1       4.887   4.242  16.301  0.00  0.00    +0.000 A 
ATOM      9  F   UNL     1       3.791   3.475  16.184  0.00  0.00    +0.000 F 
ENDBRANCH   1   2
BRANCH   1  10
ATOM     10  O   UNL     1       4.596   5.787  19.646  0.00  0.00    +0.000 OA
ATOM     11  H   UNL     1       5.380   5.427  20.101  0.00  0.00    +0.000 HD
ENDBRANCH   1  10
BRANCH   1  12
ATOM     12  C   UNL     1       2.714   5.322  18.271  0.00  0.00    +0.000 C 
BRANCH  12  19
ATOM     13  O   UNL     1       1.048  10.273  20.747  0.00  0.00    +0.000 OA
ATOM     14  N   UNL     1       1.259   9.068  20.942  0.00  0.00    +0.000 N 
ATOM     15  O   UNL     1       1.090   8.478  22.021  0.00  0.00    +0.000 OA
ATOM     16  C   UNL     1       1.757   8.288  19.815  0.00  0.00    +0.000 A 
ATOM     17  N   UNL     1       1.991   8.833  18.575  0.00  0.00    +0.000 NA
ATOM     18  C   UNL     1       2.407   7.797  17.883  0.00  0.00    +0.000 A 
ATOM     19  N   UNL     1       2.422   6.686  18.673  0.00  0.00    +0.000 N 
ATOM     20  N   UNL     1       2.036   6.976  19.933  0.00  0.00    +0.000 NA
ENDBRANCH  12  19
ENDBRANCH   1  12
BRANCH   1  21
ATOM     21  C   UNL     1       4.070   3.401  19.297  0.00  0.00    +0.000 C 
BRANCH  21  22
ATOM     22  N   UNL     1       2.918   3.143  20.128  0.00  0.00    +0.000 N 
ATOM     23  C   UNL     1       1.845   2.348  19.854  0.00  0.00    +0.000 A 
ATOM     24  N   UNL     1       0.994   2.412  20.852  0.00  0.00    +0.000 NA
ATOM     25  C   UNL     1       1.590   3.277  21.719  0.00  0.00    +0.000 A 
ATOM     26  N   UNL     1       2.770   3.753  21.315  0.00  0.00    +0.000 NA
ENDBRANCH  21  22
ENDBRANCH   1  21
TORSDOF 6
ENDMDL
