MODEL 1
REMARK VINA RESULT:      -8.0      0.000      0.000
REMARK  Name = 
REMARK  4 active torsions:
REMARK  status: ('A' for Active; 'I' for Inactive)
REMARK    1  A    between atoms: N_2  and  C_4
REMARK    2  A    between atoms: N_12  and  C_13
REMARK    3  A    between atoms: P_18  and  O_20
REMARK    4  A    between atoms: C_23  and  O_24
REMARK                            x       y       z     vdW  Elec       q    Type
REMARK                         _______ _______ _______ _____ _____    ______ ____
ROOT
ATOM      1  C   UNL     1       5.506   5.151  18.670  0.00  0.00    +0.000 C 
ATOM      2  O   UNL     1       5.562   3.736  19.025  0.00  0.00    +0.000 OA
ATOM      3  C   UNL     1       4.213   3.319  19.208  0.00  0.00    +0.000 C 
ATOM      4  C   UNL     1       3.902   1.878  18.867  0.00  0.00    +0.000 C 
ATOM      5  O   UNL     1       2.524   1.588  19.074  0.00  0.00    +0.000 OA
ATOM      6  P   UNL     1       1.441   2.765  19.236  0.00  0.00    +0.000 P 
ATOM      7  O   UNL     1       0.031   2.391  18.929  0.00  0.00    +0.000 OA
ATOM      8  O   UNL     1       1.998   4.086  18.512  0.00  0.00    +0.000 OA
ATOM      9  C   UNL     1       3.383   4.190  18.287  0.00  0.00    +0.000 C 
ATOM     10  C   UNL     1       4.023   5.547  18.522  0.00  0.00    +0.000 C 
ENDROOT
BRANCH   1  19
ATOM     11  C   UNL     1       7.150   4.992  14.108  0.00  0.00    +0.000 A 
ATOM     12  C   UNL     1       6.361   3.944  13.617  0.00  0.00    +0.000 A 
ATOM     13  C   UNL     1       5.492   3.276  14.479  0.00  0.00    +0.000 A 
ATOM     14  C   UNL     1       5.381   3.642  15.826  0.00  0.00    +0.000 A 
ATOM     15  C   UNL     1       6.179   4.705  16.273  0.00  0.00    +0.000 A 
ATOM     16  C   UNL     1       7.076   5.389  15.449  0.00  0.00    +0.000 A 
ATOM     17  N   UNL     1       7.708   6.364  16.177  0.00  0.00    +0.000 NA
ATOM     18  N   UNL     1       7.236   6.324  17.421  0.00  0.00    +0.000 NA
ATOM     19  N   UNL     1       6.301   5.354  17.474  0.00  0.00    +0.000 N 
BRANCH  11  21
ATOM     20  O   UNL     1       7.623   5.910  12.071  0.00  0.00    +0.000 OA
ATOM     21  N   UNL     1       8.025   5.722  13.230  0.00  0.00    +0.000 N 
ATOM     22  O   UNL     1       9.138   6.038  13.666  0.00  0.00    +0.000 OA
ENDBRANCH  11  21
ENDBRANCH   1  19
BRANCH   6  23
ATOM     23  O   UNL     1       1.583   3.158  20.785  0.00  0.00    +0.000 OA
ATOM     24  H   UNL     1       2.535   3.184  21.007  0.00  0.00    +0.000 HD
ENDBRANCH   6  23
BRANCH  10  25
ATOM     25  O   UNL     1       3.553   6.189  19.719  0.00  0.00    +0.000 OA
ATOM     26  H   UNL     1       3.097   7.022  19.504  0.00  0.00    +0.000 HD
ENDBRANCH  10  25
TORSDOF 4
ENDMDL
MODEL 2
REMARK VINA RESULT:      -7.8      4.070      7.093
REMARK  Name = 
REMARK  4 active torsions:
REMARK  status: ('A' for Active; 'I' for Inactive)
REMARK    1  A    between atoms: N_2  and  C_4
REMARK    2  A    between atoms: N_12  and  C_13
REMARK    3  A    between atoms: P_18  and  O_20
REMARK    4  A    between atoms: C_23  and  O_24
REMARK                            x       y       z     vdW  Elec       q    Type
REMARK                         _______ _______ _______ _____ _____    ______ ____
ROOT
ATOM      1  C   UNL     1       3.289   4.827  18.929  0.00  0.00    +0.000 C 
ATOM      2  O   UNL     1       4.676   4.717  19.369  0.00  0.00    +0.000 OA
ATOM      3  C   UNL     1       5.464   4.655  18.184  0.00  0.00    +0.000 C 
ATOM      4  C   UNL     1       6.854   5.247  18.269  0.00  0.00    +0.000 C 
ATOM      5  O   UNL     1       7.533   5.141  17.023  0.00  0.00    +0.000 OA
ATOM      6  P   UNL     1       6.736   4.819  15.665  0.00  0.00    +0.000 P 
ATOM      7  O   UNL     1       7.415   5.234  14.404  0.00  0.00    +0.000 OA
ATOM      8  O   UNL     1       5.209   5.287  15.836  0.00  0.00    +0.000 OA
ATOM      9  C   UNL     1       4.701   5.443  17.139  0.00  0.00    +0.000 C 
ATOM     10  C   UNL     1       3.284   4.957  17.392  0.00  0.00    +0.000 C 
ENDROOT
BRANCH   1  19
ATOM     11  C   UNL     1       1.218   9.099  19.931  0.00  0.00    +0.000 A 
ATOM     12  C   UNL     1       1.465   9.762  18.721  0.00  0.00    +0.000 A 
ATOM     13  C   UNL     1       2.204   9.123  17.726  0.00  0.00    +0.000 A 
ATOM     14  C   UNL     1       2.693   7.823  17.906  0.00  0.00    +0.000 A 
ATOM     15  C   UNL     1       2.411   7.192  19.125  0.00  0.00    +0.000 A 
ATOM     16  C   UNL     1       1.692   7.801  20.156  0.00  0.00    +0.000 A 
ATOM     17  N   UNL     1       1.592   6.934  21.213  0.00  0.00    +0.000 NA
ATOM     18  N   UNL     1       2.211   5.803  20.882  0.00  0.00    +0.000 NA
ATOM     19  N   UNL     1       2.676   5.943  19.625  0.00  0.00    +0.000 N 
BRANCH  11  21
ATOM     20  O   UNL     1       1.036  10.398  21.800  0.00  0.00    +0.000 OA
ATOM     21  N   UNL     1       0.426   9.722  20.957  0.00  0.00    +0.000 N 
ATOM     22  O   UNL     1      -0.785   9.475  20.972  0.00  0.00    +0.000 OA
ENDBRANCH  11  21
ENDBRANCH   1  19
BRANCH   6  23
ATOM     23  O   UNL     1       6.594   3.221  15.715  0.00  0.00    +0.000 OA
ATOM     24  H   UNL     1       7.407   2.830  15.336  0.00  0.00    +0.000 HD
ENDBRANCH   6  23
BRANCH  10  25
ATOM     25  O   UNL     1       3.009   3.685  16.782  0.00  0.00    +0.000 OA
ATOM     26  H   UNL     1       3.821   3.151  16.725  0.00  0.00    +0.000 HD
ENDBRANCH  10  25
TORSDOF 4
ENDMDL
MODEL 3
REMARK VINA RESULT:      -7.5      5.009      7.368
REMARK  Name = 
REMARK  4 active torsions:
REMARK  status: ('A' for Active; 'I' for Inactive)
REMARK    1  A    between atoms: N_2  and  C_4
REMARK    2  A    between atoms: N_12  and  C_13
REMARK    3  A    between atoms: P_18  and  O_20
REMARK    4  A    between atoms: C_23  and  O_24
REMARK                            x       y       z     vdW  Elec       q    Type
REMARK                         _______ _______ _______ _____ _____    ______ ____
ROOT
ATOM      1  C   UNL     1       2.763   7.210  19.712  0.00  0.00    +0.000 C 
ATOM      2  O   UNL     1       3.817   6.999  18.725  0.00  0.00    +0.000 OA
ATOM      3  C   UNL     1       3.908   5.591  18.535  0.00  0.00    +0.000 C 
ATOM      4  C   UNL     1       4.330   5.123  17.159  0.00  0.00    +0.000 C 
ATOM      5  O   UNL     1       4.366   3.702  17.090  0.00  0.00    +0.000 OA
ATOM      6  P   UNL     1       3.648   2.795  18.206  0.00  0.00    +0.000 P 
ATOM      7  O   UNL     1       3.301   1.408  17.786  0.00  0.00    +0.000 OA
ATOM      8  O   UNL     1       2.467   3.647  18.886  0.00  0.00    +0.000 OA
ATOM      9  C   UNL     1       2.516   5.050  18.790  0.00  0.00    +0.000 C 
ATOM     10  C   UNL     1       2.121   5.843  20.024  0.00  0.00    +0.000 C 
ENDROOT
BRANCH   1  19
ATOM     11  C   UNL     1      -0.408  10.865  19.347  0.00  0.00    +0.000 A 
ATOM     12  C   UNL     1      -0.732  11.022  20.701  0.00  0.00    +0.000 A 
ATOM     13  C   UNL     1      -0.185  10.153  21.644  0.00  0.00    +0.000 A 
ATOM     14  C   UNL     1       0.696   9.132  21.266  0.00  0.00    +0.000 A 
ATOM     15  C   UNL     1       1.004   9.019  19.903  0.00  0.00    +0.000 A 
ATOM     16  C   UNL     1       0.465   9.855  18.923  0.00  0.00    +0.000 A 
ATOM     17  N   UNL     1       0.952   9.488  17.695  0.00  0.00    +0.000 NA
ATOM     18  N   UNL     1       1.782   8.462  17.868  0.00  0.00    +0.000 NA
ATOM     19  N   UNL     1       1.838   8.198  19.189  0.00  0.00    +0.000 N 
BRANCH  11  21
ATOM     20  O   UNL     1      -0.376  12.882  18.276  0.00  0.00    +0.000 OA
ATOM     21  N   UNL     1      -0.928  11.773  18.361  0.00  0.00    +0.000 N 
ATOM     22  O   UNL     1      -1.929  11.418  17.728  0.00  0.00    +0.000 OA
ENDBRANCH  11  21
ENDBRANCH   1  19
BRANCH   6  23
ATOM     23  O   UNL     1       4.741   2.759  19.381  0.00  0.00    +0.000 OA
ATOM     24  H   UNL     1       5.134   3.651  19.459  0.00  0.00    +0.000 HD
ENDBRANCH   6  23
BRANCH  10  25
ATOM     25  O   UNL     1       2.665   5.298  21.238  0.00  0.00    +0.000 OA
ATOM     26  H   UNL     1       3.230   5.954  21.683  0.00  0.00    +0.000 HD
ENDBRANCH  10  25
TORSDOF 4
ENDMDL
MODEL 4
REMARK VINA RESULT:      -7.5      4.594      7.410
REMARK  Name = 
REMARK  4 active torsions:
REMARK  status: ('A' for Active; 'I' for Inactive)
REMARK    1  A    between atoms: N_2  and  C_4
REMARK    2  A    between atoms: N_12  and  C_13
REMARK    3  A    between atoms: P_18  and  O_20
REMARK    4  A    between atoms: C_23  and  O_24
REMARK                            x       y       z     vdW  Elec       q    Type
REMARK                         _______ _______ _______ _____ _____    ______ ____
ROOT
ATOM      1  C   UNL     1       3.491   6.446  18.626  0.00  0.00    +0.000 C 
ATOM      2  O   UNL     1       4.870   6.912  18.728  0.00  0.00    +0.000 OA
ATOM      3  C   UNL     1       5.608   6.189  17.749  0.00  0.00    +0.000 C 
ATOM      4  C   UNL     1       6.790   6.905  17.132  0.00  0.00    +0.000 C 
ATOM      5  O   UNL     1       7.432   6.089  16.159  0.00  0.00    +0.000 OA
ATOM      6  P   UNL     1       6.709   4.787  15.554  0.00  0.00    +0.000 P 
ATOM      7  O   UNL     1       7.211   4.328  14.228  0.00  0.00    +0.000 OA
ATOM      8  O   UNL     1       5.118   4.969  15.687  0.00  0.00    +0.000 OA
ATOM      9  C   UNL     1       4.629   5.889  16.632  0.00  0.00    +0.000 C 
ATOM     10  C   UNL     1       3.403   5.476  17.429  0.00  0.00    +0.000 C 
ENDROOT
BRANCH   1  19
ATOM     11  C   UNL     1       0.520  10.131  19.693  0.00  0.00    +0.000 A 
ATOM     12  C   UNL     1       0.196   9.789  21.013  0.00  0.00    +0.000 A 
ATOM     13  C   UNL     1       0.690   8.604  21.556  0.00  0.00    +0.000 A 
ATOM     14  C   UNL     1       1.519   7.753  20.813  0.00  0.00    +0.000 A 
ATOM     15  C   UNL     1       1.829   8.140  19.502  0.00  0.00    +0.000 A 
ATOM     16  C   UNL     1       1.341   9.308  18.911  0.00  0.00    +0.000 A 
ATOM     17  N   UNL     1       1.816   9.401  17.629  0.00  0.00    +0.000 NA
ATOM     18  N   UNL     1       2.589   8.343  17.395  0.00  0.00    +0.000 NA
ATOM     19  N   UNL     1       2.623   7.603  18.522  0.00  0.00    +0.000 N 
BRANCH  11  21
ATOM     20  O   UNL     1      -1.020  11.326  18.505  0.00  0.00    +0.000 OA
ATOM     21  N   UNL     1       0.055  11.367  19.123  0.00  0.00    +0.000 N 
ATOM     22  O   UNL     1       0.793  12.354  19.221  0.00  0.00    +0.000 OA
ENDBRANCH  11  21
ENDBRANCH   1  19
BRANCH   6  23
ATOM     23  O   UNL     1       7.004   3.674  16.672  0.00  0.00    +0.000 OA
ATOM     24  H   UNL     1       6.158   3.450  17.109  0.00  0.00    +0.000 HD
ENDBRANCH   6  23
BRANCH  10  25
ATOM     25  O   UNL     1       3.461   4.113  17.882  0.00  0.00    +0.000 OA
ATOM     26  H   UNL     1       3.963   3.565  17.252  0.00  0.00    +0.000 HD
ENDBRANCH  10  25
TORSDOF 4
ENDMDL
MODEL 5
REMARK VINA RESULT:      -7.4      5.112      7.396
REMARK  Name = 
REMARK  4 active torsions:
REMARK  status: ('A' for Active; 'I' for Inactive)
REMARK    1  A    between atoms: N_2  and  C_4
REMARK    2  A    between atoms: N_12  and  C_13
REMARK    3  A    between atoms: P_18  and  O_20
REMARK    4  A    between atoms: C_23  and  O_24
REMARK                            x       y       z     vdW  Elec       q    Type
REMARK                         _______ _______ _______ _____ _____    ______ ____
ROOT
ATOM      1  C   UNL     1       2.171   8.597  19.213  0.00  0.00    +0.000 C 
ATOM      2  O   UNL     1       1.544   9.301  20.327  0.00  0.00    +0.000 OA
ATOM      3  C   UNL     1       0.549  10.143  19.755  0.00  0.00    +0.000 C 
ATOM      4  C   UNL     1      -0.676  10.410  20.604  0.00  0.00    +0.000 C 
ATOM      5  O   UNL     1      -1.601  11.246  19.919  0.00  0.00    +0.000 OA
ATOM      6  P   UNL     1      -1.494  11.484  18.333  0.00  0.00    +0.000 P 
ATOM      7  O   UNL     1      -2.751  11.918  17.659  0.00  0.00    +0.000 OA
ATOM      8  O   UNL     1      -0.728  10.236  17.672  0.00  0.00    +0.000 OA
ATOM      9  C   UNL     1       0.082   9.437  18.499  0.00  0.00    +0.000 C 
ATOM     10  C   UNL     1       1.408   8.968  17.925  0.00  0.00    +0.000 C 
ENDROOT
BRANCH   1  19
ATOM     11  C   UNL     1       3.217   3.859  19.217  0.00  0.00    +0.000 A 
ATOM     12  C   UNL     1       3.978   3.792  18.042  0.00  0.00    +0.000 A 
ATOM     13  C   UNL     1       4.140   4.936  17.263  0.00  0.00    +0.000 A 
ATOM     14  C   UNL     1       3.568   6.158  17.637  0.00  0.00    +0.000 A 
ATOM     15  C   UNL     1       2.825   6.184  18.826  0.00  0.00    +0.000 A 
ATOM     16  C   UNL     1       2.622   5.059  19.628  0.00  0.00    +0.000 A 
ATOM     17  N   UNL     1       1.854   5.404  20.709  0.00  0.00    +0.000 NA
ATOM     18  N   UNL     1       1.576   6.703  20.622  0.00  0.00    +0.000 NA
ATOM     19  N   UNL     1       2.180   7.179  19.515  0.00  0.00    +0.000 N 
BRANCH  11  21
ATOM     20  O   UNL     1       4.075   2.330  20.679  0.00  0.00    +0.000 OA
ATOM     21  N   UNL     1       3.067   2.703  20.059  0.00  0.00    +0.000 N 
ATOM     22  O   UNL     1       1.976   2.121  20.042  0.00  0.00    +0.000 OA
ENDBRANCH  11  21
ENDBRANCH   1  19
BRANCH   6  23
ATOM     23  O   UNL     1      -0.384  12.639  18.229  0.00  0.00    +0.000 OA
ATOM     24  H   UNL     1      -0.480  13.076  17.358  0.00  0.00    +0.000 HD
ENDBRANCH   6  23
BRANCH  10  25
ATOM     25  O   UNL     1       2.105  10.000  17.207  0.00  0.00    +0.000 OA
ATOM     26  H   UNL     1       2.268   9.727  16.287  0.00  0.00    +0.000 HD
ENDBRANCH  10  25
TORSDOF 4
ENDMDL
MODEL 6
REMARK VINA RESULT:      -7.3      3.096      7.116
REMARK  Name = 
REMARK  4 active torsions:
REMARK  status: ('A' for Active; 'I' for Inactive)
REMARK    1  A    between atoms: N_2  and  C_4
REMARK    2  A    between atoms: N_12  and  C_13
REMARK    3  A    between atoms: P_18  and  O_20
REMARK    4  A    between atoms: C_23  and  O_24
REMARK                            x       y       z     vdW  Elec       q    Type
REMARK                         _______ _______ _______ _____ _____    ______ ____
ROOT
ATOM      1  C   UNL     1       6.203   4.891  18.446  0.00  0.00    +0.000 C 
ATOM      2  O   UNL     1       5.662   5.975  17.633  0.00  0.00    +0.000 OA
ATOM      3  C   UNL     1       6.109   5.735  16.303  0.00  0.00    +0.000 C 
ATOM      4  C   UNL     1       5.192   6.197  15.191  0.00  0.00    +0.000 C 
ATOM      5  O   UNL     1       5.738   5.886  13.914  0.00  0.00    +0.000 OA
ATOM      6  P   UNL     1       6.939   4.830  13.756  0.00  0.00    +0.000 P 
ATOM      7  O   UNL     1       7.076   4.204  12.410  0.00  0.00    +0.000 OA
ATOM      8  O   UNL     1       6.912   3.823  15.008  0.00  0.00    +0.000 OA
ATOM      9  C   UNL     1       6.248   4.232  16.179  0.00  0.00    +0.000 C 
ATOM     10  C   UNL     1       6.910   3.895  17.504  0.00  0.00    +0.000 C 
ENDROOT
BRANCH   1  19
ATOM     11  C   UNL     1       1.934   4.179  20.640  0.00  0.00    +0.000 A 
ATOM     12  C   UNL     1       1.402   5.470  20.529  0.00  0.00    +0.000 A 
ATOM     13  C   UNL     1       2.173   6.484  19.963  0.00  0.00    +0.000 A 
ATOM     14  C   UNL     1       3.467   6.235  19.488  0.00  0.00    +0.000 A 
ATOM     15  C   UNL     1       3.955   4.926  19.606  0.00  0.00    +0.000 A 
ATOM     16  C   UNL     1       3.225   3.884  20.183  0.00  0.00    +0.000 A 
ATOM     17  N   UNL     1       3.974   2.736  20.156  0.00  0.00    +0.000 NA
ATOM     18  N   UNL     1       5.140   3.015  19.577  0.00  0.00    +0.000 NA
ATOM     19  N   UNL     1       5.120   4.315  19.220  0.00  0.00    +0.000 N 
BRANCH  11  21
ATOM     20  O   UNL     1       1.392   2.769  22.353  0.00  0.00    +0.000 OA
ATOM     21  N   UNL     1       1.145   3.107  21.184  0.00  0.00    +0.000 N 
ATOM     22  O   UNL     1       0.339   2.550  20.430  0.00  0.00    +0.000 OA
ENDBRANCH  11  21
ENDBRANCH   1  19
BRANCH   6  23
ATOM     23  O   UNL     1       8.233   5.722  14.084  0.00  0.00    +0.000 OA
ATOM     24  H   UNL     1       7.929   6.574  14.458  0.00  0.00    +0.000 HD
ENDBRANCH   6  23
BRANCH  10  25
ATOM     25  O   UNL     1       8.328   4.128  17.498  0.00  0.00    +0.000 OA
ATOM     26  H   UNL     1       8.562   4.794  16.828  0.00  0.00    +0.000 HD
ENDBRANCH  10  25
TORSDOF 4
ENDMDL
MODEL 7
REMARK VINA RESULT:      -7.3      4.256      6.906
REMARK  Name = 
REMARK  4 active torsions:
REMARK  status: ('A' for Active; 'I' for Inactive)
REMARK    1  A    between atoms: N_2  and  C_4
REMARK    2  A    between atoms: N_12  and  C_13
REMARK    3  A    between atoms: P_18  and  O_20
REMARK    4  A    between atoms: C_23  and  O_24
REMARK                            x       y       z     vdW  Elec       q    Type
REMARK                         _______ _______ _______ _____ _____    ______ ____
ROOT
ATOM      1  C   UNL     1       2.805   6.514  17.622  0.00  0.00    +0.000 C 
ATOM      2  O   UNL     1       1.834   5.448  17.847  0.00  0.00    +0.000 OA
ATOM      3  C   UNL     1       2.540   4.399  18.501  0.00  0.00    +0.000 C 
ATOM      4  C   UNL     1       1.741   3.547  19.463  0.00  0.00    +0.000 C 
ATOM      5  O   UNL     1       2.558   2.549  20.064  0.00  0.00    +0.000 OA
ATOM      6  P   UNL     1       4.162   2.639  20.007  0.00  0.00    +0.000 P 
ATOM      7  O   UNL     1       4.889   1.879  21.063  0.00  0.00    +0.000 OA
ATOM      8  O   UNL     1       4.588   4.177  19.819  0.00  0.00    +0.000 OA
ATOM      9  C   UNL     1       3.637   5.074  19.300  0.00  0.00    +0.000 C 
ATOM     10  C   UNL     1       4.130   6.102  18.296  0.00  0.00    +0.000 C 
ENDROOT
BRANCH   1  19
ATOM     11  C   UNL     1       1.001   9.961  20.521  0.00  0.00    +0.000 A 
ATOM     12  C   UNL     1       0.775   9.196  21.673  0.00  0.00    +0.000 A 
ATOM     13  C   UNL     1       1.027   7.825  21.647  0.00  0.00    +0.000 A 
ATOM     14  C   UNL     1       1.516   7.197  20.495  0.00  0.00    +0.000 A 
ATOM     15  C   UNL     1       1.740   8.002  19.369  0.00  0.00    +0.000 A 
ATOM     16  C   UNL     1       1.485   9.375  19.344  0.00  0.00    +0.000 A 
ATOM     17  N   UNL     1       1.798   9.873  18.106  0.00  0.00    +0.000 NA
ATOM     18  N   UNL     1       2.249   8.869  17.357  0.00  0.00    +0.000 NA
ATOM     19  N   UNL     1       2.244   7.756  18.118  0.00  0.00    +0.000 N 
BRANCH  11  21
ATOM     20  O   UNL     1       1.614  12.067  21.155  0.00  0.00    +0.000 OA
ATOM     21  N   UNL     1       0.786  11.383  20.534  0.00  0.00    +0.000 N 
ATOM     22  O   UNL     1      -0.243  11.810  19.997  0.00  0.00    +0.000 OA
ENDBRANCH  11  21
ENDBRANCH   1  19
BRANCH   6  23
ATOM     23  O   UNL     1       4.494   2.030  18.560  0.00  0.00    +0.000 OA
ATOM     24  H   UNL     1       3.650   1.903  18.081  0.00  0.00    +0.000 HD
ENDBRANCH   6  23
BRANCH  10  25
ATOM     25  O   UNL     1       5.036   5.550  17.326  0.00  0.00    +0.000 OA
ATOM     26  H   UNL     1       4.872   4.597  17.209  0.00  0.00    +0.000 HD
ENDBRANCH  10  25
TORSDOF 4
ENDMDL
MODEL 8
REMARK VINA RESULT:      -7.2      5.341      7.505
REMARK  Name = 
REMARK  4 active torsions:
REMARK  status: ('A' for Active; 'I' for Inactive)
REMARK    1  A    between atoms: N_2  and  C_4
REMARK    2  A    between atoms: N_12  and  C_13
REMARK    3  A    between atoms: P_18  and  O_20
REMARK    4  A    between atoms: C_23  and  O_24
REMARK                            x       y       z     vdW  Elec       q    Type
REMARK                         _______ _______ _______ _____ _____    ______ ____
ROOT
ATOM      1  C   UNL     1       1.986   8.516  20.450  0.00  0.00    +0.000 C 
ATOM      2  O   UNL     1       1.843   8.659  21.896  0.00  0.00    +0.000 OA
ATOM      3  C   UNL     1       0.864   9.672  22.100  0.00  0.00    +0.000 C 
ATOM      4  C   UNL     1       0.012   9.543  23.345  0.00  0.00    +0.000 C 
ATOM      5  O   UNL     1      -0.937  10.600  23.427  0.00  0.00    +0.000 OA
ATOM      6  P   UNL     1      -1.282  11.512  22.150  0.00  0.00    +0.000 P 
ATOM      7  O   UNL     1      -2.601  12.205  22.188  0.00  0.00    +0.000 OA
ATOM      8  O   UNL     1      -0.955  10.680  20.815  0.00  0.00    +0.000 OA
ATOM      9  C   UNL     1      -0.066   9.594  20.907  0.00  0.00    +0.000 C 
ATOM     10  C   UNL     1       0.934   9.421  19.776  0.00  0.00    +0.000 C 
ENDROOT
BRANCH   1  19
ATOM     11  C   UNL     1       2.707   4.131  18.503  0.00  0.00    +0.000 A 
ATOM     12  C   UNL     1       3.587   4.481  17.470  0.00  0.00    +0.000 A 
ATOM     13  C   UNL     1       3.910   5.822  17.269  0.00  0.00    +0.000 A 
ATOM     14  C   UNL     1       3.383   6.828  18.088  0.00  0.00    +0.000 A 
ATOM     15  C   UNL     1       2.517   6.432  19.117  0.00  0.00    +0.000 A 
ATOM     16  C   UNL     1       2.151   5.104  19.344  0.00  0.00    +0.000 A 
ATOM     17  N   UNL     1       1.293   5.044  20.410  0.00  0.00    +0.000 NA
ATOM     18  N   UNL     1       1.114   6.282  20.868  0.00  0.00    +0.000 NA
ATOM     19  N   UNL     1       1.866   7.110  20.116  0.00  0.00    +0.000 N 
BRANCH  11  21
ATOM     20  O   UNL     1       3.169   2.124  19.489  0.00  0.00    +0.000 OA
ATOM     21  N   UNL     1       2.389   2.751  18.756  0.00  0.00    +0.000 N 
ATOM     22  O   UNL     1       1.413   2.272  18.166  0.00  0.00    +0.000 OA
ENDBRANCH  11  21
ENDBRANCH   1  19
BRANCH   6  23
ATOM     23  O   UNL     1      -0.092  12.590  22.161  0.00  0.00    +0.000 OA
ATOM     24  H   UNL     1      -0.447  13.433  22.507  0.00  0.00    +0.000 HD
ENDBRANCH   6  23
BRANCH  10  25
ATOM     25  O   UNL     1       1.530  10.660  19.359  0.00  0.00    +0.000 OA
ATOM     26  H   UNL     1       0.844  11.297  19.092  0.00  0.00    +0.000 HD
ENDBRANCH  10  25
TORSDOF 4
ENDMDL
MODEL 9
REMARK VINA RESULT:      -7.2      4.796      6.746
REMARK  Name = 
REMARK  4 active torsions:
REMARK  status: ('A' for Active; 'I' for Inactive)
REMARK    1  A    between atoms: N_2  and  C_4
REMARK    2  A    between atoms: N_12  and  C_13
REMARK    3  A    between atoms: P_18  and  O_20
REMARK    4  A    between atoms: C_23  and  O_24
REMARK                            x       y       z     vdW  Elec       q    Type
REMARK                         _______ _______ _______ _____ _____    ______ ____
ROOT
ATOM      1  C   UNL     1       2.449   8.446  18.852  0.00  0.00    +0.000 C 
ATOM      2  O   UNL     1       1.889   8.826  20.145  0.00  0.00    +0.000 OA
ATOM      3  C   UNL     1       0.845   9.754  19.868  0.00  0.00    +0.000 C 
ATOM      4  C   UNL     1      -0.323   9.760  20.831  0.00  0.00    +0.000 C 
ATOM      5  O   UNL     1      -1.305  10.712  20.439  0.00  0.00    +0.000 OA
ATOM      6  P   UNL     1      -1.308  11.346  18.961  0.00  0.00    +0.000 P 
ATOM      7  O   UNL     1      -2.614  11.896  18.498  0.00  0.00    +0.000 OA
ATOM      8  O   UNL     1      -0.571  10.329  17.959  0.00  0.00    +0.000 OA
ATOM      9  C   UNL     1       0.305   9.373  18.505  0.00  0.00    +0.000 C 
ATOM     10  C   UNL     1       1.596   9.105  17.750  0.00  0.00    +0.000 C 
ENDROOT
BRANCH   1  19
ATOM     11  C   UNL     1       3.784   3.890  17.850  0.00  0.00    +0.000 A 
ATOM     12  C   UNL     1       4.735   4.144  16.853  0.00  0.00    +0.000 A 
ATOM     13  C   UNL     1       4.951   5.454  16.428  0.00  0.00    +0.000 A 
ATOM     14  C   UNL     1       4.246   6.527  16.990  0.00  0.00    +0.000 A 
ATOM     15  C   UNL     1       3.314   6.228  17.994  0.00  0.00    +0.000 A 
ATOM     16  C   UNL     1       3.052   4.930  18.436  0.00  0.00    +0.000 A 
ATOM     17  N   UNL     1       2.092   4.969  19.414  0.00  0.00    +0.000 NA
ATOM     18  N   UNL     1       1.749   6.240  19.609  0.00  0.00    +0.000 NA
ATOM     19  N   UNL     1       2.499   6.998  18.783  0.00  0.00    +0.000 N 
BRANCH  11  21
ATOM     20  O   UNL     1       2.724   1.871  17.732  0.00  0.00    +0.000 OA
ATOM     21  N   UNL     1       3.570   2.552  18.332  0.00  0.00    +0.000 N 
ATOM     22  O   UNL     1       4.182   2.207  19.350  0.00  0.00    +0.000 OA
ENDBRANCH  11  21
ENDBRANCH   1  19
BRANCH   6  23
ATOM     23  O   UNL     1      -0.225  12.524  19.085  0.00  0.00    +0.000 OA
ATOM     24  H   UNL     1       0.666  12.130  18.992  0.00  0.00    +0.000 HD
ENDBRANCH   6  23
BRANCH  10  25
ATOM     25  O   UNL     1       2.227  10.306  17.276  0.00  0.00    +0.000 OA
ATOM     26  H   UNL     1       3.188  10.175  17.187  0.00  0.00    +0.000 HD
ENDBRANCH  10  25
TORSDOF 4
ENDMDL
