MODEL 1
REMARK VINA RESULT:     -10.3      0.000      0.000
REMARK  Name = 
REMARK  6 active torsions:
REMARK  status: ('A' for Active; 'I' for Inactive)
REMARK    1  A    between atoms: C_1  and  C_2
REMARK    2  A    between atoms: N_6  and  C_7
REMARK    3  A    between atoms: N_11  and  C_12
REMARK    4  A    between atoms: C_14  and  C_15
REMARK    5  A    between atoms: N_22  and  C_23
REMARK    6  A    between atoms: C_23  and  C_24
REMARK                            x       y       z     vdW  Elec       q    Type
REMARK                         _______ _______ _______ _____ _____    ______ ____
ROOT
ATOM      1  C   UNL     1       2.334   6.459  19.916  0.00  0.00    +0.000 A 
ATOM      2  C   UNL     1       2.195   7.527  18.986  0.00  0.00    +0.000 A 
ATOM      3  C   UNL     1       1.436   8.517  19.563  0.00  0.00    +0.000 A 
ATOM      4  N   UNL     1       1.024   8.044  20.782  0.00  0.00    +0.000 N 
ATOM      5  C   UNL     1       1.567   6.813  21.020  0.00  0.00    +0.000 A 
ATOM      6  C   UNL     1       0.096   8.790  21.608  0.00  0.00    +0.000 C 
ATOM      7  C   UNL     1       0.188  10.284  21.282  0.00  0.00    +0.000 C 
ATOM      8  N   UNL     1       0.237  10.565  19.843  0.00  0.00    +0.000 N 
ATOM      9  C   UNL     1       1.058   9.800  19.015  0.00  0.00    +0.000 C 
ATOM     10  O   UNL     1       1.419  10.173  17.903  0.00  0.00    +0.000 OA
ENDROOT
BRANCH   1  18
ATOM     11  C   UNL     1       1.074   3.735  20.474  0.00  0.00    +0.000 C 
ATOM     12  C   UNL     1       2.490   3.963  20.061  0.00  0.00    +0.000 A 
ATOM     13  C   UNL     1       3.354   2.893  19.942  0.00  0.00    +0.000 A 
ATOM     14  N   UNL     1       4.642   2.993  19.572  0.00  0.00    +0.000 NA
ATOM     15  C   UNL     1       5.094   4.220  19.281  0.00  0.00    +0.000 A 
ATOM     16  N   UNL     1       6.415   4.262  18.823  0.00  0.00    +0.000 N 
ATOM     17  N   UNL     1       4.344   5.325  19.379  0.00  0.00    +0.000 NA
ATOM     18  C   UNL     1       3.062   5.195  19.786  0.00  0.00    +0.000 A 
ATOM     19  H   UNL     1       6.750   3.307  18.801  0.00  0.00    +0.000 HD
BRANCH  16  20
ATOM     20  C   UNL     1       6.984   5.267  18.115  0.00  0.00    +0.000 A 
ATOM     21  C   UNL     1       7.592   6.446  18.496  0.00  0.00    +0.000 A 
ATOM     22  C   UNL     1       7.918   7.101  17.299  0.00  0.00    +0.000 A 
ATOM     23  N   UNL     1       7.582   6.391  16.222  0.00  0.00    +0.000 NA
ATOM     24  N   UNL     1       7.023   5.275  16.739  0.00  0.00    +0.000 N 
ATOM     25  C   UNL     1       6.501   4.278  15.837  0.00  0.00    +0.000 C 
ENDBRANCH  16  20
ENDBRANCH   1  18
BRANCH   8  26
ATOM     26  C   UNL     1      -0.211  11.863  19.364  0.00  0.00    +0.000 C 
BRANCH  26  27
ATOM     27  C   UNL     1      -1.633  11.840  18.846  0.00  0.00    +0.000 A 
ATOM     28  C   UNL     1      -2.710  12.237  19.662  0.00  0.00    +0.000 A 
ATOM     29  C   UNL     1      -4.030  12.106  19.216  0.00  0.00    +0.000 A 
ATOM     30  C   UNL     1      -4.280  11.580  17.953  0.00  0.00    +0.000 A 
ATOM     31  F   UNL     1      -5.545  11.427  17.540  0.00  0.00    +0.000 F 
ATOM     32  C   UNL     1      -3.225  11.202  17.133  0.00  0.00    +0.000 A 
ATOM     33  F   UNL     1      -3.464  10.689  15.919  0.00  0.00    +0.000 F 
ATOM     34  C   UNL     1      -1.907  11.329  17.570  0.00  0.00    +0.000 A 
ENDBRANCH  26  27
ENDBRANCH   8  26
TORSDOF 4
ENDMDL
MODEL 2
REMARK VINA RESULT:     -10.1      0.504      1.174
REMARK  Name = 
REMARK  6 active torsions:
REMARK  status: ('A' for Active; 'I' for Inactive)
REMARK    1  A    between atoms: C_1  and  C_2
REMARK    2  A    between atoms: N_6  and  C_7
REMARK    3  A    between atoms: N_11  and  C_12
REMARK    4  A    between atoms: C_14  and  C_15
REMARK    5  A    between atoms: N_22  and  C_23
REMARK    6  A    between atoms: C_23  and  C_24
REMARK                            x       y       z     vdW  Elec       q    Type
REMARK                         _______ _______ _______ _____ _____    ______ ____
ROOT
ATOM      1  C   UNL     1       2.341   6.398  19.922  0.00  0.00    +0.000 A 
ATOM      2  C   UNL     1       2.144   7.422  18.954  0.00  0.00    +0.000 A 
ATOM      3  C   UNL     1       1.391   8.424  19.518  0.00  0.00    +0.000 A 
ATOM      4  N   UNL     1       1.039   7.998  20.772  0.00  0.00    +0.000 N 
ATOM      5  C   UNL     1       1.614   6.788  21.041  0.00  0.00    +0.000 A 
ATOM      6  C   UNL     1       0.132   8.764  21.605  0.00  0.00    +0.000 C 
ATOM      7  C   UNL     1       0.181  10.243  21.210  0.00  0.00    +0.000 C 
ATOM      8  N   UNL     1       0.165  10.462  19.760  0.00  0.00    +0.000 N 
ATOM      9  C   UNL     1       0.966   9.675  18.932  0.00  0.00    +0.000 C 
ATOM     10  O   UNL     1       1.273  10.004  17.790  0.00  0.00    +0.000 OA
ENDROOT
BRANCH   1  18
ATOM     11  C   UNL     1       1.134   3.673  20.578  0.00  0.00    +0.000 C 
ATOM     12  C   UNL     1       2.540   3.910  20.136  0.00  0.00    +0.000 A 
ATOM     13  C   UNL     1       3.418   2.851  20.033  0.00  0.00    +0.000 A 
ATOM     14  N   UNL     1       4.698   2.960  19.639  0.00  0.00    +0.000 NA
ATOM     15  C   UNL     1       5.126   4.185  19.305  0.00  0.00    +0.000 A 
ATOM     16  N   UNL     1       6.439   4.235  18.824  0.00  0.00    +0.000 N 
ATOM     17  N   UNL     1       4.360   5.281  19.384  0.00  0.00    +0.000 NA
ATOM     18  C   UNL     1       3.088   5.143  19.816  0.00  0.00    +0.000 A 
ATOM     19  H   UNL     1       6.789   3.285  18.824  0.00  0.00    +0.000 HD
BRANCH  16  20
ATOM     20  C   UNL     1       6.981   5.228  18.079  0.00  0.00    +0.000 A 
ATOM     21  C   UNL     1       7.576   6.425  18.416  0.00  0.00    +0.000 A 
ATOM     22  C   UNL     1       7.872   7.051  17.196  0.00  0.00    +0.000 A 
ATOM     23  N   UNL     1       7.529   6.306  16.145  0.00  0.00    +0.000 NA
ATOM     24  N   UNL     1       6.996   5.197  16.703  0.00  0.00    +0.000 N 
ATOM     25  C   UNL     1       6.474   4.167  15.838  0.00  0.00    +0.000 C 
ENDBRANCH  16  20
ENDBRANCH   1  18
BRANCH   8  26
ATOM     26  C   UNL     1      -0.326  11.729  19.244  0.00  0.00    +0.000 C 
BRANCH  26  27
ATOM     27  C   UNL     1      -1.748  11.644  18.733  0.00  0.00    +0.000 A 
ATOM     28  C   UNL     1      -2.024  11.229  17.416  0.00  0.00    +0.000 A 
ATOM     29  C   UNL     1      -3.330  11.261  16.914  0.00  0.00    +0.000 A 
ATOM     30  C   UNL     1      -4.366  11.706  17.726  0.00  0.00    +0.000 A 
ATOM     31  F   UNL     1      -5.611  11.765  17.235  0.00  0.00    +0.000 F 
ATOM     32  C   UNL     1      -4.110  12.102  19.033  0.00  0.00    +0.000 A 
ATOM     33  F   UNL     1      -5.107  12.538  19.814  0.00  0.00    +0.000 F 
ATOM     34  C   UNL     1      -2.812  12.073  19.540  0.00  0.00    +0.000 A 
ENDBRANCH  26  27
ENDBRANCH   8  26
TORSDOF 4
ENDMDL
MODEL 3
REMARK VINA RESULT:     -10.1      0.598      1.131
REMARK  Name = 
REMARK  6 active torsions:
REMARK  status: ('A' for Active; 'I' for Inactive)
REMARK    1  A    between atoms: C_1  and  C_2
REMARK    2  A    between atoms: N_6  and  C_7
REMARK    3  A    between atoms: N_11  and  C_12
REMARK    4  A    between atoms: C_14  and  C_15
REMARK    5  A    between atoms: N_22  and  C_23
REMARK    6  A    between atoms: C_23  and  C_24
REMARK                            x       y       z     vdW  Elec       q    Type
REMARK                         _______ _______ _______ _____ _____    ______ ____
ROOT
ATOM      1  C   UNL     1       2.511   6.252  19.817  0.00  0.00    +0.000 A 
ATOM      2  C   UNL     1       2.341   7.217  18.786  0.00  0.00    +0.000 A 
ATOM      3  C   UNL     1       1.605   8.267  19.282  0.00  0.00    +0.000 A 
ATOM      4  N   UNL     1       1.237   7.926  20.558  0.00  0.00    +0.000 N 
ATOM      5  C   UNL     1       1.786   6.724  20.905  0.00  0.00    +0.000 A 
ATOM      6  C   UNL     1       0.340   8.760  21.334  0.00  0.00    +0.000 C 
ATOM      7  C   UNL     1       0.422  10.211  20.849  0.00  0.00    +0.000 C 
ATOM      8  N   UNL     1       0.419  10.339  19.388  0.00  0.00    +0.000 N 
ATOM      9  C   UNL     1       1.209   9.487  18.616  0.00  0.00    +0.000 C 
ATOM     10  O   UNL     1       1.530   9.739  17.459  0.00  0.00    +0.000 OA
ENDROOT
BRANCH   1  18
ATOM     11  C   UNL     1       1.540   3.753  21.276  0.00  0.00    +0.000 C 
ATOM     12  C   UNL     1       2.798   3.852  20.477  0.00  0.00    +0.000 A 
ATOM     13  C   UNL     1       3.645   2.767  20.387  0.00  0.00    +0.000 A 
ATOM     14  N   UNL     1       4.793   2.754  19.690  0.00  0.00    +0.000 NA
ATOM     15  C   UNL     1       5.109   3.874  19.024  0.00  0.00    +0.000 A 
ATOM     16  N   UNL     1       6.270   3.784  18.249  0.00  0.00    +0.000 N 
ATOM     17  N   UNL     1       4.365   4.986  19.058  0.00  0.00    +0.000 NA
ATOM     18  C   UNL     1       3.233   4.978  19.795  0.00  0.00    +0.000 A 
ATOM     19  H   UNL     1       6.626   2.843  18.359  0.00  0.00    +0.000 HD
BRANCH  16  20
ATOM     20  C   UNL     1       6.603   4.590  17.213  0.00  0.00    +0.000 A 
ATOM     21  C   UNL     1       6.406   4.487  15.852  0.00  0.00    +0.000 A 
ATOM     22  C   UNL     1       7.041   5.607  15.295  0.00  0.00    +0.000 A 
ATOM     23  N   UNL     1       7.582   6.398  16.223  0.00  0.00    +0.000 NA
ATOM     24  N   UNL     1       7.298   5.767  17.383  0.00  0.00    +0.000 N 
ATOM     25  C   UNL     1       7.775   6.338  18.619  0.00  0.00    +0.000 C 
ENDBRANCH  16  20
ENDBRANCH   1  18
BRANCH   8  26
ATOM     26  C   UNL     1      -0.044  11.582  18.791  0.00  0.00    +0.000 C 
BRANCH  26  27
ATOM     27  C   UNL     1      -1.500  11.532  18.384  0.00  0.00    +0.000 A 
ATOM     28  C   UNL     1      -2.504  12.086  19.202  0.00  0.00    +0.000 A 
ATOM     29  C   UNL     1      -3.856  11.937  18.875  0.00  0.00    +0.000 A 
ATOM     30  C   UNL     1      -4.212  11.235  17.730  0.00  0.00    +0.000 A 
ATOM     31  F   UNL     1      -5.508  11.066  17.435  0.00  0.00    +0.000 F 
ATOM     32  C   UNL     1      -3.231  10.699  16.906  0.00  0.00    +0.000 A 
ATOM     33  F   UNL     1      -3.573  10.016  15.805  0.00  0.00    +0.000 F 
ATOM     34  C   UNL     1      -1.882  10.843  17.224  0.00  0.00    +0.000 A 
ENDBRANCH  26  27
ENDBRANCH   8  26
TORSDOF 4
ENDMDL
MODEL 4
REMARK VINA RESULT:      -9.9      0.734      1.592
REMARK  Name = 
REMARK  6 active torsions:
REMARK  status: ('A' for Active; 'I' for Inactive)
REMARK    1  A    between atoms: C_1  and  C_2
REMARK    2  A    between atoms: N_6  and  C_7
REMARK    3  A    between atoms: N_11  and  C_12
REMARK    4  A    between atoms: C_14  and  C_15
REMARK    5  A    between atoms: N_22  and  C_23
REMARK    6  A    between atoms: C_23  and  C_24
REMARK                            x       y       z     vdW  Elec       q    Type
REMARK                         _______ _______ _______ _____ _____    ______ ____
ROOT
ATOM      1  C   UNL     1       2.506   6.221  19.834  0.00  0.00    +0.000 A 
ATOM      2  C   UNL     1       2.307   7.178  18.800  0.00  0.00    +0.000 A 
ATOM      3  C   UNL     1       1.575   8.226  19.305  0.00  0.00    +0.000 A 
ATOM      4  N   UNL     1       1.236   7.891  20.590  0.00  0.00    +0.000 N 
ATOM      5  C   UNL     1       1.800   6.695  20.933  0.00  0.00    +0.000 A 
ATOM      6  C   UNL     1       0.350   8.724  21.380  0.00  0.00    +0.000 C 
ATOM      7  C   UNL     1       0.411  10.172  20.884  0.00  0.00    +0.000 C 
ATOM      8  N   UNL     1       0.377  10.291  19.423  0.00  0.00    +0.000 N 
ATOM      9  C   UNL     1       1.157   9.439  18.640  0.00  0.00    +0.000 C 
ATOM     10  O   UNL     1       1.451   9.685  17.474  0.00  0.00    +0.000 OA
ENDROOT
BRANCH   1  18
ATOM     11  C   UNL     1       1.553   3.708  21.281  0.00  0.00    +0.000 C 
ATOM     12  C   UNL     1       2.809   3.820  20.481  0.00  0.00    +0.000 A 
ATOM     13  C   UNL     1       3.663   2.740  20.385  0.00  0.00    +0.000 A 
ATOM     14  N   UNL     1       4.811   2.739  19.686  0.00  0.00    +0.000 NA
ATOM     15  C   UNL     1       5.118   3.864  19.026  0.00  0.00    +0.000 A 
ATOM     16  N   UNL     1       6.279   3.785  18.249  0.00  0.00    +0.000 N 
ATOM     17  N   UNL     1       4.368   4.971  19.066  0.00  0.00    +0.000 NA
ATOM     18  C   UNL     1       3.236   4.952  19.804  0.00  0.00    +0.000 A 
ATOM     19  H   UNL     1       6.642   2.846  18.354  0.00  0.00    +0.000 HD
BRANCH  16  20
ATOM     20  C   UNL     1       6.606   4.599  17.217  0.00  0.00    +0.000 A 
ATOM     21  C   UNL     1       6.407   4.501  15.855  0.00  0.00    +0.000 A 
ATOM     22  C   UNL     1       7.035   5.628  15.304  0.00  0.00    +0.000 A 
ATOM     23  N   UNL     1       7.572   6.417  16.234  0.00  0.00    +0.000 NA
ATOM     24  N   UNL     1       7.294   5.779  17.392  0.00  0.00    +0.000 N 
ATOM     25  C   UNL     1       7.769   6.346  18.630  0.00  0.00    +0.000 C 
ENDBRANCH  16  20
ENDBRANCH   1  18
BRANCH   8  26
ATOM     26  C   UNL     1      -0.107  11.527  18.828  0.00  0.00    +0.000 C 
BRANCH  26  27
ATOM     27  C   UNL     1      -1.557  11.446  18.401  0.00  0.00    +0.000 A 
ATOM     28  C   UNL     1      -1.915  10.934  17.138  0.00  0.00    +0.000 A 
ATOM     29  C   UNL     1      -3.245  10.967  16.706  0.00  0.00    +0.000 A 
ATOM     30  C   UNL     1      -4.223  11.508  17.532  0.00  0.00    +0.000 A 
ATOM     31  F   UNL     1      -5.491  11.566  17.104  0.00  0.00    +0.000 F 
ATOM     32  C   UNL     1      -3.884  11.999  18.786  0.00  0.00    +0.000 A 
ATOM     33  F   UNL     1      -4.825  12.527  19.580  0.00  0.00    +0.000 F 
ATOM     34  C   UNL     1      -2.562  11.971  19.225  0.00  0.00    +0.000 A 
ENDBRANCH  26  27
ENDBRANCH   8  26
TORSDOF 4
ENDMDL
MODEL 5
REMARK VINA RESULT:      -9.7      1.417      1.974
REMARK  Name = 
REMARK  6 active torsions:
REMARK  status: ('A' for Active; 'I' for Inactive)
REMARK    1  A    between atoms: C_1  and  C_2
REMARK    2  A    between atoms: N_6  and  C_7
REMARK    3  A    between atoms: N_11  and  C_12
REMARK    4  A    between atoms: C_14  and  C_15
REMARK    5  A    between atoms: N_22  and  C_23
REMARK    6  A    between atoms: C_23  and  C_24
REMARK                            x       y       z     vdW  Elec       q    Type
REMARK                         _______ _______ _______ _____ _____    ______ ____
ROOT
ATOM      1  C   UNL     1       2.303   5.800  19.077  0.00  0.00    +0.000 A 
ATOM      2  C   UNL     1       2.207   6.960  18.260  0.00  0.00    +0.000 A 
ATOM      3  C   UNL     1       1.837   8.024  19.047  0.00  0.00    +0.000 A 
ATOM      4  N   UNL     1       1.608   7.528  20.304  0.00  0.00    +0.000 N 
ATOM      5  C   UNL     1       1.899   6.194  20.347  0.00  0.00    +0.000 A 
ATOM      6  C   UNL     1       1.077   8.365  21.363  0.00  0.00    +0.000 C 
ATOM      7  C   UNL     1       1.428   9.832  21.097  0.00  0.00    +0.000 C 
ATOM      8  N   UNL     1       1.221  10.239  19.704  0.00  0.00    +0.000 N 
ATOM      9  C   UNL     1       1.646   9.406  18.668  0.00  0.00    +0.000 C 
ATOM     10  O   UNL     1       1.827   9.804  17.522  0.00  0.00    +0.000 OA
ENDROOT
BRANCH   1  18
ATOM     11  C   UNL     1       0.697   3.343  19.915  0.00  0.00    +0.000 C 
ATOM     12  C   UNL     1       1.960   3.319  19.118  0.00  0.00    +0.000 A 
ATOM     13  C   UNL     1       2.509   2.113  18.734  0.00  0.00    +0.000 A 
ATOM     14  N   UNL     1       3.635   1.986  18.012  0.00  0.00    +0.000 NA
ATOM     15  C   UNL     1       4.239   3.119  17.629  0.00  0.00    +0.000 A 
ATOM     16  N   UNL     1       5.360   2.936  16.812  0.00  0.00    +0.000 N 
ATOM     17  N   UNL     1       3.798   4.338  17.962  0.00  0.00    +0.000 NA
ATOM     18  C   UNL     1       2.682   4.432  18.716  0.00  0.00    +0.000 A 
ATOM     19  H   UNL     1       5.466   1.938  16.675  0.00  0.00    +0.000 HD
BRANCH  16  20
ATOM     20  C   UNL     1       5.912   3.862  15.993  0.00  0.00    +0.000 A 
ATOM     21  C   UNL     1       5.656   4.221  14.687  0.00  0.00    +0.000 A 
ATOM     22  C   UNL     1       6.609   5.201  14.374  0.00  0.00    +0.000 A 
ATOM     23  N   UNL     1       7.404   5.486  15.406  0.00  0.00    +0.000 NA
ATOM     24  N   UNL     1       6.959   4.667  16.384  0.00  0.00    +0.000 N 
ATOM     25  C   UNL     1       7.631   4.682  17.661  0.00  0.00    +0.000 C 
ENDBRANCH  16  20
ENDBRANCH   1  18
BRANCH   8  26
ATOM     26  C   UNL     1       0.982  11.643  19.408  0.00  0.00    +0.000 C 
BRANCH  26  27
ATOM     27  C   UNL     1      -0.469  12.040  19.573  0.00  0.00    +0.000 A 
ATOM     28  C   UNL     1      -0.893  12.800  20.681  0.00  0.00    +0.000 A 
ATOM     29  C   UNL     1      -2.251  13.067  20.886  0.00  0.00    +0.000 A 
ATOM     30  C   UNL     1      -3.191  12.577  19.986  0.00  0.00    +0.000 A 
ATOM     31  F   UNL     1      -4.493  12.808  20.201  0.00  0.00    +0.000 F 
ATOM     32  C   UNL     1      -2.783  11.842  18.881  0.00  0.00    +0.000 A 
ATOM     33  F   UNL     1      -3.688  11.364  18.017  0.00  0.00    +0.000 F 
ATOM     34  C   UNL     1      -1.432  11.571  18.669  0.00  0.00    +0.000 A 
ENDBRANCH  26  27
ENDBRANCH   8  26
TORSDOF 4
ENDMDL
MODEL 6
REMARK VINA RESULT:      -9.7      2.232      3.051
REMARK  Name = 
REMARK  6 active torsions:
REMARK  status: ('A' for Active; 'I' for Inactive)
REMARK    1  A    between atoms: C_1  and  C_2
REMARK    2  A    between atoms: N_6  and  C_7
REMARK    3  A    between atoms: N_11  and  C_12
REMARK    4  A    between atoms: C_14  and  C_15
REMARK    5  A    between atoms: N_22  and  C_23
REMARK    6  A    between atoms: C_23  and  C_24
REMARK                            x       y       z     vdW  Elec       q    Type
REMARK                         _______ _______ _______ _____ _____    ______ ____
ROOT
ATOM      1  C   UNL     1       2.284   6.373  19.149  0.00  0.00    +0.000 A 
ATOM      2  C   UNL     1       2.008   7.080  20.352  0.00  0.00    +0.000 A 
ATOM      3  C   UNL     1       1.713   8.385  20.039  0.00  0.00    +0.000 A 
ATOM      4  N   UNL     1       1.897   8.521  18.688  0.00  0.00    +0.000 N 
ATOM      5  C   UNL     1       2.226   7.317  18.131  0.00  0.00    +0.000 A 
ATOM      6  C   UNL     1       1.792   9.812  18.036  0.00  0.00    +0.000 C 
ATOM      7  C   UNL     1       0.885  10.739  18.851  0.00  0.00    +0.000 C 
ATOM      8  N   UNL     1       1.148  10.694  20.293  0.00  0.00    +0.000 N 
ATOM      9  C   UNL     1       1.339   9.465  20.924  0.00  0.00    +0.000 C 
ATOM     10  O   UNL     1       1.220   9.311  22.136  0.00  0.00    +0.000 OA
ENDROOT
BRANCH   1  18
ATOM     11  C   UNL     1       0.642   4.075  20.306  0.00  0.00    +0.000 C 
ATOM     12  C   UNL     1       1.888   3.924  19.497  0.00  0.00    +0.000 A 
ATOM     13  C   UNL     1       2.402   2.667  19.253  0.00  0.00    +0.000 A 
ATOM     14  N   UNL     1       3.511   2.427  18.533  0.00  0.00    +0.000 NA
ATOM     15  C   UNL     1       4.133   3.491  18.006  0.00  0.00    +0.000 A 
ATOM     16  N   UNL     1       5.234   3.183  17.199  0.00  0.00    +0.000 N 
ATOM     17  N   UNL     1       3.725   4.751  18.195  0.00  0.00    +0.000 NA
ATOM     18  C   UNL     1       2.626   4.963  18.951  0.00  0.00    +0.000 A 
ATOM     19  H   UNL     1       5.314   2.174  17.182  0.00  0.00    +0.000 HD
BRANCH  16  20
ATOM     20  C   UNL     1       5.790   3.990  16.264  0.00  0.00    +0.000 A 
ATOM     21  C   UNL     1       5.486   4.228  14.940  0.00  0.00    +0.000 A 
ATOM     22  C   UNL     1       6.471   5.118  14.485  0.00  0.00    +0.000 A 
ATOM     23  N   UNL     1       7.330   5.461  15.445  0.00  0.00    +0.000 NA
ATOM     24  N   UNL     1       6.894   4.772  16.522  0.00  0.00    +0.000 N 
ATOM     25  C   UNL     1       7.628   4.879  17.760  0.00  0.00    +0.000 C 
ENDBRANCH  16  20
ENDBRANCH   1  18
BRANCH   8  26
ATOM     26  C   UNL     1       0.791  11.843  21.109  0.00  0.00    +0.000 C 
BRANCH  26  27
ATOM     27  C   UNL     1      -0.704  11.993  21.290  0.00  0.00    +0.000 A 
ATOM     28  C   UNL     1      -1.522  12.445  20.236  0.00  0.00    +0.000 A 
ATOM     29  C   UNL     1      -2.884  12.690  20.443  0.00  0.00    +0.000 A 
ATOM     30  C   UNL     1      -3.435  12.483  21.703  0.00  0.00    +0.000 A 
ATOM     31  F   UNL     1      -4.733  12.747  21.907  0.00  0.00    +0.000 F 
ATOM     32  C   UNL     1      -2.643  12.021  22.745  0.00  0.00    +0.000 A 
ATOM     33  F   UNL     1      -3.171  11.829  23.961  0.00  0.00    +0.000 F 
ATOM     34  C   UNL     1      -1.285  11.775  22.548  0.00  0.00    +0.000 A 
ENDBRANCH  26  27
ENDBRANCH   8  26
TORSDOF 4
ENDMDL
MODEL 7
REMARK VINA RESULT:      -9.6      2.170      2.840
REMARK  Name = 
REMARK  6 active torsions:
REMARK  status: ('A' for Active; 'I' for Inactive)
REMARK    1  A    between atoms: C_1  and  C_2
REMARK    2  A    between atoms: N_6  and  C_7
REMARK    3  A    between atoms: N_11  and  C_12
REMARK    4  A    between atoms: C_14  and  C_15
REMARK    5  A    between atoms: N_22  and  C_23
REMARK    6  A    between atoms: C_23  and  C_24
REMARK                            x       y       z     vdW  Elec       q    Type
REMARK                         _______ _______ _______ _____ _____    ______ ____
ROOT
ATOM      1  C   UNL     1       2.231   6.900  19.841  0.00  0.00    +0.000 A 
ATOM      2  C   UNL     1       1.958   7.670  21.005  0.00  0.00    +0.000 A 
ATOM      3  C   UNL     1       1.445   8.886  20.619  0.00  0.00    +0.000 A 
ATOM      4  N   UNL     1       1.489   8.918  19.250  0.00  0.00    +0.000 N 
ATOM      5  C   UNL     1       1.944   7.726  18.761  0.00  0.00    +0.000 A 
ATOM      6  C   UNL     1       1.137  10.115  18.510  0.00  0.00    +0.000 C 
ATOM      7  C   UNL     1       0.175  10.977  19.335  0.00  0.00    +0.000 C 
ATOM      8  N   UNL     1       0.567  11.105  20.742  0.00  0.00    +0.000 N 
ATOM      9  C   UNL     1       0.994   9.980  21.448  0.00  0.00    +0.000 C 
ATOM     10  O   UNL     1       1.005   9.925  22.674  0.00  0.00    +0.000 OA
ENDROOT
BRANCH   1  18
ATOM     11  C   UNL     1       0.588   4.404  20.465  0.00  0.00    +0.000 C 
ATOM     12  C   UNL     1       2.015   4.411  20.029  0.00  0.00    +0.000 A 
ATOM     13  C   UNL     1       2.707   3.222  19.917  0.00  0.00    +0.000 A 
ATOM     14  N   UNL     1       3.989   3.122  19.527  0.00  0.00    +0.000 NA
ATOM     15  C   UNL     1       4.614   4.263  19.207  0.00  0.00    +0.000 A 
ATOM     16  N   UNL     1       5.920   4.100  18.730  0.00  0.00    +0.000 N 
ATOM     17  N   UNL     1       4.040   5.469  19.296  0.00  0.00    +0.000 NA
ATOM     18  C   UNL     1       2.761   5.539  19.723  0.00  0.00    +0.000 A 
ATOM     19  H   UNL     1       6.108   3.105  18.721  0.00  0.00    +0.000 HD
BRANCH  16  20
ATOM     20  C   UNL     1       6.621   4.997  17.997  0.00  0.00    +0.000 A 
ATOM     21  C   UNL     1       7.336   6.125  18.341  0.00  0.00    +0.000 A 
ATOM     22  C   UNL     1       7.778   6.672  17.128  0.00  0.00    +0.000 A 
ATOM     23  N   UNL     1       7.411   5.941  16.076  0.00  0.00    +0.000 NA
ATOM     24  N   UNL     1       6.715   4.921  16.625  0.00  0.00    +0.000 N 
ATOM     25  C   UNL     1       6.124   3.934  15.755  0.00  0.00    +0.000 C 
ENDBRANCH  16  20
ENDBRANCH   1  18
BRANCH   8  26
ATOM     26  C   UNL     1       0.115  12.264  21.496  0.00  0.00    +0.000 C 
BRANCH  26  27
ATOM     27  C   UNL     1      -1.387  12.295  21.681  0.00  0.00    +0.000 A 
ATOM     28  C   UNL     1      -2.243  12.655  20.622  0.00  0.00    +0.000 A 
ATOM     29  C   UNL     1      -3.620  12.792  20.830  0.00  0.00    +0.000 A 
ATOM     30  C   UNL     1      -4.148  12.568  22.096  0.00  0.00    +0.000 A 
ATOM     31  F   UNL     1      -5.462  12.729  22.301  0.00  0.00    +0.000 F 
ATOM     32  C   UNL     1      -3.316  12.195  23.144  0.00  0.00    +0.000 A 
ATOM     33  F   UNL     1      -3.823  11.986  24.367  0.00  0.00    +0.000 F 
ATOM     34  C   UNL     1      -1.944  12.057  22.946  0.00  0.00    +0.000 A 
ENDBRANCH  26  27
ENDBRANCH   8  26
TORSDOF 4
ENDMDL
MODEL 8
REMARK VINA RESULT:      -9.5      2.554      3.491
REMARK  Name = 
REMARK  6 active torsions:
REMARK  status: ('A' for Active; 'I' for Inactive)
REMARK    1  A    between atoms: C_1  and  C_2
REMARK    2  A    between atoms: N_6  and  C_7
REMARK    3  A    between atoms: N_11  and  C_12
REMARK    4  A    between atoms: C_14  and  C_15
REMARK    5  A    between atoms: N_22  and  C_23
REMARK    6  A    between atoms: C_23  and  C_24
REMARK                            x       y       z     vdW  Elec       q    Type
REMARK                         _______ _______ _______ _____ _____    ______ ____
ROOT
ATOM      1  C   UNL     1       2.493   6.582  19.498  0.00  0.00    +0.000 A 
ATOM      2  C   UNL     1       1.932   7.362  20.547  0.00  0.00    +0.000 A 
ATOM      3  C   UNL     1       1.456   8.537  20.017  0.00  0.00    +0.000 A 
ATOM      4  N   UNL     1       1.798   8.541  18.689  0.00  0.00    +0.000 N 
ATOM      5  C   UNL     1       2.408   7.366  18.354  0.00  0.00    +0.000 A 
ATOM      6  C   UNL     1       1.557   9.699  17.850  0.00  0.00    +0.000 C 
ATOM      7  C   UNL     1       0.395  10.523  18.414  0.00  0.00    +0.000 C 
ATOM      8  N   UNL     1       0.461  10.705  19.868  0.00  0.00    +0.000 N 
ATOM      9  C   UNL     1       0.778   9.623  20.688  0.00  0.00    +0.000 C 
ATOM     10  O   UNL     1       0.522   9.596  21.888  0.00  0.00    +0.000 OA
ENDROOT
BRANCH   1  18
ATOM     11  C   UNL     1       1.269   4.233  21.016  0.00  0.00    +0.000 C 
ATOM     12  C   UNL     1       2.553   4.194  20.255  0.00  0.00    +0.000 A 
ATOM     13  C   UNL     1       3.306   3.038  20.233  0.00  0.00    +0.000 A 
ATOM     14  N   UNL     1       4.469   2.901  19.574  0.00  0.00    +0.000 NA
ATOM     15  C   UNL     1       4.899   3.963  18.879  0.00  0.00    +0.000 A 
ATOM     16  N   UNL     1       6.070   3.745  18.145  0.00  0.00    +0.000 N 
ATOM     17  N   UNL     1       4.253   5.134  18.847  0.00  0.00    +0.000 NA
ATOM     18  C   UNL     1       3.103   5.252  19.546  0.00  0.00    +0.000 A 
ATOM     19  H   UNL     1       6.341   2.782  18.301  0.00  0.00    +0.000 HD
BRANCH  16  20
ATOM     20  C   UNL     1       6.501   4.478  17.091  0.00  0.00    +0.000 A 
ATOM     21  C   UNL     1       6.378   4.311  15.728  0.00  0.00    +0.000 A 
ATOM     22  C   UNL     1       7.098   5.369  15.155  0.00  0.00    +0.000 A 
ATOM     23  N   UNL     1       7.622   6.184  16.071  0.00  0.00    +0.000 NA
ATOM     24  N   UNL     1       7.241   5.630  17.243  0.00  0.00    +0.000 N 
ATOM     25  C   UNL     1       7.674   6.244  18.475  0.00  0.00    +0.000 C 
ENDBRANCH  16  20
ENDBRANCH   1  18
BRANCH   8  26
ATOM     26  C   UNL     1      -0.204  11.853  20.464  0.00  0.00    +0.000 C 
BRANCH  26  27
ATOM     27  C   UNL     1       0.377  13.173  20.005  0.00  0.00    +0.000 A 
ATOM     28  C   UNL     1       1.679  13.563  20.375  0.00  0.00    +0.000 A 
ATOM     29  C   UNL     1       2.168  14.831  20.042  0.00  0.00    +0.000 A 
ATOM     30  C   UNL     1       1.359  15.715  19.337  0.00  0.00    +0.000 A 
ATOM     31  F   UNL     1       1.817  16.940  19.046  0.00  0.00    +0.000 F 
ATOM     32  C   UNL     1       0.080  15.336  18.951  0.00  0.00    +0.000 A 
ATOM     33  F   UNL     1      -0.702  16.189  18.278  0.00  0.00    +0.000 F 
ATOM     34  C   UNL     1      -0.414  14.075  19.279  0.00  0.00    +0.000 A 
ENDBRANCH  26  27
ENDBRANCH   8  26
TORSDOF 4
ENDMDL
MODEL 9
REMARK VINA RESULT:      -9.5      3.075      3.864
REMARK  Name = 
REMARK  6 active torsions:
REMARK  status: ('A' for Active; 'I' for Inactive)
REMARK    1  A    between atoms: C_1  and  C_2
REMARK    2  A    between atoms: N_6  and  C_7
REMARK    3  A    between atoms: N_11  and  C_12
REMARK    4  A    between atoms: C_14  and  C_15
REMARK    5  A    between atoms: N_22  and  C_23
REMARK    6  A    between atoms: C_23  and  C_24
REMARK                            x       y       z     vdW  Elec       q    Type
REMARK                         _______ _______ _______ _____ _____    ______ ____
ROOT
ATOM      1  C   UNL     1       2.350   6.265  19.055  0.00  0.00    +0.000 A 
ATOM      2  C   UNL     1       1.948   6.950  20.236  0.00  0.00    +0.000 A 
ATOM      3  C   UNL     1       1.661   8.255  19.912  0.00  0.00    +0.000 A 
ATOM      4  N   UNL     1       1.970   8.413  18.586  0.00  0.00    +0.000 N 
ATOM      5  C   UNL     1       2.371   7.223  18.048  0.00  0.00    +0.000 A 
ATOM      6  C   UNL     1       1.905   9.711  17.944  0.00  0.00    +0.000 C 
ATOM      7  C   UNL     1       0.908  10.611  18.681  0.00  0.00    +0.000 C 
ATOM      8  N   UNL     1       1.035  10.550  20.141  0.00  0.00    +0.000 N 
ATOM      9  C   UNL     1       1.187   9.316  20.772  0.00  0.00    +0.000 C 
ATOM     10  O   UNL     1       0.956   9.142  21.965  0.00  0.00    +0.000 OA
ENDROOT
BRANCH   1  18
ATOM     11  C   UNL     1       0.774   3.932  20.234  0.00  0.00    +0.000 C 
ATOM     12  C   UNL     1       2.025   3.810  19.429  0.00  0.00    +0.000 A 
ATOM     13  C   UNL     1       2.577   2.566  19.198  0.00  0.00    +0.000 A 
ATOM     14  N   UNL     1       3.694   2.351  18.482  0.00  0.00    +0.000 NA
ATOM     15  C   UNL     1       4.284   3.427  17.945  0.00  0.00    +0.000 A 
ATOM     16  N   UNL     1       5.395   3.144  17.142  0.00  0.00    +0.000 N 
ATOM     17  N   UNL     1       3.839   4.677  18.120  0.00  0.00    +0.000 NA
ATOM     18  C   UNL     1       2.733   4.864  18.873  0.00  0.00    +0.000 A 
ATOM     19  H   UNL     1       5.505   2.137  17.136  0.00  0.00    +0.000 HD
BRANCH  16  20
ATOM     20  C   UNL     1       5.928   3.957  16.199  0.00  0.00    +0.000 A 
ATOM     21  C   UNL     1       5.689   4.099  14.849  0.00  0.00    +0.000 A 
ATOM     22  C   UNL     1       6.609   5.061  14.405  0.00  0.00    +0.000 A 
ATOM     23  N   UNL     1       7.366   5.535  15.395  0.00  0.00    +0.000 NA
ATOM     24  N   UNL     1       6.932   4.857  16.480  0.00  0.00    +0.000 N 
ATOM     25  C   UNL     1       7.571   5.098  17.751  0.00  0.00    +0.000 C 
ENDBRANCH  16  20
ENDBRANCH   1  18
BRANCH   8  26
ATOM     26  C   UNL     1       0.582  11.682  20.934  0.00  0.00    +0.000 C 
BRANCH  26  27
ATOM     27  C   UNL     1       0.985  13.015  20.342  0.00  0.00    +0.000 A 
ATOM     28  C   UNL     1       0.037  13.851  19.722  0.00  0.00    +0.000 A 
ATOM     29  C   UNL     1       0.435  15.028  19.077  0.00  0.00    +0.000 A 
ATOM     30  C   UNL     1       1.781  15.374  19.051  0.00  0.00    +0.000 A 
ATOM     31  F   UNL     1       2.164  16.485  18.407  0.00  0.00    +0.000 F 
ATOM     32  C   UNL     1       2.723  14.566  19.673  0.00  0.00    +0.000 A 
ATOM     33  F   UNL     1       4.021  14.896  19.642  0.00  0.00    +0.000 F 
ATOM     34  C   UNL     1       2.335  13.393  20.317  0.00  0.00    +0.000 A 
ENDBRANCH  26  27
ENDBRANCH   8  26
TORSDOF 4
ENDMDL
