MODEL 1
REMARK VINA RESULT:      -7.5      0.000      0.000
REMARK  Name = 
REMARK  6 active torsions:
REMARK  status: ('A' for Active; 'I' for Inactive)
REMARK    1  A    between atoms: C_2  and  C_3
REMARK    2  A    between atoms: C_2  and  C_6
REMARK    3  A    between atoms: C_3  and  O_5
REMARK    4  A    between atoms: C_6  and  O_7
REMARK    5  A    between atoms: C_6  and  C_8
REMARK    6  A    between atoms: C_11  and  C_12
REMARK                            x       y       z     vdW  Elec       q    Type
REMARK                         _______ _______ _______ _____ _____    ______ ____
ROOT
ATOM      1  C   UNL     1       4.217   5.570  17.229  0.00  0.00    +0.000 A 
ATOM      2  C   UNL     1       3.248   6.171  18.051  0.00  0.00    +0.000 A 
ATOM      3  C   UNL     1       2.260   5.404  18.674  0.00  0.00    +0.000 A 
ATOM      4  C   UNL     1       2.217   4.016  18.492  0.00  0.00    +0.000 A 
ATOM      5  C   UNL     1       3.129   3.426  17.607  0.00  0.00    +0.000 A 
ATOM      6  C   UNL     1       4.092   4.199  16.958  0.00  0.00    +0.000 A 
ENDROOT
BRANCH   4   7
ATOM      7  C   UNL     1       1.239   3.154  19.253  0.00  0.00    +0.000 C 
ATOM      8  F   UNL     1       0.470   3.851  20.137  0.00  0.00    +0.000 F 
ATOM      9  F   UNL     1       0.370   2.499  18.435  0.00  0.00    +0.000 F 
ATOM     10  F   UNL     1       1.864   2.190  19.984  0.00  0.00    +0.000 F 
ENDBRANCH   4   7
BRANCH   1  11
ATOM     11  C   UNL     1       5.321   6.431  16.630  0.00  0.00    +0.000 C 
BRANCH  11  13
ATOM     12  C   UNL     1       7.484   7.266  17.662  0.00  0.00    +0.000 C 
ATOM     13  C   UNL     1       6.730   6.266  17.157  0.00  0.00    +0.000 C 
BRANCH  13  14
ATOM     14  C   UNL     1       7.424   4.947  17.076  0.00  0.00    +0.000 C 
ATOM     15  O   UNL     1       7.838   4.465  16.029  0.00  0.00    +0.000 OA
BRANCH  14  16
ATOM     16  O   UNL     1       7.544   4.282  18.243  0.00  0.00    +0.000 OA
ATOM     17  H   UNL     1       6.730   3.786  18.487  0.00  0.00    +0.000 HD
ENDBRANCH  14  16
ENDBRANCH  13  14
ENDBRANCH  11  13
BRANCH  11  18
ATOM     18  O   UNL     1       5.320   6.233  15.209  0.00  0.00    +0.000 OA
ATOM     19  H   UNL     1       5.680   5.341  15.038  0.00  0.00    +0.000 HD
ENDBRANCH  11  18
ENDBRANCH   1  11
TORSDOF 6
ENDMDL
MODEL 2
REMARK VINA RESULT:      -7.4      0.696      1.088
REMARK  Name = 
REMARK  6 active torsions:
REMARK  status: ('A' for Active; 'I' for Inactive)
REMARK    1  A    between atoms: C_2  and  C_3
REMARK    2  A    between atoms: C_2  and  C_6
REMARK    3  A    between atoms: C_3  and  O_5
REMARK    4  A    between atoms: C_6  and  O_7
REMARK    5  A    between atoms: C_6  and  C_8
REMARK    6  A    between atoms: C_11  and  C_12
REMARK                            x       y       z     vdW  Elec       q    Type
REMARK                         _______ _______ _______ _____ _____    ______ ____
ROOT
ATOM      1  C   UNL     1       4.350   5.631  17.465  0.00  0.00    +0.000 A 
ATOM      2  C   UNL     1       3.493   6.173  18.437  0.00  0.00    +0.000 A 
ATOM      3  C   UNL     1       2.472   5.405  19.002  0.00  0.00    +0.000 A 
ATOM      4  C   UNL     1       2.283   4.073  18.609  0.00  0.00    +0.000 A 
ATOM      5  C   UNL     1       3.081   3.558  17.580  0.00  0.00    +0.000 A 
ATOM      6  C   UNL     1       4.077   4.338  16.992  0.00  0.00    +0.000 A 
ENDROOT
BRANCH   4   7
ATOM      7  C   UNL     1       1.270   3.188  19.293  0.00  0.00    +0.000 C 
ATOM      8  F   UNL     1       0.439   3.862  20.138  0.00  0.00    +0.000 F 
ATOM      9  F   UNL     1       0.462   2.537  18.412  0.00  0.00    +0.000 F 
ATOM     10  F   UNL     1       1.860   2.220  20.047  0.00  0.00    +0.000 F 
ENDBRANCH   4   7
BRANCH   1  11
ATOM     11  C   UNL     1       5.498   6.478  16.930  0.00  0.00    +0.000 C 
BRANCH  11  13
ATOM     12  C   UNL     1       7.706   7.510  17.639  0.00  0.00    +0.000 C 
ATOM     13  C   UNL     1       6.790   6.522  17.717  0.00  0.00    +0.000 C 
BRANCH  13  14
ATOM     14  C   UNL     1       7.177   5.388  18.608  0.00  0.00    +0.000 C 
ATOM     15  O   UNL     1       7.077   5.423  19.828  0.00  0.00    +0.000 OA
BRANCH  14  16
ATOM     16  O   UNL     1       7.688   4.307  17.983  0.00  0.00    +0.000 OA
ATOM     17  H   UNL     1       7.073   3.925  17.315  0.00  0.00    +0.000 HD
ENDBRANCH  14  16
ENDBRANCH  13  14
ENDBRANCH  11  13
BRANCH  11  18
ATOM     18  O   UNL     1       5.776   6.057  15.587  0.00  0.00    +0.000 OA
ATOM     19  H   UNL     1       4.955   6.167  15.069  0.00  0.00    +0.000 HD
ENDBRANCH  11  18
ENDBRANCH   1  11
TORSDOF 6
ENDMDL
MODEL 3
REMARK VINA RESULT:      -7.4      0.758      1.499
REMARK  Name = 
REMARK  6 active torsions:
REMARK  status: ('A' for Active; 'I' for Inactive)
REMARK    1  A    between atoms: C_2  and  C_3
REMARK    2  A    between atoms: C_2  and  C_6
REMARK    3  A    between atoms: C_3  and  O_5
REMARK    4  A    between atoms: C_6  and  O_7
REMARK    5  A    between atoms: C_6  and  C_8
REMARK    6  A    between atoms: C_11  and  C_12
REMARK                            x       y       z     vdW  Elec       q    Type
REMARK                         _______ _______ _______ _____ _____    ______ ____
ROOT
ATOM      1  C   UNL     1       4.448   5.228  17.588  0.00  0.00    +0.000 A 
ATOM      2  C   UNL     1       3.879   4.076  17.019  0.00  0.00    +0.000 A 
ATOM      3  C   UNL     1       2.856   3.385  17.673  0.00  0.00    +0.000 A 
ATOM      4  C   UNL     1       2.375   3.829  18.912  0.00  0.00    +0.000 A 
ATOM      5  C   UNL     1       2.999   4.926  19.519  0.00  0.00    +0.000 A 
ATOM      6  C   UNL     1       4.045   5.594  18.881  0.00  0.00    +0.000 A 
ENDROOT
BRANCH   4   7
ATOM      7  C   UNL     1       1.189   3.173  19.576  0.00  0.00    +0.000 C 
ATOM      8  F   UNL     1       0.389   4.046  20.251  0.00  0.00    +0.000 F 
ATOM      9  F   UNL     1       0.379   2.532  18.689  0.00  0.00    +0.000 F 
ATOM     10  F   UNL     1       1.564   2.233  20.487  0.00  0.00    +0.000 F 
ENDBRANCH   4   7
BRANCH   1  11
ATOM     11  C   UNL     1       5.508   5.995  16.808  0.00  0.00    +0.000 C 
BRANCH  11  13
ATOM     12  C   UNL     1       7.492   7.411  17.515  0.00  0.00    +0.000 C 
ATOM     13  C   UNL     1       6.858   6.221  17.455  0.00  0.00    +0.000 C 
BRANCH  13  14
ATOM     14  C   UNL     1       7.631   5.077  18.023  0.00  0.00    +0.000 C 
ATOM     15  O   UNL     1       7.941   4.992  19.205  0.00  0.00    +0.000 OA
BRANCH  14  16
ATOM     16  O   UNL     1       8.008   4.134  17.135  0.00  0.00    +0.000 OA
ATOM     17  H   UNL     1       7.264   3.555  16.852  0.00  0.00    +0.000 HD
ENDBRANCH  14  16
ENDBRANCH  13  14
ENDBRANCH  11  13
BRANCH  11  18
ATOM     18  O   UNL     1       5.693   5.341  15.544  0.00  0.00    +0.000 OA
ATOM     19  H   UNL     1       6.272   5.911  15.001  0.00  0.00    +0.000 HD
ENDBRANCH  11  18
ENDBRANCH   1  11
TORSDOF 6
ENDMDL
MODEL 4
REMARK VINA RESULT:      -7.3      1.126      1.685
REMARK  Name = 
REMARK  6 active torsions:
REMARK  status: ('A' for Active; 'I' for Inactive)
REMARK    1  A    between atoms: C_2  and  C_3
REMARK    2  A    between atoms: C_2  and  C_6
REMARK    3  A    between atoms: C_3  and  O_5
REMARK    4  A    between atoms: C_6  and  O_7
REMARK    5  A    between atoms: C_6  and  C_8
REMARK    6  A    between atoms: C_11  and  C_12
REMARK                            x       y       z     vdW  Elec       q    Type
REMARK                         _______ _______ _______ _____ _____    ______ ____
ROOT
ATOM      1  C   UNL     1       4.394   4.348  17.243  0.00  0.00    +0.000 A 
ATOM      2  C   UNL     1       3.427   5.269  17.679  0.00  0.00    +0.000 A 
ATOM      3  C   UNL     1       2.313   4.848  18.409  0.00  0.00    +0.000 A 
ATOM      4  C   UNL     1       2.138   3.493  18.722  0.00  0.00    +0.000 A 
ATOM      5  C   UNL     1       3.055   2.564  18.216  0.00  0.00    +0.000 A 
ATOM      6  C   UNL     1       4.148   2.983  17.457  0.00  0.00    +0.000 A 
ENDROOT
BRANCH   4   7
ATOM      7  C   UNL     1       1.011   3.032  19.615  0.00  0.00    +0.000 C 
ATOM      8  F   UNL     1       0.054   2.317  18.959  0.00  0.00    +0.000 F 
ATOM      9  F   UNL     1       1.440   2.238  20.634  0.00  0.00    +0.000 F 
ATOM     10  F   UNL     1       0.360   4.075  20.200  0.00  0.00    +0.000 F 
ENDBRANCH   4   7
BRANCH   1  11
ATOM     11  C   UNL     1       5.631   4.858  16.516  0.00  0.00    +0.000 C 
BRANCH  11  13
ATOM     12  C   UNL     1       6.912   6.952  17.161  0.00  0.00    +0.000 C 
ATOM     13  C   UNL     1       6.664   5.633  17.306  0.00  0.00    +0.000 C 
BRANCH  13  14
ATOM     14  C   UNL     1       7.557   4.938  18.280  0.00  0.00    +0.000 C 
ATOM     15  O   UNL     1       7.590   5.203  19.475  0.00  0.00    +0.000 OA
BRANCH  14  16
ATOM     16  O   UNL     1       8.370   3.999  17.753  0.00  0.00    +0.000 OA
ATOM     17  H   UNL     1       8.561   4.149  16.799  0.00  0.00    +0.000 HD
ENDBRANCH  14  16
ENDBRANCH  13  14
ENDBRANCH  11  13
BRANCH  11  18
ATOM     18  O   UNL     1       6.266   3.741  15.876  0.00  0.00    +0.000 OA
ATOM     19  H   UNL     1       5.567   3.222  15.432  0.00  0.00    +0.000 HD
ENDBRANCH  11  18
ENDBRANCH   1  11
TORSDOF 6
ENDMDL
MODEL 5
REMARK VINA RESULT:      -7.3      0.782      1.232
REMARK  Name = 
REMARK  6 active torsions:
REMARK  status: ('A' for Active; 'I' for Inactive)
REMARK    1  A    between atoms: C_2  and  C_3
REMARK    2  A    between atoms: C_2  and  C_6
REMARK    3  A    between atoms: C_3  and  O_5
REMARK    4  A    between atoms: C_6  and  O_7
REMARK    5  A    between atoms: C_6  and  C_8
REMARK    6  A    between atoms: C_11  and  C_12
REMARK                            x       y       z     vdW  Elec       q    Type
REMARK                         _______ _______ _______ _____ _____    ______ ____
ROOT
ATOM      1  C   UNL     1       4.498   4.975  17.079  0.00  0.00    +0.000 A 
ATOM      2  C   UNL     1       3.484   5.760  17.654  0.00  0.00    +0.000 A 
ATOM      3  C   UNL     1       2.404   5.167  18.312  0.00  0.00    +0.000 A 
ATOM      4  C   UNL     1       2.311   3.772  18.413  0.00  0.00    +0.000 A 
ATOM      5  C   UNL     1       3.275   2.988  17.767  0.00  0.00    +0.000 A 
ATOM      6  C   UNL     1       4.334   3.581  17.080  0.00  0.00    +0.000 A 
ENDROOT
BRANCH   4   7
ATOM      7  C   UNL     1       1.222   3.114  19.225  0.00  0.00    +0.000 C 
ATOM      8  F   UNL     1       1.681   2.147  20.070  0.00  0.00    +0.000 F 
ATOM      9  F   UNL     1       0.540   3.998  20.003  0.00  0.00    +0.000 F 
ATOM     10  F   UNL     1       0.290   2.508  18.440  0.00  0.00    +0.000 F 
ENDBRANCH   4   7
BRANCH   1  11
ATOM     11  C   UNL     1       5.696   5.663  16.437  0.00  0.00    +0.000 C 
BRANCH  11  13
ATOM     12  C   UNL     1       7.354   7.318  17.415  0.00  0.00    +0.000 C 
ATOM     13  C   UNL     1       6.856   6.066  17.322  0.00  0.00    +0.000 C 
BRANCH  13  14
ATOM     14  C   UNL     1       7.594   5.045  18.123  0.00  0.00    +0.000 C 
ATOM     15  O   UNL     1       8.222   4.120  17.623  0.00  0.00    +0.000 OA
BRANCH  14  16
ATOM     16  O   UNL     1       7.503   5.180  19.462  0.00  0.00    +0.000 OA
ATOM     17  H   UNL     1       6.610   4.951  19.809  0.00  0.00    +0.000 HD
ENDBRANCH  14  16
ENDBRANCH  13  14
ENDBRANCH  11  13
BRANCH  11  18
ATOM     18  O   UNL     1       6.179   4.823  15.378  0.00  0.00    +0.000 OA
ATOM     19  H   UNL     1       7.147   4.941  15.329  0.00  0.00    +0.000 HD
ENDBRANCH  11  18
ENDBRANCH   1  11
TORSDOF 6
ENDMDL
MODEL 6
REMARK VINA RESULT:      -7.3      1.357      1.757
REMARK  Name = 
REMARK  6 active torsions:
REMARK  status: ('A' for Active; 'I' for Inactive)
REMARK    1  A    between atoms: C_2  and  C_3
REMARK    2  A    between atoms: C_2  and  C_6
REMARK    3  A    between atoms: C_3  and  O_5
REMARK    4  A    between atoms: C_6  and  O_7
REMARK    5  A    between atoms: C_6  and  C_8
REMARK    6  A    between atoms: C_11  and  C_12
REMARK                            x       y       z     vdW  Elec       q    Type
REMARK                         _______ _______ _______ _____ _____    ______ ____
ROOT
ATOM      1  C   UNL     1       4.342   5.235  17.447  0.00  0.00    +0.000 A 
ATOM      2  C   UNL     1       3.767   5.823  18.585  0.00  0.00    +0.000 A 
ATOM      3  C   UNL     1       2.705   5.207  19.252  0.00  0.00    +0.000 A 
ATOM      4  C   UNL     1       2.192   3.985  18.797  0.00  0.00    +0.000 A 
ATOM      5  C   UNL     1       2.707   3.440  17.615  0.00  0.00    +0.000 A 
ATOM      6  C   UNL     1       3.744   4.075  16.930  0.00  0.00    +0.000 A 
ENDROOT
BRANCH   4   7
ATOM      7  C   UNL     1       1.131   3.241  19.572  0.00  0.00    +0.000 C 
ATOM      8  F   UNL     1       0.323   2.471  18.789  0.00  0.00    +0.000 F 
ATOM      9  F   UNL     1       1.656   2.403  20.507  0.00  0.00    +0.000 F 
ATOM     10  F   UNL     1       0.302   4.083  20.247  0.00  0.00    +0.000 F 
ENDBRANCH   4   7
BRANCH   1  11
ATOM     11  C   UNL     1       5.547   5.900  16.794  0.00  0.00    +0.000 C 
BRANCH  11  13
ATOM     12  C   UNL     1       7.631   4.540  17.289  0.00  0.00    +0.000 C 
ATOM     13  C   UNL     1       6.731   5.037  16.415  0.00  0.00    +0.000 C 
BRANCH  13  14
ATOM     14  C   UNL     1       7.025   4.733  14.983  0.00  0.00    +0.000 C 
ATOM     15  O   UNL     1       7.696   5.460  14.263  0.00  0.00    +0.000 OA
BRANCH  14  16
ATOM     16  O   UNL     1       6.468   3.601  14.504  0.00  0.00    +0.000 OA
ATOM     17  H   UNL     1       5.487   3.652  14.444  0.00  0.00    +0.000 HD
ENDBRANCH  14  16
ENDBRANCH  13  14
ENDBRANCH  11  13
BRANCH  11  18
ATOM     18  O   UNL     1       5.090   6.612  15.635  0.00  0.00    +0.000 OA
ATOM     19  H   UNL     1       5.839   7.144  15.304  0.00  0.00    +0.000 HD
ENDBRANCH  11  18
ENDBRANCH   1  11
TORSDOF 6
ENDMDL
MODEL 7
REMARK VINA RESULT:      -7.3      0.446      1.525
REMARK  Name = 
REMARK  6 active torsions:
REMARK  status: ('A' for Active; 'I' for Inactive)
REMARK    1  A    between atoms: C_2  and  C_3
REMARK    2  A    between atoms: C_2  and  C_6
REMARK    3  A    between atoms: C_3  and  O_5
REMARK    4  A    between atoms: C_6  and  O_7
REMARK    5  A    between atoms: C_6  and  C_8
REMARK    6  A    between atoms: C_11  and  C_12
REMARK                            x       y       z     vdW  Elec       q    Type
REMARK                         _______ _______ _______ _____ _____    ______ ____
ROOT
ATOM      1  C   UNL     1       4.301   5.469  17.570  0.00  0.00    +0.000 A 
ATOM      2  C   UNL     1       3.969   4.195  17.078  0.00  0.00    +0.000 A 
ATOM      3  C   UNL     1       2.992   3.417  17.704  0.00  0.00    +0.000 A 
ATOM      4  C   UNL     1       2.322   3.893  18.839  0.00  0.00    +0.000 A 
ATOM      5  C   UNL     1       2.711   5.125  19.380  0.00  0.00    +0.000 A 
ATOM      6  C   UNL     1       3.712   5.885  18.774  0.00  0.00    +0.000 A 
ENDROOT
BRANCH   4   7
ATOM      7  C   UNL     1       1.178   3.125  19.456  0.00  0.00    +0.000 C 
ATOM      8  F   UNL     1       0.369   2.522  18.540  0.00  0.00    +0.000 F 
ATOM      9  F   UNL     1       1.600   2.137  20.292  0.00  0.00    +0.000 F 
ATOM     10  F   UNL     1       0.366   3.924  20.201  0.00  0.00    +0.000 F 
ENDBRANCH   4   7
BRANCH   1  11
ATOM     11  C   UNL     1       5.317   6.316  16.814  0.00  0.00    +0.000 C 
BRANCH  11  13
ATOM     12  C   UNL     1       7.466   7.447  17.552  0.00  0.00    +0.000 C 
ATOM     13  C   UNL     1       6.750   6.330  17.302  0.00  0.00    +0.000 C 
BRANCH  13  14
ATOM     14  C   UNL     1       7.509   5.057  17.473  0.00  0.00    +0.000 C 
ATOM     15  O   UNL     1       7.857   4.347  16.537  0.00  0.00    +0.000 OA
BRANCH  14  16
ATOM     16  O   UNL     1       7.770   4.703  18.748  0.00  0.00    +0.000 OA
ATOM     17  H   UNL     1       8.588   5.122  19.102  0.00  0.00    +0.000 HD
ENDBRANCH  14  16
ENDBRANCH  13  14
ENDBRANCH  11  13
BRANCH  11  18
ATOM     18  O   UNL     1       5.291   5.919  15.435  0.00  0.00    +0.000 OA
ATOM     19  H   UNL     1       4.880   6.647  14.929  0.00  0.00    +0.000 HD
ENDBRANCH  11  18
ENDBRANCH   1  11
TORSDOF 6
ENDMDL
MODEL 8
REMARK VINA RESULT:      -7.2      0.773      1.185
REMARK  Name = 
REMARK  6 active torsions:
REMARK  status: ('A' for Active; 'I' for Inactive)
REMARK    1  A    between atoms: C_2  and  C_3
REMARK    2  A    between atoms: C_2  and  C_6
REMARK    3  A    between atoms: C_3  and  O_5
REMARK    4  A    between atoms: C_6  and  O_7
REMARK    5  A    between atoms: C_6  and  C_8
REMARK    6  A    between atoms: C_11  and  C_12
REMARK                            x       y       z     vdW  Elec       q    Type
REMARK                         _______ _______ _______ _____ _____    ______ ____
ROOT
ATOM      1  C   UNL     1       4.389   5.694  17.924  0.00  0.00    +0.000 A 
ATOM      2  C   UNL     1       3.919   5.902  19.232  0.00  0.00    +0.000 A 
ATOM      3  C   UNL     1       2.889   5.119  19.757  0.00  0.00    +0.000 A 
ATOM      4  C   UNL     1       2.301   4.106  18.987  0.00  0.00    +0.000 A 
ATOM      5  C   UNL     1       2.709   3.954  17.656  0.00  0.00    +0.000 A 
ATOM      6  C   UNL     1       3.714   4.761  17.122  0.00  0.00    +0.000 A 
ENDROOT
BRANCH   4   7
ATOM      7  C   UNL     1       1.276   3.167  19.574  0.00  0.00    +0.000 C 
ATOM      8  F   UNL     1       1.818   2.169  20.327  0.00  0.00    +0.000 F 
ATOM      9  F   UNL     1       0.383   3.803  20.381  0.00  0.00    +0.000 F 
ATOM     10  F   UNL     1       0.537   2.547  18.613  0.00  0.00    +0.000 F 
ENDBRANCH   4   7
BRANCH   1  11
ATOM     11  C   UNL     1       5.564   6.519  17.417  0.00  0.00    +0.000 C 
BRANCH  11  13
ATOM     12  C   UNL     1       7.830   6.619  18.555  0.00  0.00    +0.000 C 
ATOM     13  C   UNL     1       6.967   6.028  17.702  0.00  0.00    +0.000 C 
BRANCH  13  14
ATOM     14  C   UNL     1       7.526   4.853  16.971  0.00  0.00    +0.000 C 
ATOM     15  O   UNL     1       7.335   4.646  15.779  0.00  0.00    +0.000 OA
BRANCH  14  16
ATOM     16  O   UNL     1       8.245   3.991  17.719  0.00  0.00    +0.000 OA
ATOM     17  H   UNL     1       8.326   4.275  18.658  0.00  0.00    +0.000 HD
ENDBRANCH  14  16
ENDBRANCH  13  14
ENDBRANCH  11  13
BRANCH  11  18
ATOM     18  O   UNL     1       5.405   6.700  16.002  0.00  0.00    +0.000 OA
ATOM     19  H   UNL     1       6.149   6.244  15.563  0.00  0.00    +0.000 HD
ENDBRANCH  11  18
ENDBRANCH   1  11
TORSDOF 6
ENDMDL
MODEL 9
REMARK VINA RESULT:      -7.2      1.372      1.532
REMARK  Name = 
REMARK  6 active torsions:
REMARK  status: ('A' for Active; 'I' for Inactive)
REMARK    1  A    between atoms: C_2  and  C_3
REMARK    2  A    between atoms: C_2  and  C_6
REMARK    3  A    between atoms: C_3  and  O_5
REMARK    4  A    between atoms: C_6  and  O_7
REMARK    5  A    between atoms: C_6  and  C_8
REMARK    6  A    between atoms: C_11  and  C_12
REMARK                            x       y       z     vdW  Elec       q    Type
REMARK                         _______ _______ _______ _____ _____    ______ ____
ROOT
ATOM      1  C   UNL     1       4.308   5.229  17.290  0.00  0.00    +0.000 A 
ATOM      2  C   UNL     1       3.555   5.911  18.261  0.00  0.00    +0.000 A 
ATOM      3  C   UNL     1       2.500   5.279  18.924  0.00  0.00    +0.000 A 
ATOM      4  C   UNL     1       2.171   3.948  18.633  0.00  0.00    +0.000 A 
ATOM      5  C   UNL     1       2.866   3.295  17.606  0.00  0.00    +0.000 A 
ATOM      6  C   UNL     1       3.896   3.940  16.921  0.00  0.00    +0.000 A 
ENDROOT
BRANCH   4   7
ATOM      7  C   UNL     1       1.120   3.207  19.422  0.00  0.00    +0.000 C 
ATOM      8  F   UNL     1       0.334   4.022  20.182  0.00  0.00    +0.000 F 
ATOM      9  F   UNL     1       0.270   2.499  18.629  0.00  0.00    +0.000 F 
ATOM     10  F   UNL     1       1.665   2.307  20.286  0.00  0.00    +0.000 F 
ENDBRANCH   4   7
BRANCH   1  11
ATOM     11  C   UNL     1       5.498   5.930  16.646  0.00  0.00    +0.000 C 
BRANCH  11  13
ATOM     12  C   UNL     1       7.596   4.581  17.114  0.00  0.00    +0.000 C 
ATOM     13  C   UNL     1       6.697   5.096  16.249  0.00  0.00    +0.000 C 
BRANCH  13  14
ATOM     14  C   UNL     1       7.009   4.848  14.811  0.00  0.00    +0.000 C 
ATOM     15  O   UNL     1       6.406   4.037  14.119  0.00  0.00    +0.000 OA
BRANCH  14  16
ATOM     16  O   UNL     1       8.040   5.559  14.309  0.00  0.00    +0.000 OA
ATOM     17  H   UNL     1       8.109   5.494  13.329  0.00  0.00    +0.000 HD
ENDBRANCH  14  16
ENDBRANCH  13  14
ENDBRANCH  11  13
BRANCH  11  18
ATOM     18  O   UNL     1       5.024   6.653  15.501  0.00  0.00    +0.000 OA
ATOM     19  H   UNL     1       5.694   6.557  14.796  0.00  0.00    +0.000 HD
ENDBRANCH  11  18
ENDBRANCH   1  11
TORSDOF 6
ENDMDL
