MODEL 1
REMARK VINA RESULT:      -8.1      0.000      0.000
REMARK  Name = 
REMARK  9 active torsions:
REMARK  status: ('A' for Active; 'I' for Inactive)
REMARK    1  A    between atoms: C_1  and  O_2
REMARK    2  A    between atoms: O_2  and  C_3
REMARK    3  A    between atoms: C_6  and  C_7
REMARK    4  A    between atoms: C_7  and  C_8
REMARK    5  A    between atoms: C_8  and  N_9
REMARK    6  A    between atoms: N_9  and  C_10
REMARK    7  A    between atoms: C_13  and  N_14
REMARK    8  A    between atoms: C_30  and  O_31
REMARK    9  A    between atoms: O_31  and  C_32
REMARK                            x       y       z     vdW  Elec       q    Type
REMARK                         _______ _______ _______ _____ _____    ______ ____
ROOT
ATOM      1  C   UNL     1       5.486   3.975  18.473  0.00  0.00    +0.000 A 
ATOM      2  C   UNL     1       5.852   4.812  19.541  0.00  0.00    +0.000 A 
ATOM      3  C   UNL     1       6.601   5.976  19.356  0.00  0.00    +0.000 A 
ATOM      4  C   UNL     1       7.050   6.305  18.077  0.00  0.00    +0.000 A 
ATOM      5  C   UNL     1       6.708   5.507  16.966  0.00  0.00    +0.000 A 
ATOM      6  N   UNL     1       7.338   5.645  15.709  0.00  0.00    +0.000 N 
ATOM      7  C   UNL     1       6.942   4.960  14.557  0.00  0.00    +0.000 A 
ATOM      8  C   UNL     1       7.704   5.028  13.387  0.00  0.00    +0.000 A 
ATOM      9  C   UNL     1       7.274   4.369  12.235  0.00  0.00    +0.000 A 
ATOM     10  C   UNL     1       6.064   3.683  12.250  0.00  0.00    +0.000 A 
ATOM     11  F   UNL     1       5.621   3.112  11.123  0.00  0.00    +0.000 F 
ATOM     12  C   UNL     1       5.335   3.542  13.424  0.00  0.00    +0.000 A 
ATOM     13  C   UNL     1       5.831   4.113  14.599  0.00  0.00    +0.000 A 
ATOM     14  C   UNL     1       5.251   3.780  15.927  0.00  0.00    +0.000 A 
ATOM     15  O   UNL     1       4.327   2.972  15.989  0.00  0.00    +0.000 OA
ATOM     16  C   UNL     1       5.815   4.417  17.167  0.00  0.00    +0.000 A 
ATOM     17  H   UNL     1       7.847   6.521  15.552  0.00  0.00    +0.000 HD
ENDROOT
BRANCH   4  18
ATOM     18  N   UNL     1       7.831   7.539  17.926  0.00  0.00    +0.000 N 
ATOM     19  O   UNL     1       8.657   7.810  18.810  0.00  0.00    +0.000 OA
ATOM     20  O   UNL     1       7.615   8.255  16.936  0.00  0.00    +0.000 OA
ENDBRANCH   4  18
BRANCH   1  21
ATOM     21  N   UNL     1       4.771   2.781  18.739  0.00  0.00    +0.000 N 
ATOM     22  H   UNL     1       5.378   2.081  19.181  0.00  0.00    +0.000 HD
BRANCH  21  23
ATOM     23  C   UNL     1       3.446   2.940  19.374  0.00  0.00    +0.000 C 
BRANCH  23  24
ATOM     24  C   UNL     1       2.481   3.786  18.538  0.00  0.00    +0.000 C 
BRANCH  24  28
ATOM     25  C   UNL     1       1.740   7.631  20.438  0.00  0.00    +0.000 A 
ATOM     26  C   UNL     1       1.380   6.433  21.069  0.00  0.00    +0.000 A 
ATOM     27  C   UNL     1       1.599   5.192  20.460  0.00  0.00    +0.000 A 
ATOM     28  C   UNL     1       2.163   5.124  19.183  0.00  0.00    +0.000 A 
ATOM     29  C   UNL     1       2.425   6.331  18.515  0.00  0.00    +0.000 A 
ATOM     30  C   UNL     1       2.213   7.585  19.119  0.00  0.00    +0.000 A 
BRANCH  25  32
ATOM     31  C   UNL     1       0.260   9.175  21.457  0.00  0.00    +0.000 C 
ATOM     32  O   UNL     1       1.593   8.841  21.072  0.00  0.00    +0.000 OA
ENDBRANCH  25  32
BRANCH  30  33
ATOM     33  O   UNL     1       2.543   8.621  18.283  0.00  0.00    +0.000 OA
ATOM     34  C   UNL     1       1.520   9.476  17.795  0.00  0.00    +0.000 C 
ENDBRANCH  30  33
ENDBRANCH  24  28
ENDBRANCH  23  24
ENDBRANCH  21  23
ENDBRANCH   1  21
TORSDOF 7
ENDMDL
MODEL 2
REMARK VINA RESULT:      -8.0      0.562      1.645
REMARK  Name = 
REMARK  9 active torsions:
REMARK  status: ('A' for Active; 'I' for Inactive)
REMARK    1  A    between atoms: C_1  and  O_2
REMARK    2  A    between atoms: O_2  and  C_3
REMARK    3  A    between atoms: C_6  and  C_7
REMARK    4  A    between atoms: C_7  and  C_8
REMARK    5  A    between atoms: C_8  and  N_9
REMARK    6  A    between atoms: N_9  and  C_10
REMARK    7  A    between atoms: C_13  and  N_14
REMARK    8  A    between atoms: C_30  and  O_31
REMARK    9  A    between atoms: O_31  and  C_32
REMARK                            x       y       z     vdW  Elec       q    Type
REMARK                         _______ _______ _______ _____ _____    ______ ____
ROOT
ATOM      1  C   UNL     1       5.308   4.154  18.549  0.00  0.00    +0.000 A 
ATOM      2  C   UNL     1       5.780   4.971  19.590  0.00  0.00    +0.000 A 
ATOM      3  C   UNL     1       6.638   6.049  19.366  0.00  0.00    +0.000 A 
ATOM      4  C   UNL     1       7.089   6.306  18.072  0.00  0.00    +0.000 A 
ATOM      5  C   UNL     1       6.645   5.525  16.985  0.00  0.00    +0.000 A 
ATOM      6  N   UNL     1       7.257   5.575  15.713  0.00  0.00    +0.000 N 
ATOM      7  C   UNL     1       6.769   4.912  14.584  0.00  0.00    +0.000 A 
ATOM      8  C   UNL     1       7.507   4.880  13.398  0.00  0.00    +0.000 A 
ATOM      9  C   UNL     1       6.988   4.245  12.269  0.00  0.00    +0.000 A 
ATOM     10  C   UNL     1       5.715   3.686  12.323  0.00  0.00    +0.000 A 
ATOM     11  F   UNL     1       5.192   3.141  11.218  0.00  0.00    +0.000 F 
ATOM     12  C   UNL     1       5.002   3.642  13.514  0.00  0.00    +0.000 A 
ATOM     13  C   UNL     1       5.579   4.182  14.666  0.00  0.00    +0.000 A 
ATOM     14  C   UNL     1       4.998   3.935  16.013  0.00  0.00    +0.000 A 
ATOM     15  O   UNL     1       3.999   3.227  16.110  0.00  0.00    +0.000 OA
ATOM     16  C   UNL     1       5.651   4.536  17.227  0.00  0.00    +0.000 A 
ATOM     17  H   UNL     1       7.848   6.392  15.527  0.00  0.00    +0.000 HD
ENDROOT
BRANCH   4  18
ATOM     18  N   UNL     1       7.987   7.451  17.879  0.00  0.00    +0.000 N 
ATOM     19  O   UNL     1       8.030   7.966  16.752  0.00  0.00    +0.000 OA
ATOM     20  O   UNL     1       8.669   7.834  18.843  0.00  0.00    +0.000 OA
ENDBRANCH   4  18
BRANCH   1  21
ATOM     21  N   UNL     1       4.482   3.045  18.854  0.00  0.00    +0.000 N 
ATOM     22  H   UNL     1       5.034   2.181  18.910  0.00  0.00    +0.000 HD
BRANCH  21  23
ATOM     23  C   UNL     1       3.516   3.233  19.957  0.00  0.00    +0.000 C 
BRANCH  23  24
ATOM     24  C   UNL     1       2.159   3.758  19.480  0.00  0.00    +0.000 C 
BRANCH  24  28
ATOM     25  C   UNL     1       1.870   8.088  19.152  0.00  0.00    +0.000 A 
ATOM     26  C   UNL     1       2.355   7.315  18.089  0.00  0.00    +0.000 A 
ATOM     27  C   UNL     1       2.467   5.923  18.190  0.00  0.00    +0.000 A 
ATOM     28  C   UNL     1       2.119   5.273  19.376  0.00  0.00    +0.000 A 
ATOM     29  C   UNL     1       1.733   6.064  20.471  0.00  0.00    +0.000 A 
ATOM     30  C   UNL     1       1.612   7.464  20.380  0.00  0.00    +0.000 A 
BRANCH  25  32
ATOM     31  C   UNL     1       0.741   9.845  18.035  0.00  0.00    +0.000 C 
ATOM     32  O   UNL     1       1.690   9.444  19.021  0.00  0.00    +0.000 OA
ENDBRANCH  25  32
BRANCH  30  33
ATOM     33  O   UNL     1       1.218   8.024  21.568  0.00  0.00    +0.000 OA
ATOM     34  C   UNL     1      -0.119   8.479  21.716  0.00  0.00    +0.000 C 
ENDBRANCH  30  33
ENDBRANCH  24  28
ENDBRANCH  23  24
ENDBRANCH  21  23
ENDBRANCH   1  21
TORSDOF 7
ENDMDL
MODEL 3
REMARK VINA RESULT:      -8.0      3.503      5.497
REMARK  Name = 
REMARK  9 active torsions:
REMARK  status: ('A' for Active; 'I' for Inactive)
REMARK    1  A    between atoms: C_1  and  O_2
REMARK    2  A    between atoms: O_2  and  C_3
REMARK    3  A    between atoms: C_6  and  C_7
REMARK    4  A    between atoms: C_7  and  C_8
REMARK    5  A    between atoms: C_8  and  N_9
REMARK    6  A    between atoms: N_9  and  C_10
REMARK    7  A    between atoms: C_13  and  N_14
REMARK    8  A    between atoms: C_30  and  O_31
REMARK    9  A    between atoms: O_31  and  C_32
REMARK                            x       y       z     vdW  Elec       q    Type
REMARK                         _______ _______ _______ _____ _____    ______ ____
ROOT
ATOM      1  C   UNL     1       2.531   6.895  19.152  0.00  0.00    +0.000 A 
ATOM      2  C   UNL     1       1.840   6.386  20.266  0.00  0.00    +0.000 A 
ATOM      3  C   UNL     1       1.953   5.055  20.672  0.00  0.00    +0.000 A 
ATOM      4  C   UNL     1       2.739   4.177  19.927  0.00  0.00    +0.000 A 
ATOM      5  C   UNL     1       3.461   4.631  18.805  0.00  0.00    +0.000 A 
ATOM      6  N   UNL     1       4.057   3.748  17.877  0.00  0.00    +0.000 N 
ATOM      7  C   UNL     1       4.882   4.159  16.826  0.00  0.00    +0.000 A 
ATOM      8  C   UNL     1       5.312   3.248  15.857  0.00  0.00    +0.000 A 
ATOM      9  C   UNL     1       6.166   3.667  14.836  0.00  0.00    +0.000 A 
ATOM     10  C   UNL     1       6.618   4.983  14.818  0.00  0.00    +0.000 A 
ATOM     11  F   UNL     1       7.492   5.362  13.878  0.00  0.00    +0.000 F 
ATOM     12  C   UNL     1       6.139   5.917  15.728  0.00  0.00    +0.000 A 
ATOM     13  C   UNL     1       5.198   5.512  16.678  0.00  0.00    +0.000 A 
ATOM     14  C   UNL     1       4.451   6.502  17.500  0.00  0.00    +0.000 A 
ATOM     15  O   UNL     1       4.658   7.700  17.323  0.00  0.00    +0.000 OA
ATOM     16  C   UNL     1       3.448   6.023  18.512  0.00  0.00    +0.000 A 
ATOM     17  H   UNL     1       4.188   2.781  18.192  0.00  0.00    +0.000 HD
ENDROOT
BRANCH   4  18
ATOM     18  N   UNL     1       2.834   2.787  20.392  0.00  0.00    +0.000 N 
ATOM     19  O   UNL     1       3.120   2.596  21.582  0.00  0.00    +0.000 OA
ATOM     20  O   UNL     1       2.641   1.877  19.569  0.00  0.00    +0.000 OA
ENDBRANCH   4  18
BRANCH   1  21
ATOM     21  N   UNL     1       2.328   8.241  18.764  0.00  0.00    +0.000 N 
ATOM     22  H   UNL     1       2.381   8.341  17.744  0.00  0.00    +0.000 HD
BRANCH  21  23
ATOM     23  C   UNL     1       1.188   8.940  19.395  0.00  0.00    +0.000 C 
BRANCH  23  24
ATOM     24  C   UNL     1       0.967  10.348  18.836  0.00  0.00    +0.000 C 
BRANCH  24  28
ATOM     25  C   UNL     1      -3.184  11.348  17.993  0.00  0.00    +0.000 A 
ATOM     26  C   UNL     1      -2.524  11.886  19.105  0.00  0.00    +0.000 A 
ATOM     27  C   UNL     1      -1.194  11.559  19.394  0.00  0.00    +0.000 A 
ATOM     28  C   UNL     1      -0.499  10.656  18.585  0.00  0.00    +0.000 A 
ATOM     29  C   UNL     1      -1.199  10.042  17.534  0.00  0.00    +0.000 A 
ATOM     30  C   UNL     1      -2.535  10.366  17.230  0.00  0.00    +0.000 A 
BRANCH  25  32
ATOM     31  C   UNL     1      -5.367  11.841  18.768  0.00  0.00    +0.000 C 
ATOM     32  O   UNL     1      -4.463  11.732  17.670  0.00  0.00    +0.000 OA
ENDBRANCH  25  32
BRANCH  30  33
ATOM     33  O   UNL     1      -3.009   9.647  16.163  0.00  0.00    +0.000 OA
ATOM     34  C   UNL     1      -2.977  10.221  14.865  0.00  0.00    +0.000 C 
ENDBRANCH  30  33
ENDBRANCH  24  28
ENDBRANCH  23  24
ENDBRANCH  21  23
ENDBRANCH   1  21
TORSDOF 7
ENDMDL
MODEL 4
REMARK VINA RESULT:      -7.7      3.424      5.633
REMARK  Name = 
REMARK  9 active torsions:
REMARK  status: ('A' for Active; 'I' for Inactive)
REMARK    1  A    between atoms: C_1  and  O_2
REMARK    2  A    between atoms: O_2  and  C_3
REMARK    3  A    between atoms: C_6  and  C_7
REMARK    4  A    between atoms: C_7  and  C_8
REMARK    5  A    between atoms: C_8  and  N_9
REMARK    6  A    between atoms: N_9  and  C_10
REMARK    7  A    between atoms: C_13  and  N_14
REMARK    8  A    between atoms: C_30  and  O_31
REMARK    9  A    between atoms: O_31  and  C_32
REMARK                            x       y       z     vdW  Elec       q    Type
REMARK                         _______ _______ _______ _____ _____    ______ ____
ROOT
ATOM      1  C   UNL     1       2.394   6.741  19.313  0.00  0.00    +0.000 A 
ATOM      2  C   UNL     1       1.747   6.187  20.430  0.00  0.00    +0.000 A 
ATOM      3  C   UNL     1       1.914   4.853  20.806  0.00  0.00    +0.000 A 
ATOM      4  C   UNL     1       2.713   4.017  20.027  0.00  0.00    +0.000 A 
ATOM      5  C   UNL     1       3.393   4.518  18.898  0.00  0.00    +0.000 A 
ATOM      6  N   UNL     1       3.998   3.675  17.940  0.00  0.00    +0.000 N 
ATOM      7  C   UNL     1       4.784   4.135  16.879  0.00  0.00    +0.000 A 
ATOM      8  C   UNL     1       5.222   3.259  15.882  0.00  0.00    +0.000 A 
ATOM      9  C   UNL     1       6.037   3.728  14.851  0.00  0.00    +0.000 A 
ATOM     10  C   UNL     1       6.443   5.059  14.850  0.00  0.00    +0.000 A 
ATOM     11  F   UNL     1       7.283   5.486  13.899  0.00  0.00    +0.000 F 
ATOM     12  C   UNL     1       5.954   5.958  15.789  0.00  0.00    +0.000 A 
ATOM     13  C   UNL     1       5.049   5.501  16.751  0.00  0.00    +0.000 A 
ATOM     14  C   UNL     1       4.288   6.448  17.610  0.00  0.00    +0.000 A 
ATOM     15  O   UNL     1       4.449   7.656  17.453  0.00  0.00    +0.000 OA
ATOM     16  C   UNL     1       3.325   5.915  18.634  0.00  0.00    +0.000 A 
ATOM     17  H   UNL     1       4.168   2.708  18.231  0.00  0.00    +0.000 HD
ENDROOT
BRANCH   4  18
ATOM     18  N   UNL     1       2.866   2.623  20.460  0.00  0.00    +0.000 N 
ATOM     19  O   UNL     1       2.532   1.733  19.665  0.00  0.00    +0.000 OA
ATOM     20  O   UNL     1       3.302   2.406  21.601  0.00  0.00    +0.000 OA
ENDBRANCH   4  18
BRANCH   1  21
ATOM     21  N   UNL     1       2.136   8.087  18.956  0.00  0.00    +0.000 N 
ATOM     22  H   UNL     1       1.903   8.166  17.960  0.00  0.00    +0.000 HD
BRANCH  21  23
ATOM     23  C   UNL     1       1.244   8.844  19.860  0.00  0.00    +0.000 C 
BRANCH  23  24
ATOM     24  C   UNL     1       1.157  10.331  19.507  0.00  0.00    +0.000 C 
BRANCH  24  28
ATOM     25  C   UNL     1      -2.895  11.419  18.351  0.00  0.00    +0.000 A 
ATOM     26  C   UNL     1      -2.162  10.481  17.614  0.00  0.00    +0.000 A 
ATOM     27  C   UNL     1      -0.853  10.136  17.968  0.00  0.00    +0.000 A 
ATOM     28  C   UNL     1      -0.234  10.748  19.060  0.00  0.00    +0.000 A 
ATOM     29  C   UNL     1      -0.936  11.762  19.730  0.00  0.00    +0.000 A 
ATOM     30  C   UNL     1      -2.256  12.115  19.387  0.00  0.00    +0.000 A 
BRANCH  25  32
ATOM     31  C   UNL     1      -4.607  11.382  16.714  0.00  0.00    +0.000 C 
ATOM     32  O   UNL     1      -4.206  11.698  18.047  0.00  0.00    +0.000 OA
ENDBRANCH  25  32
BRANCH  30  33
ATOM     33  O   UNL     1      -2.741  13.124  20.180  0.00  0.00    +0.000 OA
ATOM     34  C   UNL     1      -3.219  12.820  21.482  0.00  0.00    +0.000 C 
ENDBRANCH  30  33
ENDBRANCH  24  28
ENDBRANCH  23  24
ENDBRANCH  21  23
ENDBRANCH   1  21
TORSDOF 7
ENDMDL
MODEL 5
REMARK VINA RESULT:      -7.7      5.125      8.273
REMARK  Name = 
REMARK  9 active torsions:
REMARK  status: ('A' for Active; 'I' for Inactive)
REMARK    1  A    between atoms: C_1  and  O_2
REMARK    2  A    between atoms: O_2  and  C_3
REMARK    3  A    between atoms: C_6  and  C_7
REMARK    4  A    between atoms: C_7  and  C_8
REMARK    5  A    between atoms: C_8  and  N_9
REMARK    6  A    between atoms: N_9  and  C_10
REMARK    7  A    between atoms: C_13  and  N_14
REMARK    8  A    between atoms: C_30  and  O_31
REMARK    9  A    between atoms: O_31  and  C_32
REMARK                            x       y       z     vdW  Elec       q    Type
REMARK                         _______ _______ _______ _____ _____    ______ ____
ROOT
ATOM      1  C   UNL     1      -0.059  10.372  18.967  0.00  0.00    +0.000 A 
ATOM      2  C   UNL     1      -0.541  11.150  20.033  0.00  0.00    +0.000 A 
ATOM      3  C   UNL     1      -0.196  10.895  21.362  0.00  0.00    +0.000 A 
ATOM      4  C   UNL     1       0.617   9.802  21.660  0.00  0.00    +0.000 A 
ATOM      5  C   UNL     1       1.136   8.989  20.632  0.00  0.00    +0.000 A 
ATOM      6  N   UNL     1       1.743   7.739  20.886  0.00  0.00    +0.000 N 
ATOM      7  C   UNL     1       2.377   6.966  19.910  0.00  0.00    +0.000 A 
ATOM      8  C   UNL     1       2.819   5.671  20.199  0.00  0.00    +0.000 A 
ATOM      9  C   UNL     1       3.485   4.927  19.224  0.00  0.00    +0.000 A 
ATOM     10  C   UNL     1       3.741   5.500  17.982  0.00  0.00    +0.000 A 
ATOM     11  F   UNL     1       4.442   4.809  17.075  0.00  0.00    +0.000 F 
ATOM     12  C   UNL     1       3.241   6.754  17.654  0.00  0.00    +0.000 A 
ATOM     13  C   UNL     1       2.480   7.445  18.601  0.00  0.00    +0.000 A 
ATOM     14  C   UNL     1       1.699   8.656  18.233  0.00  0.00    +0.000 A 
ATOM     15  O   UNL     1       1.713   9.042  17.067  0.00  0.00    +0.000 OA
ATOM     16  C   UNL     1       0.894   9.370  19.282  0.00  0.00    +0.000 A 
ATOM     17  H   UNL     1       2.043   7.569  21.851  0.00  0.00    +0.000 HD
ENDROOT
BRANCH   4  18
ATOM     18  N   UNL     1       0.958   9.572  23.069  0.00  0.00    +0.000 N 
ATOM     19  O   UNL     1       2.144   9.339  23.343  0.00  0.00    +0.000 OA
ATOM     20  O   UNL     1       0.045   9.605  23.909  0.00  0.00    +0.000 OA
ENDBRANCH   4  18
BRANCH   1  21
ATOM     21  N   UNL     1      -0.492  10.653  17.649  0.00  0.00    +0.000 N 
ATOM     22  H   UNL     1       0.238  10.421  16.965  0.00  0.00    +0.000 HD
BRANCH  21  23
ATOM     23  C   UNL     1      -1.847  10.182  17.291  0.00  0.00    +0.000 C 
BRANCH  23  24
ATOM     24  C   UNL     1      -2.825  11.328  17.018  0.00  0.00    +0.000 C 
BRANCH  24  28
ATOM     25  C   UNL     1      -5.920  11.860  20.032  0.00  0.00    +0.000 A 
ATOM     26  C   UNL     1      -4.727  12.594  20.084  0.00  0.00    +0.000 A 
ATOM     27  C   UNL     1      -3.719  12.419  19.129  0.00  0.00    +0.000 A 
ATOM     28  C   UNL     1      -3.872  11.478  18.108  0.00  0.00    +0.000 A 
ATOM     29  C   UNL     1      -5.023  10.674  18.122  0.00  0.00    +0.000 A 
ATOM     30  C   UNL     1      -6.047  10.843  19.075  0.00  0.00    +0.000 A 
BRANCH  25  32
ATOM     31  C   UNL     1      -6.551  12.720  22.147  0.00  0.00    +0.000 C 
ATOM     32  O   UNL     1      -6.937  12.090  20.926  0.00  0.00    +0.000 OA
ENDBRANCH  25  32
BRANCH  30  33
ATOM     33  O   UNL     1      -7.073   9.952  18.892  0.00  0.00    +0.000 OA
ATOM     34  C   UNL     1      -7.159   8.806  19.724  0.00  0.00    +0.000 C 
ENDBRANCH  30  33
ENDBRANCH  24  28
ENDBRANCH  23  24
ENDBRANCH  21  23
ENDBRANCH   1  21
TORSDOF 7
ENDMDL
MODEL 6
REMARK VINA RESULT:      -7.7      5.254      8.494
REMARK  Name = 
REMARK  9 active torsions:
REMARK  status: ('A' for Active; 'I' for Inactive)
REMARK    1  A    between atoms: C_1  and  O_2
REMARK    2  A    between atoms: O_2  and  C_3
REMARK    3  A    between atoms: C_6  and  C_7
REMARK    4  A    between atoms: C_7  and  C_8
REMARK    5  A    between atoms: C_8  and  N_9
REMARK    6  A    between atoms: N_9  and  C_10
REMARK    7  A    between atoms: C_13  and  N_14
REMARK    8  A    between atoms: C_30  and  O_31
REMARK    9  A    between atoms: O_31  and  C_32
REMARK                            x       y       z     vdW  Elec       q    Type
REMARK                         _______ _______ _______ _____ _____    ______ ____
ROOT
ATOM      1  C   UNL     1      -0.172  10.577  19.064  0.00  0.00    +0.000 A 
ATOM      2  C   UNL     1      -0.710  11.257  20.170  0.00  0.00    +0.000 A 
ATOM      3  C   UNL     1      -0.387  10.919  21.486  0.00  0.00    +0.000 A 
ATOM      4  C   UNL     1       0.461   9.839  21.726  0.00  0.00    +0.000 A 
ATOM      5  C   UNL     1       1.037   9.122  20.657  0.00  0.00    +0.000 A 
ATOM      6  N   UNL     1       1.686   7.881  20.836  0.00  0.00    +0.000 N 
ATOM      7  C   UNL     1       2.374   7.205  19.824  0.00  0.00    +0.000 A 
ATOM      8  C   UNL     1       2.860   5.911  20.031  0.00  0.00    +0.000 A 
ATOM      9  C   UNL     1       3.577   5.266  19.023  0.00  0.00    +0.000 A 
ATOM     10  C   UNL     1       3.840   5.937  17.833  0.00  0.00    +0.000 A 
ATOM     11  F   UNL     1       4.589   5.340  16.898  0.00  0.00    +0.000 F 
ATOM     12  C   UNL     1       3.299   7.191  17.583  0.00  0.00    +0.000 A 
ATOM     13  C   UNL     1       2.489   7.782  18.556  0.00  0.00    +0.000 A 
ATOM     14  C   UNL     1       1.669   8.986  18.255  0.00  0.00    +0.000 A 
ATOM     15  O   UNL     1       1.696   9.457  17.121  0.00  0.00    +0.000 OA
ATOM     16  C   UNL     1       0.812   9.591  19.332  0.00  0.00    +0.000 A 
ATOM     17  H   UNL     1       1.970   7.653  21.794  0.00  0.00    +0.000 HD
ENDROOT
BRANCH   4  18
ATOM     18  N   UNL     1       0.778   9.519  23.124  0.00  0.00    +0.000 N 
ATOM     19  O   UNL     1      -0.164   9.446  23.926  0.00  0.00    +0.000 OA
ATOM     20  O   UNL     1       1.969   9.358  23.435  0.00  0.00    +0.000 OA
ENDBRANCH   4  18
BRANCH   1  21
ATOM     21  N   UNL     1      -0.584  10.937  17.758  0.00  0.00    +0.000 N 
ATOM     22  H   UNL     1      -0.608  10.117  17.141  0.00  0.00    +0.000 HD
BRANCH  21  23
ATOM     23  C   UNL     1      -1.771  11.814  17.666  0.00  0.00    +0.000 C 
BRANCH  23  24
ATOM     24  C   UNL     1      -3.031  11.070  17.216  0.00  0.00    +0.000 C 
BRANCH  24  28
ATOM     25  C   UNL     1      -6.517  12.039  19.635  0.00  0.00    +0.000 A 
ATOM     26  C   UNL     1      -6.648  11.344  18.425  0.00  0.00    +0.000 A 
ATOM     27  C   UNL     1      -5.535  11.041  17.632  0.00  0.00    +0.000 A 
ATOM     28  C   UNL     1      -4.260  11.456  18.022  0.00  0.00    +0.000 A 
ATOM     29  C   UNL     1      -4.148  12.241  19.181  0.00  0.00    +0.000 A 
ATOM     30  C   UNL     1      -5.260  12.548  19.990  0.00  0.00    +0.000 A 
BRANCH  25  32
ATOM     31  C   UNL     1      -7.884  11.240  21.396  0.00  0.00    +0.000 C 
ATOM     32  O   UNL     1      -7.602  12.267  20.446  0.00  0.00    +0.000 OA
ENDBRANCH  25  32
BRANCH  30  33
ATOM     33  O   UNL     1      -4.913  13.320  21.069  0.00  0.00    +0.000 OA
ATOM     34  C   UNL     1      -4.290  12.712  22.190  0.00  0.00    +0.000 C 
ENDBRANCH  30  33
ENDBRANCH  24  28
ENDBRANCH  23  24
ENDBRANCH  21  23
ENDBRANCH   1  21
TORSDOF 7
ENDMDL
MODEL 7
REMARK VINA RESULT:      -7.5      2.548      4.834
REMARK  Name = 
REMARK  9 active torsions:
REMARK  status: ('A' for Active; 'I' for Inactive)
REMARK    1  A    between atoms: C_1  and  O_2
REMARK    2  A    between atoms: O_2  and  C_3
REMARK    3  A    between atoms: C_6  and  C_7
REMARK    4  A    between atoms: C_7  and  C_8
REMARK    5  A    between atoms: C_8  and  N_9
REMARK    6  A    between atoms: N_9  and  C_10
REMARK    7  A    between atoms: C_13  and  N_14
REMARK    8  A    between atoms: C_30  and  O_31
REMARK    9  A    between atoms: O_31  and  C_32
REMARK                            x       y       z     vdW  Elec       q    Type
REMARK                         _______ _______ _______ _____ _____    ______ ____
ROOT
ATOM      1  C   UNL     1       2.949   6.626  18.523  0.00  0.00    +0.000 A 
ATOM      2  C   UNL     1       2.094   6.028  19.464  0.00  0.00    +0.000 A 
ATOM      3  C   UNL     1       1.976   4.643  19.594  0.00  0.00    +0.000 A 
ATOM      4  C   UNL     1       2.692   3.811  18.734  0.00  0.00    +0.000 A 
ATOM      5  C   UNL     1       3.572   4.353  17.774  0.00  0.00    +0.000 A 
ATOM      6  N   UNL     1       4.117   3.583  16.723  0.00  0.00    +0.000 N 
ATOM      7  C   UNL     1       5.084   4.053  15.830  0.00  0.00    +0.000 A 
ATOM      8  C   UNL     1       5.466   3.291  14.722  0.00  0.00    +0.000 A 
ATOM      9  C   UNL     1       6.460   3.759  13.863  0.00  0.00    +0.000 A 
ATOM     10  C   UNL     1       7.096   4.964  14.143  0.00  0.00    +0.000 A 
ATOM     11  F   UNL     1       8.098   5.374  13.355  0.00  0.00    +0.000 F 
ATOM     12  C   UNL     1       6.676   5.768  15.195  0.00  0.00    +0.000 A 
ATOM     13  C   UNL     1       5.604   5.342  15.982  0.00  0.00    +0.000 A 
ATOM     14  C   UNL     1       4.936   6.260  16.943  0.00  0.00    +0.000 A 
ATOM     15  O   UNL     1       5.328   7.421  17.029  0.00  0.00    +0.000 OA
ATOM     16  C   UNL     1       3.786   5.760  17.773  0.00  0.00    +0.000 A 
ATOM     17  H   UNL     1       4.078   2.566  16.839  0.00  0.00    +0.000 HD
ENDROOT
BRANCH   4  18
ATOM     18  N   UNL     1       2.544   2.361  18.907  0.00  0.00    +0.000 N 
ATOM     19  O   UNL     1       3.572   1.669  18.881  0.00  0.00    +0.000 OA
ATOM     20  O   UNL     1       1.401   1.900  19.054  0.00  0.00    +0.000 OA
ENDBRANCH   4  18
BRANCH   1  21
ATOM     21  N   UNL     1       2.979   8.037  18.408  0.00  0.00    +0.000 N 
ATOM     22  H   UNL     1       3.876   8.355  18.024  0.00  0.00    +0.000 HD
BRANCH  21  23
ATOM     23  C   UNL     1       1.788   8.669  17.800  0.00  0.00    +0.000 C 
BRANCH  23  24
ATOM     24  C   UNL     1       1.680  10.163  18.114  0.00  0.00    +0.000 C 
BRANCH  24  28
ATOM     25  C   UNL     1      -0.169  10.916  21.982  0.00  0.00    +0.000 A 
ATOM     26  C   UNL     1      -0.331   9.686  21.332  0.00  0.00    +0.000 A 
ATOM     27  C   UNL     1       0.246   9.439  20.080  0.00  0.00    +0.000 A 
ATOM     28  C   UNL     1       0.981  10.437  19.435  0.00  0.00    +0.000 A 
ATOM     29  C   UNL     1       1.051  11.700  20.044  0.00  0.00    +0.000 A 
ATOM     30  C   UNL     1       0.480  11.959  21.305  0.00  0.00    +0.000 A 
BRANCH  25  32
ATOM     31  C   UNL     1      -1.968  11.722  23.295  0.00  0.00    +0.000 C 
ATOM     32  O   UNL     1      -0.672  11.127  23.242  0.00  0.00    +0.000 OA
ENDBRANCH  25  32
BRANCH  30  33
ATOM     33  O   UNL     1       0.678  13.256  21.703  0.00  0.00    +0.000 OA
ATOM     34  C   UNL     1       0.871  14.265  20.723  0.00  0.00    +0.000 C 
ENDBRANCH  30  33
ENDBRANCH  24  28
ENDBRANCH  23  24
ENDBRANCH  21  23
ENDBRANCH   1  21
TORSDOF 7
ENDMDL
MODEL 8
REMARK VINA RESULT:      -7.5      2.787      5.248
REMARK  Name = 
REMARK  9 active torsions:
REMARK  status: ('A' for Active; 'I' for Inactive)
REMARK    1  A    between atoms: C_1  and  O_2
REMARK    2  A    between atoms: O_2  and  C_3
REMARK    3  A    between atoms: C_6  and  C_7
REMARK    4  A    between atoms: C_7  and  C_8
REMARK    5  A    between atoms: C_8  and  N_9
REMARK    6  A    between atoms: N_9  and  C_10
REMARK    7  A    between atoms: C_13  and  N_14
REMARK    8  A    between atoms: C_30  and  O_31
REMARK    9  A    between atoms: O_31  and  C_32
REMARK                            x       y       z     vdW  Elec       q    Type
REMARK                         _______ _______ _______ _____ _____    ______ ____
ROOT
ATOM      1  C   UNL     1       2.581   7.136  19.063  0.00  0.00    +0.000 A 
ATOM      2  C   UNL     1       1.802   6.671  20.136  0.00  0.00    +0.000 A 
ATOM      3  C   UNL     1       1.790   5.331  20.526  0.00  0.00    +0.000 A 
ATOM      4  C   UNL     1       2.535   4.401  19.803  0.00  0.00    +0.000 A 
ATOM      5  C   UNL     1       3.342   4.809  18.721  0.00  0.00    +0.000 A 
ATOM      6  N   UNL     1       3.907   3.892  17.807  0.00  0.00    +0.000 N 
ATOM      7  C   UNL     1       4.808   4.248  16.800  0.00  0.00    +0.000 A 
ATOM      8  C   UNL     1       5.207   3.317  15.836  0.00  0.00    +0.000 A 
ATOM      9  C   UNL     1       6.137   3.679  14.860  0.00  0.00    +0.000 A 
ATOM     10  C   UNL     1       6.693   4.954  14.882  0.00  0.00    +0.000 A 
ATOM     11  F   UNL     1       7.636   5.272  13.988  0.00  0.00    +0.000 F 
ATOM     12  C   UNL     1       6.250   5.913  15.785  0.00  0.00    +0.000 A 
ATOM     13  C   UNL     1       5.237   5.573  16.686  0.00  0.00    +0.000 A 
ATOM     14  C   UNL     1       4.536   6.610  17.490  0.00  0.00    +0.000 A 
ATOM     15  O   UNL     1       4.846   7.789  17.341  0.00  0.00    +0.000 OA
ATOM     16  C   UNL     1       3.453   6.202  18.449  0.00  0.00    +0.000 A 
ATOM     17  H   UNL     1       3.945   2.915  18.112  0.00  0.00    +0.000 HD
ENDROOT
BRANCH   4  18
ATOM     18  N   UNL     1       2.498   3.003  20.249  0.00  0.00    +0.000 N 
ATOM     19  O   UNL     1       3.570   2.382  20.289  0.00  0.00    +0.000 OA
ATOM     20  O   UNL     1       1.399   2.509  20.546  0.00  0.00    +0.000 OA
ENDBRANCH   4  18
BRANCH   1  21
ATOM     21  N   UNL     1       2.504   8.499  18.687  0.00  0.00    +0.000 N 
ATOM     22  H   UNL     1       3.441   8.898  18.556  0.00  0.00    +0.000 HD
BRANCH  21  23
ATOM     23  C   UNL     1       1.537   8.830  17.619  0.00  0.00    +0.000 C 
BRANCH  23  24
ATOM     24  C   UNL     1       0.263   9.492  18.150  0.00  0.00    +0.000 C 
BRANCH  24  28
ATOM     25  C   UNL     1       0.915  12.649  21.074  0.00  0.00    +0.000 A 
ATOM     26  C   UNL     1       1.403  12.765  19.766  0.00  0.00    +0.000 A 
ATOM     27  C   UNL     1       1.213  11.749  18.823  0.00  0.00    +0.000 A 
ATOM     28  C   UNL     1       0.548  10.573  19.179  0.00  0.00    +0.000 A 
ATOM     29  C   UNL     1       0.154  10.420  20.518  0.00  0.00    +0.000 A 
ATOM     30  C   UNL     1       0.336  11.437  21.475  0.00  0.00    +0.000 A 
BRANCH  25  32
ATOM     31  C   UNL     1       1.962  14.705  21.611  0.00  0.00    +0.000 C 
ATOM     32  O   UNL     1       1.038  13.680  21.974  0.00  0.00    +0.000 OA
ENDBRANCH  25  32
BRANCH  30  33
ATOM     33  O   UNL     1      -0.129  11.069  22.712  0.00  0.00    +0.000 OA
ATOM     34  C   UNL     1      -0.134   9.697  23.076  0.00  0.00    +0.000 C 
ENDBRANCH  30  33
ENDBRANCH  24  28
ENDBRANCH  23  24
ENDBRANCH  21  23
ENDBRANCH   1  21
TORSDOF 7
ENDMDL
MODEL 9
REMARK VINA RESULT:      -7.5      3.294      5.415
REMARK  Name = 
REMARK  9 active torsions:
REMARK  status: ('A' for Active; 'I' for Inactive)
REMARK    1  A    between atoms: C_1  and  O_2
REMARK    2  A    between atoms: O_2  and  C_3
REMARK    3  A    between atoms: C_6  and  C_7
REMARK    4  A    between atoms: C_7  and  C_8
REMARK    5  A    between atoms: C_8  and  N_9
REMARK    6  A    between atoms: N_9  and  C_10
REMARK    7  A    between atoms: C_13  and  N_14
REMARK    8  A    between atoms: C_30  and  O_31
REMARK    9  A    between atoms: O_31  and  C_32
REMARK                            x       y       z     vdW  Elec       q    Type
REMARK                         _______ _______ _______ _____ _____    ______ ____
ROOT
ATOM      1  C   UNL     1       2.767   6.689  18.825  0.00  0.00    +0.000 A 
ATOM      2  C   UNL     1       1.939   6.090  19.790  0.00  0.00    +0.000 A 
ATOM      3  C   UNL     1       1.876   4.707  19.967  0.00  0.00    +0.000 A 
ATOM      4  C   UNL     1       2.620   3.875  19.131  0.00  0.00    +0.000 A 
ATOM      5  C   UNL     1       3.475   4.418  18.150  0.00  0.00    +0.000 A 
ATOM      6  N   UNL     1       4.046   3.635  17.122  0.00  0.00    +0.000 N 
ATOM      7  C   UNL     1       4.991   4.112  16.210  0.00  0.00    +0.000 A 
ATOM      8  C   UNL     1       5.398   3.329  15.126  0.00  0.00    +0.000 A 
ATOM      9  C   UNL     1       6.370   3.805  14.247  0.00  0.00    +0.000 A 
ATOM     10  C   UNL     1       6.960   5.043  14.483  0.00  0.00    +0.000 A 
ATOM     11  F   UNL     1       7.943   5.464  13.678  0.00  0.00    +0.000 F 
ATOM     12  C   UNL     1       6.513   5.865  15.510  0.00  0.00    +0.000 A 
ATOM     13  C   UNL     1       5.461   5.424  16.316  0.00  0.00    +0.000 A 
ATOM     14  C   UNL     1       4.761   6.347  17.249  0.00  0.00    +0.000 A 
ATOM     15  O   UNL     1       5.108   7.525  17.295  0.00  0.00    +0.000 OA
ATOM     16  C   UNL     1       3.634   5.832  18.101  0.00  0.00    +0.000 A 
ATOM     17  H   UNL     1       4.046   2.622  17.273  0.00  0.00    +0.000 HD
ENDROOT
BRANCH   4  18
ATOM     18  N   UNL     1       2.529   2.427  19.354  0.00  0.00    +0.000 N 
ATOM     19  O   UNL     1       3.583   1.776  19.349  0.00  0.00    +0.000 OA
ATOM     20  O   UNL     1       1.405   1.927  19.517  0.00  0.00    +0.000 OA
ENDBRANCH   4  18
BRANCH   1  21
ATOM     21  N   UNL     1       2.742   8.095  18.663  0.00  0.00    +0.000 N 
ATOM     22  H   UNL     1       3.641   8.441  18.307  0.00  0.00    +0.000 HD
BRANCH  21  23
ATOM     23  C   UNL     1       1.553   8.654  17.984  0.00  0.00    +0.000 C 
BRANCH  23  24
ATOM     24  C   UNL     1       1.237  10.088  18.418  0.00  0.00    +0.000 C 
BRANCH  24  28
ATOM     25  C   UNL     1      -3.029  10.932  18.241  0.00  0.00    +0.000 A 
ATOM     26  C   UNL     1      -2.430  10.049  17.333  0.00  0.00    +0.000 A 
ATOM     27  C   UNL     1      -1.056   9.783  17.371  0.00  0.00    +0.000 A 
ATOM     28  C   UNL     1      -0.242  10.422  18.309  0.00  0.00    +0.000 A 
ATOM     29  C   UNL     1      -0.831  11.382  19.147  0.00  0.00    +0.000 A 
ATOM     30  C   UNL     1      -2.212  11.655  19.121  0.00  0.00    +0.000 A 
BRANCH  25  32
ATOM     31  C   UNL     1      -4.911  11.843  17.128  0.00  0.00    +0.000 C 
ATOM     32  O   UNL     1      -4.389  11.131  18.249  0.00  0.00    +0.000 OA
ENDBRANCH  25  32
BRANCH  30  33
ATOM     33  O   UNL     1      -2.563  12.623  20.028  0.00  0.00    +0.000 OA
ATOM     34  C   UNL     1      -1.672  13.700  20.278  0.00  0.00    +0.000 C 
ENDBRANCH  30  33
ENDBRANCH  24  28
ENDBRANCH  23  24
ENDBRANCH  21  23
ENDBRANCH   1  21
TORSDOF 7
ENDMDL
