MODEL 1
REMARK VINA RESULT:      -7.0      0.000      0.000
REMARK  Name = 
REMARK  6 active torsions:
REMARK  status: ('A' for Active; 'I' for Inactive)
REMARK    1  A    between atoms: C_1  and  C_2
REMARK    2  A    between atoms: C_7  and  N_8
REMARK    3  A    between atoms: N_8  and  C_9
REMARK    4  A    between atoms: C_10  and  C_12
REMARK    5  A    between atoms: C_12  and  N_13
REMARK    6  A    between atoms: C_14  and  C_16
REMARK                            x       y       z     vdW  Elec       q    Type
REMARK                         _______ _______ _______ _____ _____    ______ ____
ROOT
ATOM      1  N   UNL     1       3.116   6.105  18.506  0.00  0.00    +0.000 N 
ATOM      2  C   UNL     1       2.487   4.820  18.826  0.00  0.00    +0.000 C 
ATOM      3  C   UNL     1       4.392   6.106  17.904  0.00  0.00    +0.000 C 
ATOM      4  O   UNL     1       5.057   7.111  17.639  0.00  0.00    +0.000 OA
ENDROOT
BRANCH   1  11
ATOM      5  C   UNL     1      -0.646  11.781  22.015  0.00  0.00    +0.000 C 
ATOM      6  C   UNL     1       0.070  10.759  21.204  0.00  0.00    +0.000 A 
ATOM      7  N   UNL     1       0.324  10.870  19.918  0.00  0.00    +0.000 NA
ATOM      8  C   UNL     1       1.001   9.747  19.471  0.00  0.00    +0.000 A 
ATOM      9  C   UNL     1       1.437   9.501  18.161  0.00  0.00    +0.000 A 
ATOM     10  C   UNL     1       2.126   8.309  17.858  0.00  0.00    +0.000 A 
ATOM     11  C   UNL     1       2.397   7.329  18.825  0.00  0.00    +0.000 A 
ATOM     12  C   UNL     1       1.946   7.582  20.137  0.00  0.00    +0.000 A 
ATOM     13  C   UNL     1       1.263   8.782  20.437  0.00  0.00    +0.000 A 
ATOM     14  S   UNL     1       0.627   9.316  21.947  0.00  0.00    +0.000 S 
ENDBRANCH   1  11
BRANCH   3  15
ATOM     15  C   UNL     1       5.049   4.742  17.620  0.00  0.00    +0.000 C 
BRANCH  15  16
ATOM     16  N   UNL     1       5.324   4.605  16.202  0.00  0.00    +0.000 N 
ATOM     17  C   UNL     1       6.612   4.573  15.721  0.00  0.00    +0.000 C 
ATOM     18  O   UNL     1       7.585   4.694  16.454  0.00  0.00    +0.000 OA
ATOM     19  H   UNL     1       4.548   4.361  15.603  0.00  0.00    +0.000 HD
BRANCH  17  20
ATOM     20  C   UNL     1       6.741   4.411  14.269  0.00  0.00    +0.000 A 
ATOM     21  C   UNL     1       7.579   5.137  13.351  0.00  0.00    +0.000 A 
ATOM     22  C   UNL     1       7.471   4.687  12.052  0.00  0.00    +0.000 A 
ATOM     23  S   UNL     1       6.356   3.403  11.911  0.00  0.00    +0.000 S 
ATOM     24  C   UNL     1       6.022   3.443  13.585  0.00  0.00    +0.000 A 
ENDBRANCH  17  20
ENDBRANCH  15  16
ENDBRANCH   3  15
TORSDOF 4
ENDMDL
MODEL 2
REMARK VINA RESULT:      -6.8      3.507      9.121
REMARK  Name = 
REMARK  6 active torsions:
REMARK  status: ('A' for Active; 'I' for Inactive)
REMARK    1  A    between atoms: C_1  and  C_2
REMARK    2  A    between atoms: C_7  and  N_8
REMARK    3  A    between atoms: N_8  and  C_9
REMARK    4  A    between atoms: C_10  and  C_12
REMARK    5  A    between atoms: C_12  and  N_13
REMARK    6  A    between atoms: C_14  and  C_16
REMARK                            x       y       z     vdW  Elec       q    Type
REMARK                         _______ _______ _______ _____ _____    ______ ____
ROOT
ATOM      1  N   UNL     1       1.839   8.114  19.367  0.00  0.00    +0.000 N 
ATOM      2  C   UNL     1       1.524   7.989  20.793  0.00  0.00    +0.000 C 
ATOM      3  C   UNL     1       1.469   9.296  18.691  0.00  0.00    +0.000 C 
ATOM      4  O   UNL     1       1.619   9.506  17.484  0.00  0.00    +0.000 OA
ENDROOT
BRANCH   1  11
ATOM      5  C   UNL     1       6.426   3.776  15.029  0.00  0.00    +0.000 C 
ATOM      6  C   UNL     1       5.473   4.489  15.923  0.00  0.00    +0.000 A 
ATOM      7  N   UNL     1       4.617   3.895  16.727  0.00  0.00    +0.000 NA
ATOM      8  C   UNL     1       3.880   4.844  17.416  0.00  0.00    +0.000 A 
ATOM      9  C   UNL     1       2.871   4.595  18.357  0.00  0.00    +0.000 A 
ATOM     10  C   UNL     1       2.212   5.671  18.987  0.00  0.00    +0.000 A 
ATOM     11  C   UNL     1       2.519   7.011  18.706  0.00  0.00    +0.000 A 
ATOM     12  C   UNL     1       3.528   7.250  17.752  0.00  0.00    +0.000 A 
ATOM     13  C   UNL     1       4.192   6.168  17.129  0.00  0.00    +0.000 A 
ATOM     14  S   UNL     1       5.448   6.204  15.950  0.00  0.00    +0.000 S 
ENDBRANCH   1  11
BRANCH   3  15
ATOM     15  C   UNL     1       0.751  10.390  19.503  0.00  0.00    +0.000 C 
BRANCH  15  16
ATOM     16  N   UNL     1      -0.635  10.492  19.086  0.00  0.00    +0.000 N 
ATOM     17  C   UNL     1      -1.128  11.641  18.511  0.00  0.00    +0.000 C 
ATOM     18  O   UNL     1      -0.437  12.639  18.355  0.00  0.00    +0.000 OA
ATOM     19  H   UNL     1      -1.178   9.640  19.073  0.00  0.00    +0.000 HD
BRANCH  17  20
ATOM     20  C   UNL     1      -2.541  11.597  18.122  0.00  0.00    +0.000 A 
ATOM     21  C   UNL     1      -3.123  11.151  16.883  0.00  0.00    +0.000 A 
ATOM     22  C   UNL     1      -4.500  11.215  16.881  0.00  0.00    +0.000 A 
ATOM     23  S   UNL     1      -5.115  11.821  18.352  0.00  0.00    +0.000 S 
ATOM     24  C   UNL     1      -3.542  11.993  18.996  0.00  0.00    +0.000 A 
ENDBRANCH  17  20
ENDBRANCH  15  16
ENDBRANCH   3  15
TORSDOF 4
ENDMDL
MODEL 3
REMARK VINA RESULT:      -6.8      5.098      7.336
REMARK  Name = 
REMARK  6 active torsions:
REMARK  status: ('A' for Active; 'I' for Inactive)
REMARK    1  A    between atoms: C_1  and  C_2
REMARK    2  A    between atoms: C_7  and  N_8
REMARK    3  A    between atoms: N_8  and  C_9
REMARK    4  A    between atoms: C_10  and  C_12
REMARK    5  A    between atoms: C_12  and  N_13
REMARK    6  A    between atoms: C_14  and  C_16
REMARK                            x       y       z     vdW  Elec       q    Type
REMARK                         _______ _______ _______ _____ _____    ______ ____
ROOT
ATOM      1  N   UNL     1       7.009   6.158  18.435  0.00  0.00    +0.000 N 
ATOM      2  C   UNL     1       7.959   5.682  19.446  0.00  0.00    +0.000 C 
ATOM      3  C   UNL     1       7.255   7.395  17.802  0.00  0.00    +0.000 C 
ATOM      4  O   UNL     1       6.510   7.939  16.982  0.00  0.00    +0.000 OA
ENDROOT
BRANCH   1  11
ATOM      5  C   UNL     1       0.466   2.186  18.729  0.00  0.00    +0.000 C 
ATOM      6  C   UNL     1       1.747   2.916  18.525  0.00  0.00    +0.000 A 
ATOM      7  N   UNL     1       2.393   2.985  17.381  0.00  0.00    +0.000 NA
ATOM      8  C   UNL     1       3.546   3.737  17.535  0.00  0.00    +0.000 A 
ATOM      9  C   UNL     1       4.491   4.028  16.540  0.00  0.00    +0.000 A 
ATOM     10  C   UNL     1       5.617   4.819  16.846  0.00  0.00    +0.000 A 
ATOM     11  C   UNL     1       5.848   5.336  18.130  0.00  0.00    +0.000 A 
ATOM     12  C   UNL     1       4.897   5.030  19.124  0.00  0.00    +0.000 A 
ATOM     13  C   UNL     1       3.765   4.243  18.811  0.00  0.00    +0.000 A 
ATOM     14  S   UNL     1       2.476   3.745  19.839  0.00  0.00    +0.000 S 
ENDBRANCH   1  11
BRANCH   3  15
ATOM     15  C   UNL     1       8.518   8.172  18.216  0.00  0.00    +0.000 C 
BRANCH  15  16
ATOM     16  N   UNL     1       8.342   9.588  17.955  0.00  0.00    +0.000 N 
ATOM     17  C   UNL     1       9.040  10.539  18.662  0.00  0.00    +0.000 C 
ATOM     18  O   UNL     1       9.812  10.245  19.565  0.00  0.00    +0.000 OA
ATOM     19  H   UNL     1       7.826   9.844  17.125  0.00  0.00    +0.000 HD
BRANCH  17  20
ATOM     20  C   UNL     1       8.777  11.931  18.279  0.00  0.00    +0.000 A 
ATOM     21  C   UNL     1       7.767  12.448  17.393  0.00  0.00    +0.000 A 
ATOM     22  C   UNL     1       7.789  13.823  17.295  0.00  0.00    +0.000 A 
ATOM     23  S   UNL     1       9.024  14.512  18.249  0.00  0.00    +0.000 S 
ATOM     24  C   UNL     1       9.527  12.975  18.797  0.00  0.00    +0.000 A 
ENDBRANCH  17  20
ENDBRANCH  15  16
ENDBRANCH   3  15
TORSDOF 4
ENDMDL
MODEL 4
REMARK VINA RESULT:      -6.8      3.963      8.878
REMARK  Name = 
REMARK  6 active torsions:
REMARK  status: ('A' for Active; 'I' for Inactive)
REMARK    1  A    between atoms: C_1  and  C_2
REMARK    2  A    between atoms: C_7  and  N_8
REMARK    3  A    between atoms: N_8  and  C_9
REMARK    4  A    between atoms: C_10  and  C_12
REMARK    5  A    between atoms: C_12  and  N_13
REMARK    6  A    between atoms: C_14  and  C_16
REMARK                            x       y       z     vdW  Elec       q    Type
REMARK                         _______ _______ _______ _____ _____    ______ ____
ROOT
ATOM      1  N   UNL     1       1.856   8.323  19.285  0.00  0.00    +0.000 N 
ATOM      2  C   UNL     1       1.328   8.475  20.644  0.00  0.00    +0.000 C 
ATOM      3  C   UNL     1       1.709   9.392  18.376  0.00  0.00    +0.000 C 
ATOM      4  O   UNL     1       2.051   9.374  17.190  0.00  0.00    +0.000 OA
ENDROOT
BRANCH   1  11
ATOM      5  C   UNL     1       3.989   0.988  18.706  0.00  0.00    +0.000 C 
ATOM      6  C   UNL     1       3.683   2.445  18.715  0.00  0.00    +0.000 A 
ATOM      7  N   UNL     1       4.287   3.340  17.963  0.00  0.00    +0.000 NA
ATOM      8  C   UNL     1       3.767   4.598  18.217  0.00  0.00    +0.000 A 
ATOM      9  C   UNL     1       4.161   5.801  17.613  0.00  0.00    +0.000 A 
ATOM     10  C   UNL     1       3.530   7.010  17.969  0.00  0.00    +0.000 A 
ATOM     11  C   UNL     1       2.507   7.072  18.929  0.00  0.00    +0.000 A 
ATOM     12  C   UNL     1       2.126   5.859  19.537  0.00  0.00    +0.000 A 
ATOM     13  C   UNL     1       2.756   4.648  19.169  0.00  0.00    +0.000 A 
ATOM     14  S   UNL     1       2.465   3.055  19.759  0.00  0.00    +0.000 S 
ENDBRANCH   1  11
BRANCH   3  15
ATOM     15  C   UNL     1       0.997  10.662  18.875  0.00  0.00    +0.000 C 
BRANCH  15  16
ATOM     16  N   UNL     1      -0.284  10.812  18.209  0.00  0.00    +0.000 N 
ATOM     17  C   UNL     1      -1.415  11.170  18.904  0.00  0.00    +0.000 C 
ATOM     18  O   UNL     1      -1.408  11.345  20.116  0.00  0.00    +0.000 OA
ATOM     19  H   UNL     1      -0.282  10.815  17.199  0.00  0.00    +0.000 HD
BRANCH  17  20
ATOM     20  C   UNL     1      -2.636  11.303  18.101  0.00  0.00    +0.000 A 
ATOM     21  C   UNL     1      -2.840  10.987  16.712  0.00  0.00    +0.000 A 
ATOM     22  C   UNL     1      -4.137  11.204  16.295  0.00  0.00    +0.000 A 
ATOM     23  S   UNL     1      -5.122  11.799  17.555  0.00  0.00    +0.000 S 
ATOM     24  C   UNL     1      -3.818  11.764  18.658  0.00  0.00    +0.000 A 
ENDBRANCH  17  20
ENDBRANCH  15  16
ENDBRANCH   3  15
TORSDOF 4
ENDMDL
MODEL 5
REMARK VINA RESULT:      -6.7      1.411      1.767
REMARK  Name = 
REMARK  6 active torsions:
REMARK  status: ('A' for Active; 'I' for Inactive)
REMARK    1  A    between atoms: C_1  and  C_2
REMARK    2  A    between atoms: C_7  and  N_8
REMARK    3  A    between atoms: N_8  and  C_9
REMARK    4  A    between atoms: C_10  and  C_12
REMARK    5  A    between atoms: C_12  and  N_13
REMARK    6  A    between atoms: C_14  and  C_16
REMARK                            x       y       z     vdW  Elec       q    Type
REMARK                         _______ _______ _______ _____ _____    ______ ____
ROOT
ATOM      1  N   UNL     1       3.357   5.167  18.654  0.00  0.00    +0.000 N 
ATOM      2  C   UNL     1       2.561   4.061  18.113  0.00  0.00    +0.000 C 
ATOM      3  C   UNL     1       4.762   5.041  18.684  0.00  0.00    +0.000 C 
ATOM      4  O   UNL     1       5.543   5.866  19.165  0.00  0.00    +0.000 OA
ENDROOT
BRANCH   1  11
ATOM      5  C   UNL     1       0.222  12.110  19.454  0.00  0.00    +0.000 C 
ATOM      6  C   UNL     1       0.779  10.730  19.439  0.00  0.00    +0.000 A 
ATOM      7  N   UNL     1       0.642   9.859  20.415  0.00  0.00    +0.000 NA
ATOM      8  C   UNL     1       1.279   8.674  20.085  0.00  0.00    +0.000 A 
ATOM      9  C   UNL     1       1.353   7.517  20.874  0.00  0.00    +0.000 A 
ATOM     10  C   UNL     1       2.034   6.379  20.397  0.00  0.00    +0.000 A 
ATOM     11  C   UNL     1       2.663   6.349  19.143  0.00  0.00    +0.000 A 
ATOM     12  C   UNL     1       2.591   7.520  18.362  0.00  0.00    +0.000 A 
ATOM     13  C   UNL     1       1.900   8.656  18.841  0.00  0.00    +0.000 A 
ATOM     14  S   UNL     1       1.671  10.184  18.079  0.00  0.00    +0.000 S 
ENDBRANCH   1  11
BRANCH   3  15
ATOM     15  C   UNL     1       5.375   3.737  18.140  0.00  0.00    +0.000 C 
BRANCH  15  16
ATOM     16  N   UNL     1       5.570   3.836  16.706  0.00  0.00    +0.000 N 
ATOM     17  C   UNL     1       6.734   4.341  16.174  0.00  0.00    +0.000 C 
ATOM     18  O   UNL     1       7.643   4.763  16.878  0.00  0.00    +0.000 OA
ATOM     19  H   UNL     1       4.900   3.365  16.115  0.00  0.00    +0.000 HD
BRANCH  17  20
ATOM     20  C   UNL     1       6.802   4.365  14.709  0.00  0.00    +0.000 A 
ATOM     21  C   UNL     1       7.641   5.166  13.858  0.00  0.00    +0.000 A 
ATOM     22  C   UNL     1       7.463   4.895  12.517  0.00  0.00    +0.000 A 
ATOM     23  S   UNL     1       6.283   3.691  12.259  0.00  0.00    +0.000 S 
ATOM     24  C   UNL     1       6.012   3.527  13.938  0.00  0.00    +0.000 A 
ENDBRANCH  17  20
ENDBRANCH  15  16
ENDBRANCH   3  15
TORSDOF 4
ENDMDL
MODEL 6
REMARK VINA RESULT:      -6.7      1.179      1.493
REMARK  Name = 
REMARK  6 active torsions:
REMARK  status: ('A' for Active; 'I' for Inactive)
REMARK    1  A    between atoms: C_1  and  C_2
REMARK    2  A    between atoms: C_7  and  N_8
REMARK    3  A    between atoms: N_8  and  C_9
REMARK    4  A    between atoms: C_10  and  C_12
REMARK    5  A    between atoms: C_12  and  N_13
REMARK    6  A    between atoms: C_14  and  C_16
REMARK                            x       y       z     vdW  Elec       q    Type
REMARK                         _______ _______ _______ _____ _____    ______ ____
ROOT
ATOM      1  N   UNL     1       3.559   6.121  18.383  0.00  0.00    +0.000 N 
ATOM      2  C   UNL     1       4.997   6.223  18.653  0.00  0.00    +0.000 C 
ATOM      3  C   UNL     1       3.054   4.921  17.840  0.00  0.00    +0.000 C 
ATOM      4  O   UNL     1       1.882   4.724  17.509  0.00  0.00    +0.000 OA
ENDROOT
BRANCH   1  11
ATOM      5  C   UNL     1      -0.964  11.302  21.756  0.00  0.00    +0.000 C 
ATOM      6  C   UNL     1      -0.096  10.380  20.974  0.00  0.00    +0.000 A 
ATOM      7  N   UNL     1       0.255  10.569  19.720  0.00  0.00    +0.000 NA
ATOM      8  C   UNL     1       1.063   9.528  19.293  0.00  0.00    +0.000 A 
ATOM      9  C   UNL     1       1.628   9.377  18.018  0.00  0.00    +0.000 A 
ATOM     10  C   UNL     1       2.440   8.262  17.733  0.00  0.00    +0.000 A 
ATOM     11  C   UNL     1       2.713   7.265  18.683  0.00  0.00    +0.000 A 
ATOM     12  C   UNL     1       2.132   7.421  19.958  0.00  0.00    +0.000 A 
ATOM     13  C   UNL     1       1.325   8.546  20.242  0.00  0.00    +0.000 A 
ATOM     14  S   UNL     1       0.519   8.957  21.709  0.00  0.00    +0.000 S 
ENDBRANCH   1  11
BRANCH   3  15
ATOM     15  C   UNL     1       4.055   3.784  17.563  0.00  0.00    +0.000 C 
BRANCH  15  16
ATOM     16  N   UNL     1       4.573   3.891  16.212  0.00  0.00    +0.000 N 
ATOM     17  C   UNL     1       5.917   4.052  15.970  0.00  0.00    +0.000 C 
ATOM     18  O   UNL     1       6.735   4.148  16.875  0.00  0.00    +0.000 OA
ATOM     19  H   UNL     1       3.940   3.671  15.456  0.00  0.00    +0.000 HD
BRANCH  17  20
ATOM     20  C   UNL     1       6.301   4.126  14.556  0.00  0.00    +0.000 A 
ATOM     21  C   UNL     1       5.782   3.379  13.440  0.00  0.00    +0.000 A 
ATOM     22  C   UNL     1       6.355   3.740  12.238  0.00  0.00    +0.000 A 
ATOM     23  S   UNL     1       7.527   4.965  12.430  0.00  0.00    +0.000 S 
ATOM     24  C   UNL     1       7.267   5.018  14.118  0.00  0.00    +0.000 A 
ENDBRANCH  17  20
ENDBRANCH  15  16
ENDBRANCH   3  15
TORSDOF 4
ENDMDL
MODEL 7
REMARK VINA RESULT:      -6.6      4.725      6.656
REMARK  Name = 
REMARK  6 active torsions:
REMARK  status: ('A' for Active; 'I' for Inactive)
REMARK    1  A    between atoms: C_1  and  C_2
REMARK    2  A    between atoms: C_7  and  N_8
REMARK    3  A    between atoms: N_8  and  C_9
REMARK    4  A    between atoms: C_10  and  C_12
REMARK    5  A    between atoms: C_12  and  N_13
REMARK    6  A    between atoms: C_14  and  C_16
REMARK                            x       y       z     vdW  Elec       q    Type
REMARK                         _______ _______ _______ _____ _____    ______ ____
ROOT
ATOM      1  N   UNL     1       0.201  10.057  19.646  0.00  0.00    +0.000 N 
ATOM      2  C   UNL     1       1.283  10.338  18.697  0.00  0.00    +0.000 C 
ATOM      3  C   UNL     1       0.425   9.115  20.672  0.00  0.00    +0.000 C 
ATOM      4  O   UNL     1      -0.415   8.743  21.496  0.00  0.00    +0.000 OA
ENDROOT
BRANCH   1  11
ATOM      5  C   UNL     1      -6.615  12.580  17.224  0.00  0.00    +0.000 C 
ATOM      6  C   UNL     1      -5.302  12.190  17.809  0.00  0.00    +0.000 A 
ATOM      7  N   UNL     1      -4.795  12.700  18.911  0.00  0.00    +0.000 NA
ATOM      8  C   UNL     1      -3.565  12.123  19.176  0.00  0.00    +0.000 A 
ATOM      9  C   UNL     1      -2.722  12.413  20.259  0.00  0.00    +0.000 A 
ATOM     10  C   UNL     1      -1.496  11.732  20.401  0.00  0.00    +0.000 A 
ATOM     11  C   UNL     1      -1.063  10.760  19.486  0.00  0.00    +0.000 A 
ATOM     12  C   UNL     1      -1.912  10.483  18.397  0.00  0.00    +0.000 A 
ATOM     13  C   UNL     1      -3.145  11.162  18.262  0.00  0.00    +0.000 A 
ATOM     14  S   UNL     1      -4.343  10.996  17.036  0.00  0.00    +0.000 S 
ENDBRANCH   1  11
BRANCH   3  15
ATOM     15  C   UNL     1       1.806   8.436  20.731  0.00  0.00    +0.000 C 
BRANCH  15  16
ATOM     16  N   UNL     1       1.654   6.993  20.732  0.00  0.00    +0.000 N 
ATOM     17  C   UNL     1       2.175   6.217  19.724  0.00  0.00    +0.000 C 
ATOM     18  O   UNL     1       2.759   6.702  18.763  0.00  0.00    +0.000 OA
ATOM     19  H   UNL     1       1.307   6.566  21.579  0.00  0.00    +0.000 HD
BRANCH  17  20
ATOM     20  C   UNL     1       1.963   4.772  19.864  0.00  0.00    +0.000 A 
ATOM     21  C   UNL     1       1.771   4.000  21.064  0.00  0.00    +0.000 A 
ATOM     22  C   UNL     1       1.560   2.661  20.814  0.00  0.00    +0.000 A 
ATOM     23  S   UNL     1       1.602   2.306  19.146  0.00  0.00    +0.000 S 
ATOM     24  C   UNL     1       1.897   3.943  18.755  0.00  0.00    +0.000 A 
ENDBRANCH  17  20
ENDBRANCH  15  16
ENDBRANCH   3  15
TORSDOF 4
ENDMDL
MODEL 8
REMARK VINA RESULT:      -6.5      4.343      8.667
REMARK  Name = 
REMARK  6 active torsions:
REMARK  status: ('A' for Active; 'I' for Inactive)
REMARK    1  A    between atoms: C_1  and  C_2
REMARK    2  A    between atoms: C_7  and  N_8
REMARK    3  A    between atoms: N_8  and  C_9
REMARK    4  A    between atoms: C_10  and  C_12
REMARK    5  A    between atoms: C_12  and  N_13
REMARK    6  A    between atoms: C_14  and  C_16
REMARK                            x       y       z     vdW  Elec       q    Type
REMARK                         _______ _______ _______ _____ _____    ______ ____
ROOT
ATOM      1  N   UNL     1       1.697   8.063  19.762  0.00  0.00    +0.000 N 
ATOM      2  C   UNL     1       1.359   8.775  20.999  0.00  0.00    +0.000 C 
ATOM      3  C   UNL     1       1.685   8.775  18.544  0.00  0.00    +0.000 C 
ATOM      4  O   UNL     1       1.889   8.287  17.429  0.00  0.00    +0.000 OA
ENDROOT
BRANCH   1  11
ATOM      5  C   UNL     1       4.158   0.944  18.370  0.00  0.00    +0.000 C 
ATOM      6  C   UNL     1       3.633   2.276  18.777  0.00  0.00    +0.000 A 
ATOM      7  N   UNL     1       3.089   2.539  19.946  0.00  0.00    +0.000 NA
ATOM      8  C   UNL     1       2.706   3.869  20.000  0.00  0.00    +0.000 A 
ATOM      9  C   UNL     1       2.089   4.517  21.080  0.00  0.00    +0.000 A 
ATOM     10  C   UNL     1       1.765   5.886  20.991  0.00  0.00    +0.000 A 
ATOM     11  C   UNL     1       2.028   6.649  19.843  0.00  0.00    +0.000 A 
ATOM     12  C   UNL     1       2.640   5.986  18.760  0.00  0.00    +0.000 A 
ATOM     13  C   UNL     1       2.971   4.615  18.857  0.00  0.00    +0.000 A 
ATOM     14  S   UNL     1       3.719   3.597  17.686  0.00  0.00    +0.000 S 
ENDBRANCH   1  11
BRANCH   3  15
ATOM     15  C   UNL     1       1.314  10.269  18.592  0.00  0.00    +0.000 C 
BRANCH  15  16
ATOM     16  N   UNL     1       0.087  10.503  17.853  0.00  0.00    +0.000 N 
ATOM     17  C   UNL     1      -1.124  10.617  18.493  0.00  0.00    +0.000 C 
ATOM     18  O   UNL     1      -1.235  10.492  19.706  0.00  0.00    +0.000 OA
ATOM     19  H   UNL     1       0.176  10.752  16.878  0.00  0.00    +0.000 HD
BRANCH  17  20
ATOM     20  C   UNL     1      -2.278  10.873  17.623  0.00  0.00    +0.000 A 
ATOM     21  C   UNL     1      -2.430  10.588  16.221  0.00  0.00    +0.000 A 
ATOM     22  C   UNL     1      -3.674  10.931  15.734  0.00  0.00    +0.000 A 
ATOM     23  S   UNL     1      -4.669  11.609  16.943  0.00  0.00    +0.000 S 
ATOM     24  C   UNL     1      -3.441  11.441  18.118  0.00  0.00    +0.000 A 
ENDBRANCH  17  20
ENDBRANCH  15  16
ENDBRANCH   3  15
TORSDOF 4
ENDMDL
MODEL 9
REMARK VINA RESULT:      -6.5      2.181      9.202
REMARK  Name = 
REMARK  6 active torsions:
REMARK  status: ('A' for Active; 'I' for Inactive)
REMARK    1  A    between atoms: C_1  and  C_2
REMARK    2  A    between atoms: C_7  and  N_8
REMARK    3  A    between atoms: N_8  and  C_9
REMARK    4  A    between atoms: C_10  and  C_12
REMARK    5  A    between atoms: C_12  and  N_13
REMARK    6  A    between atoms: C_14  and  C_16
REMARK                            x       y       z     vdW  Elec       q    Type
REMARK                         _______ _______ _______ _____ _____    ______ ____
ROOT
ATOM      1  N   UNL     1       3.674   5.899  19.051  0.00  0.00    +0.000 N 
ATOM      2  C   UNL     1       3.535   4.811  20.024  0.00  0.00    +0.000 C 
ATOM      3  C   UNL     1       2.824   7.020  19.161  0.00  0.00    +0.000 C 
ATOM      4  O   UNL     1       2.793   7.973  18.377  0.00  0.00    +0.000 OA
ENDROOT
BRANCH   1  11
ATOM      5  C   UNL     1       7.507   4.351  12.603  0.00  0.00    +0.000 C 
ATOM      6  C   UNL     1       6.891   4.716  13.907  0.00  0.00    +0.000 A 
ATOM      7  N   UNL     1       7.507   5.374  14.866  0.00  0.00    +0.000 NA
ATOM      8  C   UNL     1       6.654   5.549  15.943  0.00  0.00    +0.000 A 
ATOM      9  C   UNL     1       6.954   6.198  17.149  0.00  0.00    +0.000 A 
ATOM     10  C   UNL     1       5.973   6.306  18.156  0.00  0.00    +0.000 A 
ATOM     11  C   UNL     1       4.682   5.776  18.010  0.00  0.00    +0.000 A 
ATOM     12  C   UNL     1       4.394   5.117  16.798  0.00  0.00    +0.000 A 
ATOM     13  C   UNL     1       5.378   5.019  15.788  0.00  0.00    +0.000 A 
ATOM     14  S   UNL     1       5.265   4.276  14.237  0.00  0.00    +0.000 S 
ENDBRANCH   1  11
BRANCH   3  15
ATOM     15  C   UNL     1       1.794   7.028  20.306  0.00  0.00    +0.000 C 
BRANCH  15  16
ATOM     16  N   UNL     1       1.404   8.390  20.618  0.00  0.00    +0.000 N 
ATOM     17  C   UNL     1       0.227   8.666  21.275  0.00  0.00    +0.000 C 
ATOM     18  O   UNL     1      -0.562   7.787  21.595  0.00  0.00    +0.000 OA
ATOM     19  H   UNL     1       2.102   9.111  20.494  0.00  0.00    +0.000 HD
BRANCH  17  20
ATOM     20  C   UNL     1      -0.030  10.085  21.542  0.00  0.00    +0.000 A 
ATOM     21  C   UNL     1      -0.773  10.680  22.623  0.00  0.00    +0.000 A 
ATOM     22  C   UNL     1      -0.776  12.058  22.579  0.00  0.00    +0.000 A 
ATOM     23  S   UNL     1       0.095  12.658  21.241  0.00  0.00    +0.000 S 
ATOM     24  C   UNL     1       0.482  11.077  20.721  0.00  0.00    +0.000 A 
ENDBRANCH  17  20
ENDBRANCH  15  16
ENDBRANCH   3  15
TORSDOF 4
ENDMDL
