MODEL 1
REMARK VINA RESULT:      -7.7      0.000      0.000
REMARK  Name = 
REMARK  8 active torsions:
REMARK  status: ('A' for Active; 'I' for Inactive)
REMARK    1  A    between atoms: C_1  and  C_2
REMARK    2  A    between atoms: C_2  and  O_3
REMARK    3  A    between atoms: O_3  and  C_4
REMARK    4  A    between atoms: C_8  and  C_9
REMARK    5  A    between atoms: N_11  and  C_12
REMARK    6  A    between atoms: C_12  and  N_14
REMARK    7  A    between atoms: N_14  and  C_15
REMARK    8  A    between atoms: C_18  and  N_19
REMARK                            x       y       z     vdW  Elec       q    Type
REMARK                         _______ _______ _______ _____ _____    ______ ____
ROOT
ATOM      1  C   UNL     1       2.264   4.946  19.803  0.00  0.00    +0.000 C 
ATOM      2  S   UNL     1       1.083   3.878  20.308  0.00  0.00    +0.000 S 
ENDROOT
BRANCH   1   5
ATOM      3  C   UNL     1       4.561   4.983  18.800  0.00  0.00    +0.000 C 
ATOM      4  O   UNL     1       5.182   5.277  19.823  0.00  0.00    +0.000 OA
ATOM      5  N   UNL     1       3.193   4.763  18.780  0.00  0.00    +0.000 N 
ATOM      6  H   UNL     1       2.777   4.363  17.958  0.00  0.00    +0.000 HD
BRANCH   3  11
ATOM      7  C   UNL     1       5.619   4.353  15.157  0.00  0.00    +0.000 A 
ATOM      8  C   UNL     1       7.008   4.380  15.311  0.00  0.00    +0.000 A 
ATOM      9  C   UNL     1       7.570   4.572  16.570  0.00  0.00    +0.000 A 
ATOM     10  C   UNL     1       6.742   4.751  17.670  0.00  0.00    +0.000 A 
ATOM     11  C   UNL     1       5.347   4.750  17.544  0.00  0.00    +0.000 A 
ATOM     12  C   UNL     1       4.784   4.537  16.269  0.00  0.00    +0.000 A 
BRANCH   7  13
ATOM     13  O   UNL     1       5.205   4.138  13.869  0.00  0.00    +0.000 OA
BRANCH  13  15
ATOM     14  C   UNL     1       5.477   2.929  11.829  0.00  0.00    +0.000 C 
ATOM     15  C   UNL     1       6.186   3.684  12.937  0.00  0.00    +0.000 C 
ENDBRANCH  13  15
ENDBRANCH   7  13
ENDBRANCH   3  11
ENDBRANCH   1   5
BRANCH   1  16
ATOM     16  N   UNL     1       2.454   6.130  20.493  0.00  0.00    +0.000 N 
ATOM     17  H   UNL     1       2.732   6.046  21.466  0.00  0.00    +0.000 HD
BRANCH  16  18
ATOM     18  C   UNL     1       2.015   7.397  20.046  0.00  0.00    +0.000 A 
ATOM     19  C   UNL     1       1.355   8.278  20.899  0.00  0.00    +0.000 A 
ATOM     20  C   UNL     1       0.875   9.494  20.427  0.00  0.00    +0.000 A 
ATOM     21  C   UNL     1       1.089   9.931  19.111  0.00  0.00    +0.000 A 
ATOM     22  C   UNL     1       1.773   9.035  18.274  0.00  0.00    +0.000 A 
ATOM     23  C   UNL     1       2.250   7.790  18.735  0.00  0.00    +0.000 A 
BRANCH  21  24
ATOM     24  N   UNL     1       0.629  11.168  18.692  0.00  0.00    +0.000 N 
ATOM     25  C   UNL     1       1.273  12.429  19.070  0.00  0.00    +0.000 C 
ATOM     26  C   UNL     1       0.110  13.321  19.505  0.00  0.00    +0.000 C 
ATOM     27  C   UNL     1      -1.030  12.882  18.608  0.00  0.00    +0.000 C 
ATOM     28  C   UNL     1      -0.812  11.382  18.473  0.00  0.00    +0.000 C 
ENDBRANCH  21  24
ENDBRANCH  16  18
ENDBRANCH   1  16
TORSDOF 7
ENDMDL
MODEL 2
REMARK VINA RESULT:      -7.5      1.637      2.589
REMARK  Name = 
REMARK  8 active torsions:
REMARK  status: ('A' for Active; 'I' for Inactive)
REMARK    1  A    between atoms: C_1  and  C_2
REMARK    2  A    between atoms: C_2  and  O_3
REMARK    3  A    between atoms: O_3  and  C_4
REMARK    4  A    between atoms: C_8  and  C_9
REMARK    5  A    between atoms: N_11  and  C_12
REMARK    6  A    between atoms: C_12  and  N_14
REMARK    7  A    between atoms: N_14  and  C_15
REMARK    8  A    between atoms: C_18  and  N_19
REMARK                            x       y       z     vdW  Elec       q    Type
REMARK                         _______ _______ _______ _____ _____    ______ ____
ROOT
ATOM      1  C   UNL     1       3.283   3.953  17.763  0.00  0.00    +0.000 C 
ATOM      2  S   UNL     1       2.116   2.867  18.262  0.00  0.00    +0.000 S 
ENDROOT
BRANCH   1   5
ATOM      3  C   UNL     1       5.312   4.299  16.333  0.00  0.00    +0.000 C 
ATOM      4  O   UNL     1       6.106   4.569  17.237  0.00  0.00    +0.000 OA
ATOM      5  N   UNL     1       3.992   3.947  16.563  0.00  0.00    +0.000 N 
ATOM      6  H   UNL     1       3.449   3.575  15.804  0.00  0.00    +0.000 HD
BRANCH   3  11
ATOM      7  C   UNL     1       5.755   3.670  12.565  0.00  0.00    +0.000 A 
ATOM      8  C   UNL     1       6.981   4.309  12.365  0.00  0.00    +0.000 A 
ATOM      9  C   UNL     1       7.646   4.900  13.436  0.00  0.00    +0.000 A 
ATOM     10  C   UNL     1       7.076   4.863  14.702  0.00  0.00    +0.000 A 
ATOM     11  C   UNL     1       5.838   4.248  14.929  0.00  0.00    +0.000 A 
ATOM     12  C   UNL     1       5.178   3.635  13.844  0.00  0.00    +0.000 A 
BRANCH   7  13
ATOM     13  O   UNL     1       5.223   3.116  11.430  0.00  0.00    +0.000 OA
BRANCH  13  15
ATOM     14  C   UNL     1       3.389   3.813  10.072  0.00  0.00    +0.000 C 
ATOM     15  C   UNL     1       3.801   3.074  11.331  0.00  0.00    +0.000 C 
ENDBRANCH  13  15
ENDBRANCH   7  13
ENDBRANCH   3  11
ENDBRANCH   1   5
BRANCH   1  16
ATOM     16  N   UNL     1       3.705   4.946  18.629  0.00  0.00    +0.000 N 
ATOM     17  H   UNL     1       4.425   4.688  19.297  0.00  0.00    +0.000 HD
BRANCH  16  18
ATOM     18  C   UNL     1       3.021   6.164  18.845  0.00  0.00    +0.000 A 
ATOM     19  C   UNL     1       2.935   7.134  17.849  0.00  0.00    +0.000 A 
ATOM     20  C   UNL     1       2.312   8.351  18.099  0.00  0.00    +0.000 A 
ATOM     21  C   UNL     1       1.678   8.639  19.316  0.00  0.00    +0.000 A 
ATOM     22  C   UNL     1       1.760   7.640  20.299  0.00  0.00    +0.000 A 
ATOM     23  C   UNL     1       2.405   6.407  20.065  0.00  0.00    +0.000 A 
BRANCH  21  24
ATOM     24  N   UNL     1       1.033   9.849  19.510  0.00  0.00    +0.000 N 
ATOM     25  C   UNL     1       0.733  10.389  20.839  0.00  0.00    +0.000 C 
ATOM     26  C   UNL     1      -0.727  10.830  20.739  0.00  0.00    +0.000 C 
ATOM     27  C   UNL     1      -0.863  11.284  19.298  0.00  0.00    +0.000 C 
ATOM     28  C   UNL     1       0.026  10.311  18.538  0.00  0.00    +0.000 C 
ENDBRANCH  21  24
ENDBRANCH  16  18
ENDBRANCH   1  16
TORSDOF 7
ENDMDL
MODEL 3
REMARK VINA RESULT:      -7.5      0.600      1.105
REMARK  Name = 
REMARK  8 active torsions:
REMARK  status: ('A' for Active; 'I' for Inactive)
REMARK    1  A    between atoms: C_1  and  C_2
REMARK    2  A    between atoms: C_2  and  O_3
REMARK    3  A    between atoms: O_3  and  C_4
REMARK    4  A    between atoms: C_8  and  C_9
REMARK    5  A    between atoms: N_11  and  C_12
REMARK    6  A    between atoms: C_12  and  N_14
REMARK    7  A    between atoms: N_14  and  C_15
REMARK    8  A    between atoms: C_18  and  N_19
REMARK                            x       y       z     vdW  Elec       q    Type
REMARK                         _______ _______ _______ _____ _____    ______ ____
ROOT
ATOM      1  C   UNL     1       2.321   4.617  19.699  0.00  0.00    +0.000 C 
ATOM      2  S   UNL     1       1.202   3.457  20.134  0.00  0.00    +0.000 S 
ENDROOT
BRANCH   1   5
ATOM      3  C   UNL     1       4.592   4.319  18.682  0.00  0.00    +0.000 C 
ATOM      4  O   UNL     1       5.187   3.976  19.706  0.00  0.00    +0.000 OA
ATOM      5  N   UNL     1       3.229   4.568  18.644  0.00  0.00    +0.000 N 
ATOM      6  H   UNL     1       2.780   4.675  17.751  0.00  0.00    +0.000 HD
BRANCH   3  11
ATOM      7  C   UNL     1       5.637   4.266  14.981  0.00  0.00    +0.000 A 
ATOM      8  C   UNL     1       7.002   4.532  15.122  0.00  0.00    +0.000 A 
ATOM      9  C   UNL     1       7.557   4.696  16.388  0.00  0.00    +0.000 A 
ATOM     10  C   UNL     1       6.745   4.607  17.510  0.00  0.00    +0.000 A 
ATOM     11  C   UNL     1       5.369   4.363  17.399  0.00  0.00    +0.000 A 
ATOM     12  C   UNL     1       4.816   4.180  16.116  0.00  0.00    +0.000 A 
BRANCH   7  13
ATOM     13  O   UNL     1       5.230   4.110  13.682  0.00  0.00    +0.000 OA
BRANCH  13  15
ATOM     14  C   UNL     1       5.472   2.636  11.821  0.00  0.00    +0.000 C 
ATOM     15  C   UNL     1       6.186   3.591  12.759  0.00  0.00    +0.000 C 
ENDBRANCH  13  15
ENDBRANCH   7  13
ENDBRANCH   3  11
ENDBRANCH   1   5
BRANCH   1  16
ATOM     16  N   UNL     1       2.477   5.744  20.487  0.00  0.00    +0.000 N 
ATOM     17  H   UNL     1       2.785   5.588  21.442  0.00  0.00    +0.000 HD
BRANCH  16  18
ATOM     18  C   UNL     1       1.970   7.023  20.165  0.00  0.00    +0.000 A 
ATOM     19  C   UNL     1       2.244   7.624  18.939  0.00  0.00    +0.000 A 
ATOM     20  C   UNL     1       1.788   8.908  18.663  0.00  0.00    +0.000 A 
ATOM     21  C   UNL     1       0.978   9.629  19.552  0.00  0.00    +0.000 A 
ATOM     22  C   UNL     1       0.699   8.998  20.774  0.00  0.00    +0.000 A 
ATOM     23  C   UNL     1       1.169   7.701  21.075  0.00  0.00    +0.000 A 
BRANCH  21  24
ATOM     24  N   UNL     1       0.512  10.891  19.221  0.00  0.00    +0.000 N 
ATOM     25  C   UNL     1       1.400  12.009  18.889  0.00  0.00    +0.000 C 
ATOM     26  C   UNL     1       0.850  13.175  19.710  0.00  0.00    +0.000 C 
ATOM     27  C   UNL     1      -0.643  12.914  19.742  0.00  0.00    +0.000 C 
ATOM     28  C   UNL     1      -0.733  11.398  19.827  0.00  0.00    +0.000 C 
ENDBRANCH  21  24
ENDBRANCH  16  18
ENDBRANCH   1  16
TORSDOF 7
ENDMDL
MODEL 4
REMARK VINA RESULT:      -7.4      1.636      2.546
REMARK  Name = 
REMARK  8 active torsions:
REMARK  status: ('A' for Active; 'I' for Inactive)
REMARK    1  A    between atoms: C_1  and  C_2
REMARK    2  A    between atoms: C_2  and  O_3
REMARK    3  A    between atoms: O_3  and  C_4
REMARK    4  A    between atoms: C_8  and  C_9
REMARK    5  A    between atoms: N_11  and  C_12
REMARK    6  A    between atoms: C_12  and  N_14
REMARK    7  A    between atoms: N_14  and  C_15
REMARK    8  A    between atoms: C_18  and  N_19
REMARK                            x       y       z     vdW  Elec       q    Type
REMARK                         _______ _______ _______ _____ _____    ______ ____
ROOT
ATOM      1  C   UNL     1       3.387   4.167  17.652  0.00  0.00    +0.000 C 
ATOM      2  S   UNL     1       2.213   3.135  18.241  0.00  0.00    +0.000 S 
ENDROOT
BRANCH   1   5
ATOM      3  C   UNL     1       5.342   4.514  16.123  0.00  0.00    +0.000 C 
ATOM      4  O   UNL     1       6.129   4.961  16.960  0.00  0.00    +0.000 OA
ATOM      5  N   UNL     1       4.065   4.077  16.439  0.00  0.00    +0.000 N 
ATOM      6  H   UNL     1       3.541   3.569  15.748  0.00  0.00    +0.000 HD
BRANCH   3  11
ATOM      7  C   UNL     1       5.704   3.554  12.416  0.00  0.00    +0.000 A 
ATOM      8  C   UNL     1       6.925   4.171  12.135  0.00  0.00    +0.000 A 
ATOM      9  C   UNL     1       7.612   4.854  13.135  0.00  0.00    +0.000 A 
ATOM     10  C   UNL     1       7.070   4.930  14.411  0.00  0.00    +0.000 A 
ATOM     11  C   UNL     1       5.837   4.338  14.718  0.00  0.00    +0.000 A 
ATOM     12  C   UNL     1       5.155   3.633  13.706  0.00  0.00    +0.000 A 
BRANCH   7  13
ATOM     13  O   UNL     1       5.148   2.903  11.346  0.00  0.00    +0.000 OA
BRANCH  13  15
ATOM     14  C   UNL     1       3.415   3.961  10.092  0.00  0.00    +0.000 C 
ATOM     15  C   UNL     1       3.732   2.977  11.203  0.00  0.00    +0.000 C 
ENDBRANCH  13  15
ENDBRANCH   7  13
ENDBRANCH   3  11
ENDBRANCH   1   5
BRANCH   1  16
ATOM     16  N   UNL     1       3.849   5.200  18.449  0.00  0.00    +0.000 N 
ATOM     17  H   UNL     1       4.640   4.989  19.049  0.00  0.00    +0.000 HD
BRANCH  16  18
ATOM     18  C   UNL     1       3.139   6.396  18.700  0.00  0.00    +0.000 A 
ATOM     19  C   UNL     1       2.490   6.613  19.913  0.00  0.00    +0.000 A 
ATOM     20  C   UNL     1       1.745   7.768  20.120  0.00  0.00    +0.000 A 
ATOM     21  C   UNL     1       1.668   8.797  19.170  0.00  0.00    +0.000 A 
ATOM     22  C   UNL     1       2.346   8.567  17.963  0.00  0.00    +0.000 A 
ATOM     23  C   UNL     1       3.091   7.391  17.732  0.00  0.00    +0.000 A 
BRANCH  21  24
ATOM     24  N   UNL     1       0.947   9.951  19.433  0.00  0.00    +0.000 N 
ATOM     25  C   UNL     1      -0.485   9.944  19.743  0.00  0.00    +0.000 C 
ATOM     26  C   UNL     1      -1.061  11.047  18.857  0.00  0.00    +0.000 C 
ATOM     27  C   UNL     1       0.056  12.070  18.791  0.00  0.00    +0.000 C 
ATOM     28  C   UNL     1       1.314  11.215  18.769  0.00  0.00    +0.000 C 
ENDBRANCH  21  24
ENDBRANCH  16  18
ENDBRANCH   1  16
TORSDOF 7
ENDMDL
MODEL 5
REMARK VINA RESULT:      -7.4      3.376      5.076
REMARK  Name = 
REMARK  8 active torsions:
REMARK  status: ('A' for Active; 'I' for Inactive)
REMARK    1  A    between atoms: C_1  and  C_2
REMARK    2  A    between atoms: C_2  and  O_3
REMARK    3  A    between atoms: O_3  and  C_4
REMARK    4  A    between atoms: C_8  and  C_9
REMARK    5  A    between atoms: N_11  and  C_12
REMARK    6  A    between atoms: C_12  and  N_14
REMARK    7  A    between atoms: N_14  and  C_15
REMARK    8  A    between atoms: C_18  and  N_19
REMARK                            x       y       z     vdW  Elec       q    Type
REMARK                         _______ _______ _______ _____ _____    ______ ____
ROOT
ATOM      1  C   UNL     1       0.908   9.619  19.809  0.00  0.00    +0.000 C 
ATOM      2  S   UNL     1       0.680  10.091  21.395  0.00  0.00    +0.000 S 
ENDROOT
BRANCH   1   5
ATOM      3  C   UNL     1       2.279   8.354  18.136  0.00  0.00    +0.000 C 
ATOM      4  O   UNL     1       2.416   9.263  17.314  0.00  0.00    +0.000 OA
ATOM      5  N   UNL     1       1.624   8.517  19.346  0.00  0.00    +0.000 N 
ATOM      6  H   UNL     1       1.695   7.792  20.038  0.00  0.00    +0.000 HD
BRANCH   3  11
ATOM      7  C   UNL     1       4.804   5.617  17.174  0.00  0.00    +0.000 A 
ATOM      8  C   UNL     1       4.025   4.484  17.425  0.00  0.00    +0.000 A 
ATOM      9  C   UNL     1       2.713   4.620  17.868  0.00  0.00    +0.000 A 
ATOM     10  C   UNL     1       2.186   5.888  18.073  0.00  0.00    +0.000 A 
ATOM     11  C   UNL     1       2.950   7.042  17.850  0.00  0.00    +0.000 A 
ATOM     12  C   UNL     1       4.272   6.898  17.384  0.00  0.00    +0.000 A 
BRANCH   7  13
ATOM     13  O   UNL     1       6.068   5.336  16.726  0.00  0.00    +0.000 OA
BRANCH  13  15
ATOM     14  C   UNL     1       7.659   5.787  18.447  0.00  0.00    +0.000 C 
ATOM     15  C   UNL     1       6.959   4.707  17.644  0.00  0.00    +0.000 C 
ENDBRANCH  13  15
ENDBRANCH   7  13
ENDBRANCH   3  11
ENDBRANCH   1   5
BRANCH   1  16
ATOM     16  N   UNL     1       0.432  10.418  18.784  0.00  0.00    +0.000 N 
ATOM     17  H   UNL     1       1.102  11.048  18.355  0.00  0.00    +0.000 HD
BRANCH  16  18
ATOM     18  C   UNL     1      -0.937  10.630  18.504  0.00  0.00    +0.000 A 
ATOM     19  C   UNL     1      -1.649  11.665  19.106  0.00  0.00    +0.000 A 
ATOM     20  C   UNL     1      -3.009  11.820  18.865  0.00  0.00    +0.000 A 
ATOM     21  C   UNL     1      -3.714  11.010  17.964  0.00  0.00    +0.000 A 
ATOM     22  C   UNL     1      -2.973   9.986  17.354  0.00  0.00    +0.000 A 
ATOM     23  C   UNL     1      -1.596   9.805  17.602  0.00  0.00    +0.000 A 
BRANCH  21  24
ATOM     24  N   UNL     1      -5.061  11.225  17.723  0.00  0.00    +0.000 N 
ATOM     25  C   UNL     1      -5.561  12.359  16.941  0.00  0.00    +0.000 C 
ATOM     26  C   UNL     1      -6.705  12.916  17.788  0.00  0.00    +0.000 C 
ATOM     27  C   UNL     1      -7.286  11.685  18.455  0.00  0.00    +0.000 C 
ATOM     28  C   UNL     1      -6.062  10.823  18.727  0.00  0.00    +0.000 C 
ENDBRANCH  21  24
ENDBRANCH  16  18
ENDBRANCH   1  16
TORSDOF 7
ENDMDL
MODEL 6
REMARK VINA RESULT:      -7.4      3.179      4.559
REMARK  Name = 
REMARK  8 active torsions:
REMARK  status: ('A' for Active; 'I' for Inactive)
REMARK    1  A    between atoms: C_1  and  C_2
REMARK    2  A    between atoms: C_2  and  O_3
REMARK    3  A    between atoms: O_3  and  C_4
REMARK    4  A    between atoms: C_8  and  C_9
REMARK    5  A    between atoms: N_11  and  C_12
REMARK    6  A    between atoms: C_12  and  N_14
REMARK    7  A    between atoms: N_14  and  C_15
REMARK    8  A    between atoms: C_18  and  N_19
REMARK                            x       y       z     vdW  Elec       q    Type
REMARK                         _______ _______ _______ _____ _____    ______ ____
ROOT
ATOM      1  C   UNL     1       1.136   9.364  20.065  0.00  0.00    +0.000 C 
ATOM      2  S   UNL     1       0.914   9.690  21.688  0.00  0.00    +0.000 S 
ENDROOT
BRANCH   1   5
ATOM      3  C   UNL     1       2.341   8.151  18.233  0.00  0.00    +0.000 C 
ATOM      4  O   UNL     1       2.421   9.090  17.439  0.00  0.00    +0.000 OA
ATOM      5  N   UNL     1       1.793   8.273  19.500  0.00  0.00    +0.000 N 
ATOM      6  H   UNL     1       1.913   7.521  20.156  0.00  0.00    +0.000 HD
BRANCH   3  11
ATOM      7  C   UNL     1       4.740   5.425  16.965  0.00  0.00    +0.000 A 
ATOM      8  C   UNL     1       3.963   4.293  17.226  0.00  0.00    +0.000 A 
ATOM      9  C   UNL     1       2.691   4.427  17.774  0.00  0.00    +0.000 A 
ATOM     10  C   UNL     1       2.202   5.692  18.073  0.00  0.00    +0.000 A 
ATOM     11  C   UNL     1       2.966   6.844  17.841  0.00  0.00    +0.000 A 
ATOM     12  C   UNL     1       4.246   6.703  17.269  0.00  0.00    +0.000 A 
BRANCH   7  13
ATOM     13  O   UNL     1       5.961   5.148  16.409  0.00  0.00    +0.000 OA
BRANCH  13  15
ATOM     14  C   UNL     1       6.116   4.175  14.235  0.00  0.00    +0.000 C 
ATOM     15  C   UNL     1       6.098   3.902  15.728  0.00  0.00    +0.000 C 
ENDBRANCH  13  15
ENDBRANCH   7  13
ENDBRANCH   3  11
ENDBRANCH   1   5
BRANCH   1  16
ATOM     16  N   UNL     1       0.720  10.286  19.121  0.00  0.00    +0.000 N 
ATOM     17  H   UNL     1       1.395  10.995  18.854  0.00  0.00    +0.000 HD
BRANCH  16  18
ATOM     18  C   UNL     1      -0.625  10.488  18.738  0.00  0.00    +0.000 A 
ATOM     19  C   UNL     1      -1.429  11.428  19.379  0.00  0.00    +0.000 A 
ATOM     20  C   UNL     1      -2.766  11.570  19.030  0.00  0.00    +0.000 A 
ATOM     21  C   UNL     1      -3.355  10.847  17.982  0.00  0.00    +0.000 A 
ATOM     22  C   UNL     1      -2.523   9.919  17.337  0.00  0.00    +0.000 A 
ATOM     23  C   UNL     1      -1.167   9.751  17.692  0.00  0.00    +0.000 A 
BRANCH  21  24
ATOM     24  N   UNL     1      -4.682  11.048  17.640  0.00  0.00    +0.000 N 
ATOM     25  C   UNL     1      -5.104  11.987  16.597  0.00  0.00    +0.000 C 
ATOM     26  C   UNL     1      -6.249  12.767  17.241  0.00  0.00    +0.000 C 
ATOM     27  C   UNL     1      -6.907  11.747  18.150  0.00  0.00    +0.000 C 
ATOM     28  C   UNL     1      -5.733  10.928  18.666  0.00  0.00    +0.000 C 
ENDBRANCH  21  24
ENDBRANCH  16  18
ENDBRANCH   1  16
TORSDOF 7
ENDMDL
MODEL 7
REMARK VINA RESULT:      -7.4      2.049      3.055
REMARK  Name = 
REMARK  8 active torsions:
REMARK  status: ('A' for Active; 'I' for Inactive)
REMARK    1  A    between atoms: C_1  and  C_2
REMARK    2  A    between atoms: C_2  and  O_3
REMARK    3  A    between atoms: O_3  and  C_4
REMARK    4  A    between atoms: C_8  and  C_9
REMARK    5  A    between atoms: N_11  and  C_12
REMARK    6  A    between atoms: C_12  and  N_14
REMARK    7  A    between atoms: N_14  and  C_15
REMARK    8  A    between atoms: C_18  and  N_19
REMARK                            x       y       z     vdW  Elec       q    Type
REMARK                         _______ _______ _______ _____ _____    ______ ____
ROOT
ATOM      1  C   UNL     1       3.860   3.705  17.906  0.00  0.00    +0.000 C 
ATOM      2  S   UNL     1       4.520   3.116  19.322  0.00  0.00    +0.000 S 
ENDROOT
BRANCH   1   5
ATOM      3  C   UNL     1       5.656   4.281  16.256  0.00  0.00    +0.000 C 
ATOM      4  O   UNL     1       6.470   4.748  17.055  0.00  0.00    +0.000 OA
ATOM      5  N   UNL     1       4.444   3.730  16.642  0.00  0.00    +0.000 N 
ATOM      6  H   UNL     1       3.907   3.217  15.965  0.00  0.00    +0.000 HD
BRANCH   3  11
ATOM      7  C   UNL     1       5.816   3.506  12.492  0.00  0.00    +0.000 A 
ATOM      8  C   UNL     1       6.933   4.271  12.145  0.00  0.00    +0.000 A 
ATOM      9  C   UNL     1       7.619   4.992  13.119  0.00  0.00    +0.000 A 
ATOM     10  C   UNL     1       7.179   4.957  14.435  0.00  0.00    +0.000 A 
ATOM     11  C   UNL     1       6.050   4.216  14.810  0.00  0.00    +0.000 A 
ATOM     12  C   UNL     1       5.370   3.474  13.822  0.00  0.00    +0.000 A 
BRANCH   7  13
ATOM     13  O   UNL     1       5.251   2.835  11.440  0.00  0.00    +0.000 OA
BRANCH  13  15
ATOM     14  C   UNL     1       3.505   3.929  10.237  0.00  0.00    +0.000 C 
ATOM     15  C   UNL     1       3.833   2.907  11.308  0.00  0.00    +0.000 C 
ENDBRANCH  13  15
ENDBRANCH   7  13
ENDBRANCH   3  11
ENDBRANCH   1   5
BRANCH   1  16
ATOM     16  N   UNL     1       2.627   4.334  17.938  0.00  0.00    +0.000 N 
ATOM     17  H   UNL     1       1.961   4.060  17.222  0.00  0.00    +0.000 HD
BRANCH  16  18
ATOM     18  C   UNL     1       2.344   5.503  18.679  0.00  0.00    +0.000 A 
ATOM     19  C   UNL     1       1.853   5.435  19.981  0.00  0.00    +0.000 A 
ATOM     20  C   UNL     1       1.522   6.594  20.673  0.00  0.00    +0.000 A 
ATOM     21  C   UNL     1       1.730   7.876  20.144  0.00  0.00    +0.000 A 
ATOM     22  C   UNL     1       2.244   7.922  18.838  0.00  0.00    +0.000 A 
ATOM     23  C   UNL     1       2.568   6.753  18.117  0.00  0.00    +0.000 A 
BRANCH  21  24
ATOM     24  N   UNL     1       1.424   9.006  20.883  0.00  0.00    +0.000 N 
ATOM     25  C   UNL     1       1.149   8.968  22.323  0.00  0.00    +0.000 C 
ATOM     26  C   UNL     1      -0.116   9.811  22.480  0.00  0.00    +0.000 C 
ATOM     27  C   UNL     1       0.025  10.869  21.403  0.00  0.00    +0.000 C 
ATOM     28  C   UNL     1       0.687  10.118  20.257  0.00  0.00    +0.000 C 
ENDBRANCH  21  24
ENDBRANCH  16  18
ENDBRANCH   1  16
TORSDOF 7
ENDMDL
MODEL 8
REMARK VINA RESULT:      -7.3      1.711      2.781
REMARK  Name = 
REMARK  8 active torsions:
REMARK  status: ('A' for Active; 'I' for Inactive)
REMARK    1  A    between atoms: C_1  and  C_2
REMARK    2  A    between atoms: C_2  and  O_3
REMARK    3  A    between atoms: O_3  and  C_4
REMARK    4  A    between atoms: C_8  and  C_9
REMARK    5  A    between atoms: N_11  and  C_12
REMARK    6  A    between atoms: C_12  and  N_14
REMARK    7  A    between atoms: N_14  and  C_15
REMARK    8  A    between atoms: C_18  and  N_19
REMARK                            x       y       z     vdW  Elec       q    Type
REMARK                         _______ _______ _______ _____ _____    ______ ____
ROOT
ATOM      1  C   UNL     1       3.849   4.275  17.732  0.00  0.00    +0.000 C 
ATOM      2  S   UNL     1       2.883   3.166  18.525  0.00  0.00    +0.000 S 
ENDROOT
BRANCH   1   5
ATOM      3  C   UNL     1       5.530   4.829  15.959  0.00  0.00    +0.000 C 
ATOM      4  O   UNL     1       6.208   5.621  16.617  0.00  0.00    +0.000 OA
ATOM      5  N   UNL     1       4.450   4.138  16.483  0.00  0.00    +0.000 N 
ATOM      6  H   UNL     1       4.049   3.387  15.950  0.00  0.00    +0.000 HD
BRANCH   3  11
ATOM      7  C   UNL     1       5.740   3.544  12.340  0.00  0.00    +0.000 A 
ATOM      8  C   UNL     1       6.953   4.123  11.959  0.00  0.00    +0.000 A 
ATOM      9  C   UNL     1       7.683   4.884  12.867  0.00  0.00    +0.000 A 
ATOM     10  C   UNL     1       7.192   5.077  14.151  0.00  0.00    +0.000 A 
ATOM     11  C   UNL     1       5.969   4.526  14.557  0.00  0.00    +0.000 A 
ATOM     12  C   UNL     1       5.243   3.741  13.638  0.00  0.00    +0.000 A 
BRANCH   7  13
ATOM     13  O   UNL     1       5.139   2.807  11.354  0.00  0.00    +0.000 OA
BRANCH  13  15
ATOM     14  C   UNL     1       3.449   3.921  10.090  0.00  0.00    +0.000 C 
ATOM     15  C   UNL     1       3.727   2.938  11.213  0.00  0.00    +0.000 C 
ENDBRANCH  13  15
ENDBRANCH   7  13
ENDBRANCH   3  11
ENDBRANCH   1   5
BRANCH   1  16
ATOM     16  N   UNL     1       4.204   5.450  18.372  0.00  0.00    +0.000 N 
ATOM     17  H   UNL     1       5.102   5.452  18.846  0.00  0.00    +0.000 HD
BRANCH  16  18
ATOM     18  C   UNL     1       3.311   6.507  18.659  0.00  0.00    +0.000 A 
ATOM     19  C   UNL     1       3.073   7.525  17.740  0.00  0.00    +0.000 A 
ATOM     20  C   UNL     1       2.240   8.589  18.063  0.00  0.00    +0.000 A 
ATOM     21  C   UNL     1       1.542   8.661  19.278  0.00  0.00    +0.000 A 
ATOM     22  C   UNL     1       1.782   7.614  20.182  0.00  0.00    +0.000 A 
ATOM     23  C   UNL     1       2.640   6.536  19.874  0.00  0.00    +0.000 A 
BRANCH  21  24
ATOM     24  N   UNL     1       0.689   9.719  19.544  0.00  0.00    +0.000 N 
ATOM     25  C   UNL     1       0.133  10.579  18.496  0.00  0.00    +0.000 C 
ATOM     26  C   UNL     1       0.349  11.996  19.026  0.00  0.00    +0.000 C 
ATOM     27  C   UNL     1       0.206  11.840  20.527  0.00  0.00    +0.000 C 
ATOM     28  C   UNL     1       0.828  10.478  20.800  0.00  0.00    +0.000 C 
ENDBRANCH  21  24
ENDBRANCH  16  18
ENDBRANCH   1  16
TORSDOF 7
ENDMDL
MODEL 9
REMARK VINA RESULT:      -7.3      1.798      2.754
REMARK  Name = 
REMARK  8 active torsions:
REMARK  status: ('A' for Active; 'I' for Inactive)
REMARK    1  A    between atoms: C_1  and  C_2
REMARK    2  A    between atoms: C_2  and  O_3
REMARK    3  A    between atoms: O_3  and  C_4
REMARK    4  A    between atoms: C_8  and  C_9
REMARK    5  A    between atoms: N_11  and  C_12
REMARK    6  A    between atoms: C_12  and  N_14
REMARK    7  A    between atoms: N_14  and  C_15
REMARK    8  A    between atoms: C_18  and  N_19
REMARK                            x       y       z     vdW  Elec       q    Type
REMARK                         _______ _______ _______ _____ _____    ______ ____
ROOT
ATOM      1  C   UNL     1       3.706   4.033  17.537  0.00  0.00    +0.000 C 
ATOM      2  S   UNL     1       2.580   2.954  18.134  0.00  0.00    +0.000 S 
ENDROOT
BRANCH   1   5
ATOM      3  C   UNL     1       5.705   4.232  16.040  0.00  0.00    +0.000 C 
ATOM      4  O   UNL     1       6.548   4.439  16.916  0.00  0.00    +0.000 OA
ATOM      5  N   UNL     1       4.371   3.978  16.315  0.00  0.00    +0.000 N 
ATOM      6  H   UNL     1       3.776   3.651  15.574  0.00  0.00    +0.000 HD
BRANCH   3  11
ATOM      7  C   UNL     1       6.196   3.254  12.352  0.00  0.00    +0.000 A 
ATOM      8  C   UNL     1       7.169   4.190  11.992  0.00  0.00    +0.000 A 
ATOM      9  C   UNL     1       7.661   5.088  12.935  0.00  0.00    +0.000 A 
ATOM     10  C   UNL     1       7.169   5.059  14.233  0.00  0.00    +0.000 A 
ATOM     11  C   UNL     1       6.177   4.146  14.618  0.00  0.00    +0.000 A 
ATOM     12  C   UNL     1       5.696   3.227  13.664  0.00  0.00    +0.000 A 
BRANCH   7  13
ATOM     13  O   UNL     1       5.817   2.422  11.332  0.00  0.00    +0.000 OA
BRANCH  13  15
ATOM     14  C   UNL     1       6.166   0.062  11.306  0.00  0.00    +0.000 C 
ATOM     15  C   UNL     1       6.745   1.414  10.936  0.00  0.00    +0.000 C 
ENDBRANCH  13  15
ENDBRANCH   7  13
ENDBRANCH   3  11
ENDBRANCH   1   5
BRANCH   1  16
ATOM     16  N   UNL     1       4.139   5.078  18.336  0.00  0.00    +0.000 N 
ATOM     17  H   UNL     1       4.957   4.900  18.909  0.00  0.00    +0.000 HD
BRANCH  16  18
ATOM     18  C   UNL     1       3.377   6.232  18.627  0.00  0.00    +0.000 A 
ATOM     19  C   UNL     1       2.685   6.360  19.829  0.00  0.00    +0.000 A 
ATOM     20  C   UNL     1       1.891   7.475  20.072  0.00  0.00    +0.000 A 
ATOM     21  C   UNL     1       1.802   8.550  19.175  0.00  0.00    +0.000 A 
ATOM     22  C   UNL     1       2.523   8.408  17.979  0.00  0.00    +0.000 A 
ATOM     23  C   UNL     1       3.319   7.274  17.711  0.00  0.00    +0.000 A 
BRANCH  21  24
ATOM     24  N   UNL     1       1.031   9.660  19.475  0.00  0.00    +0.000 N 
ATOM     25  C   UNL     1       1.113  10.915  18.722  0.00  0.00    +0.000 C 
ATOM     26  C   UNL     1       1.194  11.991  19.804  0.00  0.00    +0.000 C 
ATOM     27  C   UNL     1       0.354  11.425  20.932  0.00  0.00    +0.000 C 
ATOM     28  C   UNL     1       0.642   9.933  20.870  0.00  0.00    +0.000 C 
ENDBRANCH  21  24
ENDBRANCH  16  18
ENDBRANCH   1  16
TORSDOF 7
ENDMDL
