MODEL 1
REMARK VINA RESULT:      -7.7      0.000      0.000
REMARK  Name = 
REMARK  5 active torsions:
REMARK  status: ('A' for Active; 'I' for Inactive)
REMARK    1  A    between atoms: C_1  and  O_2
REMARK    2  A    between atoms: O_2  and  C_3
REMARK    3  A    between atoms: C_12  and  C_13
REMARK    4  A    between atoms: C_24  and  C_26
REMARK    5  A    between atoms: C_26  and  C_27
REMARK                            x       y       z     vdW  Elec       q    Type
REMARK                         _______ _______ _______ _____ _____    ______ ____
ROOT
ATOM      1  C   UNL     1       1.957   3.532  20.526  0.00  0.00    +0.000 A 
ATOM      2  C   UNL     1       2.032   4.652  21.351  0.00  0.00    +0.000 A 
ATOM      3  C   UNL     1       2.294   5.909  20.805  0.00  0.00    +0.000 A 
ATOM      4  C   UNL     1       2.390   6.084  19.428  0.00  0.00    +0.000 A 
ATOM      5  C   UNL     1       2.419   4.951  18.614  0.00  0.00    +0.000 A 
ATOM      6  C   UNL     1       2.185   3.681  19.156  0.00  0.00    +0.000 A 
ATOM      7  O   UNL     1       2.709   5.022  17.272  0.00  0.00    +0.000 OA
ATOM      8  C   UNL     1       3.951   5.577  17.041  0.00  0.00    +0.000 A 
ATOM      9  C   UNL     1       4.922   4.751  16.459  0.00  0.00    +0.000 A 
ATOM     10  C   UNL     1       6.215   5.237  16.234  0.00  0.00    +0.000 A 
ATOM     11  C   UNL     1       7.279   4.355  15.647  0.00  0.00    +0.000 C 
ATOM     12  C   UNL     1       6.506   6.562  16.573  0.00  0.00    +0.000 A 
ATOM     13  C   UNL     1       5.521   7.387  17.135  0.00  0.00    +0.000 A 
ATOM     14  C   UNL     1       4.232   6.906  17.393  0.00  0.00    +0.000 A 
ATOM     15  N   UNL     1       3.278   7.802  17.913  0.00  0.00    +0.000 NA
ATOM     16  C   UNL     1       2.406   7.467  18.831  0.00  0.00    +0.000 C 
ATOM     17  N   UNL     1       1.453   8.432  19.240  0.00  0.00    +0.000 N 
ATOM     18  C   UNL     1       0.349   8.203  20.186  0.00  0.00    +0.000 C 
ATOM     19  C   UNL     1       0.594   8.851  21.552  0.00  0.00    +0.000 C 
ATOM     20  C   UNL     1       1.121  10.283  21.538  0.00  0.00    +0.000 C 
ATOM     21  N   UNL     1       0.675  11.081  20.404  0.00  0.00    +0.000 N 
ATOM     22  C   UNL     1      -0.553  11.719  20.496  0.00  0.00    +0.000 C 
ATOM     23  O   UNL     1      -1.268  11.598  21.499  0.00  0.00    +0.000 OA
ATOM     24  C   UNL     1       1.495  10.941  19.185  0.00  0.00    +0.000 C 
ATOM     25  C   UNL     1       1.230   9.641  18.405  0.00  0.00    +0.000 C 
ENDROOT
BRANCH   1  27
ATOM     26  C   UNL     1       1.257   2.115  22.296  0.00  0.00    +0.000 C 
ATOM     27  O   UNL     1       1.701   2.256  20.949  0.00  0.00    +0.000 OA
ENDBRANCH   1  27
BRANCH  22  28
ATOM     28  C   UNL     1      -1.026  12.593  19.339  0.00  0.00    +0.000 C 
BRANCH  28  29
ATOM     29  C   UNL     1      -2.161  11.980  18.553  0.00  0.00    +0.000 A 
ATOM     30  C   UNL     1      -1.911  11.270  17.372  0.00  0.00    +0.000 A 
ATOM     31  C   UNL     1      -2.965  10.717  16.639  0.00  0.00    +0.000 A 
ATOM     32  C   UNL     1      -4.277  10.858  17.082  0.00  0.00    +0.000 A 
ATOM     33  C   UNL     1      -4.539  11.545  18.269  0.00  0.00    +0.000 A 
ATOM     34  C   UNL     1      -3.485  12.100  18.999  0.00  0.00    +0.000 A 
ENDBRANCH  28  29
ENDBRANCH  22  28
TORSDOF 3
ENDMDL
MODEL 2
REMARK VINA RESULT:      -7.5      5.933     10.089
REMARK  Name = 
REMARK  5 active torsions:
REMARK  status: ('A' for Active; 'I' for Inactive)
REMARK    1  A    between atoms: C_1  and  O_2
REMARK    2  A    between atoms: O_2  and  C_3
REMARK    3  A    between atoms: C_12  and  C_13
REMARK    4  A    between atoms: C_24  and  C_26
REMARK    5  A    between atoms: C_26  and  C_27
REMARK                            x       y       z     vdW  Elec       q    Type
REMARK                         _______ _______ _______ _____ _____    ______ ____
ROOT
ATOM      1  C   UNL     1      -1.693  11.166  17.998  0.00  0.00    +0.000 A 
ATOM      2  C   UNL     1      -1.081  12.346  17.579  0.00  0.00    +0.000 A 
ATOM      3  C   UNL     1      -0.333  13.106  18.479  0.00  0.00    +0.000 A 
ATOM      4  C   UNL     1      -0.103  12.656  19.776  0.00  0.00    +0.000 A 
ATOM      5  C   UNL     1      -0.800  11.532  20.223  0.00  0.00    +0.000 A 
ATOM      6  C   UNL     1      -1.577  10.778  19.334  0.00  0.00    +0.000 A 
ATOM      7  O   UNL     1      -0.785  11.140  21.540  0.00  0.00    +0.000 OA
ATOM      8  C   UNL     1      -1.259  12.127  22.378  0.00  0.00    +0.000 A 
ATOM      9  C   UNL     1      -2.446  11.860  23.074  0.00  0.00    +0.000 A 
ATOM     10  C   UNL     1      -3.006  12.832  23.911  0.00  0.00    +0.000 A 
ATOM     11  C   UNL     1      -4.297  12.578  24.634  0.00  0.00    +0.000 C 
ATOM     12  C   UNL     1      -2.344  14.056  24.058  0.00  0.00    +0.000 A 
ATOM     13  C   UNL     1      -1.146  14.305  23.374  0.00  0.00    +0.000 A 
ATOM     14  C   UNL     1      -0.590  13.353  22.512  0.00  0.00    +0.000 A 
ATOM     15  N   UNL     1       0.640  13.651  21.895  0.00  0.00    +0.000 NA
ATOM     16  C   UNL     1       0.914  13.336  20.654  0.00  0.00    +0.000 C 
ATOM     17  N   UNL     1       2.206  13.630  20.153  0.00  0.00    +0.000 N 
ATOM     18  C   UNL     1       2.714  13.268  18.819  0.00  0.00    +0.000 C 
ATOM     19  C   UNL     1       2.810  14.469  17.874  0.00  0.00    +0.000 C 
ATOM     20  C   UNL     1       3.422  15.741  18.454  0.00  0.00    +0.000 C 
ATOM     21  N   UNL     1       4.435  15.515  19.475  0.00  0.00    +0.000 N 
ATOM     22  C   UNL     1       5.739  15.284  19.062  0.00  0.00    +0.000 C 
ATOM     23  O   UNL     1       6.037  15.245  17.862  0.00  0.00    +0.000 OA
ATOM     24  C   UNL     1       3.910  15.339  20.843  0.00  0.00    +0.000 C 
ATOM     25  C   UNL     1       3.304  13.948  21.101  0.00  0.00    +0.000 C 
ENDROOT
BRANCH   1  27
ATOM     26  C   UNL     1      -2.685  10.794  15.875  0.00  0.00    +0.000 C 
ATOM     27  O   UNL     1      -2.443  10.341  17.204  0.00  0.00    +0.000 OA
ENDBRANCH   1  27
BRANCH  22  28
ATOM     28  C   UNL     1       6.827  15.084  20.112  0.00  0.00    +0.000 C 
BRANCH  28  29
ATOM     29  C   UNL     1       8.206  14.909  19.517  0.00  0.00    +0.000 A 
ATOM     30  C   UNL     1       9.068  16.004  19.378  0.00  0.00    +0.000 A 
ATOM     31  C   UNL     1      10.336  15.842  18.814  0.00  0.00    +0.000 A 
ATOM     32  C   UNL     1      10.761  14.586  18.391  0.00  0.00    +0.000 A 
ATOM     33  C   UNL     1       9.920  13.482  18.544  0.00  0.00    +0.000 A 
ATOM     34  C   UNL     1       8.651  13.645  19.106  0.00  0.00    +0.000 A 
ENDBRANCH  28  29
ENDBRANCH  22  28
TORSDOF 3
ENDMDL
MODEL 3
REMARK VINA RESULT:      -7.4      1.855      2.887
REMARK  Name = 
REMARK  5 active torsions:
REMARK  status: ('A' for Active; 'I' for Inactive)
REMARK    1  A    between atoms: C_1  and  O_2
REMARK    2  A    between atoms: O_2  and  C_3
REMARK    3  A    between atoms: C_12  and  C_13
REMARK    4  A    between atoms: C_24  and  C_26
REMARK    5  A    between atoms: C_26  and  C_27
REMARK                            x       y       z     vdW  Elec       q    Type
REMARK                         _______ _______ _______ _____ _____    ______ ____
ROOT
ATOM      1  C   UNL     1       1.429   4.072  20.274  0.00  0.00    +0.000 A 
ATOM      2  C   UNL     1       1.525   5.205  21.080  0.00  0.00    +0.000 A 
ATOM      3  C   UNL     1       1.993   6.407  20.547  0.00  0.00    +0.000 A 
ATOM      4  C   UNL     1       2.278   6.524  19.190  0.00  0.00    +0.000 A 
ATOM      5  C   UNL     1       2.281   5.367  18.409  0.00  0.00    +0.000 A 
ATOM      6  C   UNL     1       1.840   4.149  18.942  0.00  0.00    +0.000 A 
ATOM      7  O   UNL     1       2.742   5.362  17.114  0.00  0.00    +0.000 OA
ATOM      8  C   UNL     1       4.058   5.771  17.032  0.00  0.00    +0.000 A 
ATOM      9  C   UNL     1       4.995   4.825  16.595  0.00  0.00    +0.000 A 
ATOM     10  C   UNL     1       6.352   5.159  16.526  0.00  0.00    +0.000 A 
ATOM     11  C   UNL     1       7.376   4.148  16.097  0.00  0.00    +0.000 C 
ATOM     12  C   UNL     1       6.745   6.456  16.874  0.00  0.00    +0.000 A 
ATOM     13  C   UNL     1       5.797   7.401  17.290  0.00  0.00    +0.000 A 
ATOM     14  C   UNL     1       4.440   7.072  17.390  0.00  0.00    +0.000 A 
ATOM     15  N   UNL     1       3.535   8.083  17.768  0.00  0.00    +0.000 NA
ATOM     16  C   UNL     1       2.524   7.876  18.573  0.00  0.00    +0.000 C 
ATOM     17  N   UNL     1       1.641   8.952  18.838  0.00  0.00    +0.000 N 
ATOM     18  C   UNL     1       0.409   8.876  19.640  0.00  0.00    +0.000 C 
ATOM     19  C   UNL     1       0.553   9.539  21.013  0.00  0.00    +0.000 C 
ATOM     20  C   UNL     1       1.235  10.904  21.039  0.00  0.00    +0.000 C 
ATOM     21  N   UNL     1       1.026  11.708  19.842  0.00  0.00    +0.000 N 
ATOM     22  C   UNL     1      -0.124  12.478  19.764  0.00  0.00    +0.000 C 
ATOM     23  O   UNL     1      -0.968  12.469  20.669  0.00  0.00    +0.000 OA
ATOM     24  C   UNL     1       1.971  11.438  18.740  0.00  0.00    +0.000 C 
ATOM     25  C   UNL     1       1.661  10.149  17.958  0.00  0.00    +0.000 C 
ENDROOT
BRANCH   1  27
ATOM     26  C   UNL     1       1.529   2.351  21.903  0.00  0.00    +0.000 C 
ATOM     27  O   UNL     1       0.980   2.846  20.685  0.00  0.00    +0.000 OA
ENDBRANCH   1  27
BRANCH  22  28
ATOM     28  C   UNL     1      -0.349  13.359  18.539  0.00  0.00    +0.000 C 
BRANCH  28  29
ATOM     29  C   UNL     1       0.162  14.770  18.718  0.00  0.00    +0.000 A 
ATOM     30  C   UNL     1      -0.709  15.804  19.084  0.00  0.00    +0.000 A 
ATOM     31  C   UNL     1      -0.236  17.111  19.234  0.00  0.00    +0.000 A 
ATOM     32  C   UNL     1       1.111  17.398  19.029  0.00  0.00    +0.000 A 
ATOM     33  C   UNL     1       1.994  16.372  18.686  0.00  0.00    +0.000 A 
ATOM     34  C   UNL     1       1.520  15.067  18.533  0.00  0.00    +0.000 A 
ENDBRANCH  28  29
ENDBRANCH  22  28
TORSDOF 3
ENDMDL
MODEL 4
REMARK VINA RESULT:      -7.3      4.569      7.593
REMARK  Name = 
REMARK  5 active torsions:
REMARK  status: ('A' for Active; 'I' for Inactive)
REMARK    1  A    between atoms: C_1  and  O_2
REMARK    2  A    between atoms: O_2  and  C_3
REMARK    3  A    between atoms: C_12  and  C_13
REMARK    4  A    between atoms: C_24  and  C_26
REMARK    5  A    between atoms: C_26  and  C_27
REMARK                            x       y       z     vdW  Elec       q    Type
REMARK                         _______ _______ _______ _____ _____    ______ ____
ROOT
ATOM      1  C   UNL     1       0.363   9.829  21.707  0.00  0.00    +0.000 A 
ATOM      2  C   UNL     1      -0.255  10.524  22.744  0.00  0.00    +0.000 A 
ATOM      3  C   UNL     1      -0.852  11.762  22.502  0.00  0.00    +0.000 A 
ATOM      4  C   UNL     1      -0.927  12.278  21.211  0.00  0.00    +0.000 A 
ATOM      5  C   UNL     1      -0.220  11.634  20.195  0.00  0.00    +0.000 A 
ATOM      6  C   UNL     1       0.407  10.405  20.435  0.00  0.00    +0.000 A 
ATOM      7  O   UNL     1      -0.078  12.183  18.943  0.00  0.00    +0.000 OA
ATOM      8  C   UNL     1       0.537  13.417  18.987  0.00  0.00    +0.000 A 
ATOM      9  C   UNL     1       1.793  13.528  18.377  0.00  0.00    +0.000 A 
ATOM     10  C   UNL     1       2.492  14.740  18.418  0.00  0.00    +0.000 A 
ATOM     11  C   UNL     1       3.855  14.867  17.803  0.00  0.00    +0.000 C 
ATOM     12  C   UNL     1       1.900  15.837  19.053  0.00  0.00    +0.000 A 
ATOM     13  C   UNL     1       0.633  15.722  19.642  0.00  0.00    +0.000 A 
ATOM     14  C   UNL     1      -0.064  14.508  19.633  0.00  0.00    +0.000 A 
ATOM     15  N   UNL     1      -1.353  14.476  20.200  0.00  0.00    +0.000 NA
ATOM     16  C   UNL     1      -1.797  13.472  20.914  0.00  0.00    +0.000 C 
ATOM     17  N   UNL     1      -3.131  13.518  21.386  0.00  0.00    +0.000 N 
ATOM     18  C   UNL     1      -3.821  12.444  22.121  0.00  0.00    +0.000 C 
ATOM     19  C   UNL     1      -3.995  12.760  23.609  0.00  0.00    +0.000 C 
ATOM     20  C   UNL     1      -4.480  14.166  23.952  0.00  0.00    +0.000 C 
ATOM     21  N   UNL     1      -5.360  14.762  22.956  0.00  0.00    +0.000 N 
ATOM     22  C   UNL     1      -6.714  14.468  23.020  0.00  0.00    +0.000 C 
ATOM     23  O   UNL     1      -7.166  13.702  23.879  0.00  0.00    +0.000 OA
ATOM     24  C   UNL     1      -4.668  15.448  21.847  0.00  0.00    +0.000 C 
ATOM     25  C   UNL     1      -4.085  14.490  20.793  0.00  0.00    +0.000 C 
ENDROOT
BRANCH   1  27
ATOM     26  C   UNL     1       1.503   8.050  20.629  0.00  0.00    +0.000 C 
ATOM     27  O   UNL     1       0.973   8.610  21.827  0.00  0.00    +0.000 OA
ENDBRANCH   1  27
BRANCH  22  28
ATOM     28  C   UNL     1      -7.663  15.111  22.014  0.00  0.00    +0.000 C 
BRANCH  28  29
ATOM     29  C   UNL     1      -7.685  14.404  20.679  0.00  0.00    +0.000 A 
ATOM     30  C   UNL     1      -7.882  15.123  19.493  0.00  0.00    +0.000 A 
ATOM     31  C   UNL     1      -7.917  14.464  18.260  0.00  0.00    +0.000 A 
ATOM     32  C   UNL     1      -7.747  13.084  18.197  0.00  0.00    +0.000 A 
ATOM     33  C   UNL     1      -7.528  12.359  19.370  0.00  0.00    +0.000 A 
ATOM     34  C   UNL     1      -7.496  13.017  20.602  0.00  0.00    +0.000 A 
ENDBRANCH  28  29
ENDBRANCH  22  28
TORSDOF 3
ENDMDL
MODEL 5
REMARK VINA RESULT:      -7.2      5.872      9.897
REMARK  Name = 
REMARK  5 active torsions:
REMARK  status: ('A' for Active; 'I' for Inactive)
REMARK    1  A    between atoms: C_1  and  O_2
REMARK    2  A    between atoms: O_2  and  C_3
REMARK    3  A    between atoms: C_12  and  C_13
REMARK    4  A    between atoms: C_24  and  C_26
REMARK    5  A    between atoms: C_26  and  C_27
REMARK                            x       y       z     vdW  Elec       q    Type
REMARK                         _______ _______ _______ _____ _____    ______ ____
ROOT
ATOM      1  C   UNL     1      -1.048  11.004  18.397  0.00  0.00    +0.000 A 
ATOM      2  C   UNL     1      -0.571  12.235  17.953  0.00  0.00    +0.000 A 
ATOM      3  C   UNL     1      -0.050  13.155  18.865  0.00  0.00    +0.000 A 
ATOM      4  C   UNL     1       0.093  12.826  20.209  0.00  0.00    +0.000 A 
ATOM      5  C   UNL     1      -0.479  11.638  20.668  0.00  0.00    +0.000 A 
ATOM      6  C   UNL     1      -1.030  10.720  19.764  0.00  0.00    +0.000 A 
ATOM      7  O   UNL     1      -0.558  11.334  22.006  0.00  0.00    +0.000 OA
ATOM      8  C   UNL     1      -1.264  12.287  22.711  0.00  0.00    +0.000 A 
ATOM      9  C   UNL     1      -2.471  11.883  23.298  0.00  0.00    +0.000 A 
ATOM     10  C   UNL     1      -3.259  12.807  23.993  0.00  0.00    +0.000 A 
ATOM     11  C   UNL     1      -4.573  12.402  24.596  0.00  0.00    +0.000 C 
ATOM     12  C   UNL     1      -2.805  14.124  24.113  0.00  0.00    +0.000 A 
ATOM     13  C   UNL     1      -1.585  14.513  23.540  0.00  0.00    +0.000 A 
ATOM     14  C   UNL     1      -0.801  13.607  22.817  0.00  0.00    +0.000 A 
ATOM     15  N   UNL     1       0.435  14.051  22.311  0.00  0.00    +0.000 NA
ATOM     16  C   UNL     1       0.893  13.708  21.133  0.00  0.00    +0.000 C 
ATOM     17  N   UNL     1       2.176  14.165  20.748  0.00  0.00    +0.000 N 
ATOM     18  C   UNL     1       2.882  13.804  19.507  0.00  0.00    +0.000 C 
ATOM     19  C   UNL     1       2.909  14.946  18.486  0.00  0.00    +0.000 C 
ATOM     20  C   UNL     1       3.257  16.330  19.026  0.00  0.00    +0.000 C 
ATOM     21  N   UNL     1       4.169  16.325  20.161  0.00  0.00    +0.000 N 
ATOM     22  C   UNL     1       5.531  16.273  19.905  0.00  0.00    +0.000 C 
ATOM     23  O   UNL     1       5.968  16.207  18.750  0.00  0.00    +0.000 OA
ATOM     24  C   UNL     1       3.522  16.155  21.477  0.00  0.00    +0.000 C 
ATOM     25  C   UNL     1       3.101  14.705  21.778  0.00  0.00    +0.000 C 
ENDROOT
BRANCH   1  27
ATOM     26  C   UNL     1      -2.995   9.972  17.517  0.00  0.00    +0.000 C 
ATOM     27  O   UNL     1      -1.573  10.026  17.596  0.00  0.00    +0.000 OA
ENDBRANCH   1  27
BRANCH  22  28
ATOM     28  C   UNL     1       6.510  16.307  21.076  0.00  0.00    +0.000 C 
BRANCH  28  29
ATOM     29  C   UNL     1       7.215  14.990  21.302  0.00  0.00    +0.000 A 
ATOM     30  C   UNL     1       6.775  14.105  22.295  0.00  0.00    +0.000 A 
ATOM     31  C   UNL     1       7.438  12.894  22.512  0.00  0.00    +0.000 A 
ATOM     32  C   UNL     1       8.540  12.549  21.735  0.00  0.00    +0.000 A 
ATOM     33  C   UNL     1       8.976  13.411  20.727  0.00  0.00    +0.000 A 
ATOM     34  C   UNL     1       8.314  14.623  20.513  0.00  0.00    +0.000 A 
ENDBRANCH  28  29
ENDBRANCH  22  28
TORSDOF 3
ENDMDL
MODEL 6
REMARK VINA RESULT:      -7.1      4.322      8.097
REMARK  Name = 
REMARK  5 active torsions:
REMARK  status: ('A' for Active; 'I' for Inactive)
REMARK    1  A    between atoms: C_1  and  O_2
REMARK    2  A    between atoms: O_2  and  C_3
REMARK    3  A    between atoms: C_12  and  C_13
REMARK    4  A    between atoms: C_24  and  C_26
REMARK    5  A    between atoms: C_26  and  C_27
REMARK                            x       y       z     vdW  Elec       q    Type
REMARK                         _______ _______ _______ _____ _____    ______ ____
ROOT
ATOM      1  C   UNL     1      -3.133  11.431  16.889  0.00  0.00    +0.000 A 
ATOM      2  C   UNL     1      -4.112  11.456  17.880  0.00  0.00    +0.000 A 
ATOM      3  C   UNL     1      -3.748  11.576  19.222  0.00  0.00    +0.000 A 
ATOM      4  C   UNL     1      -2.419  11.769  19.588  0.00  0.00    +0.000 A 
ATOM      5  C   UNL     1      -1.434  11.639  18.607  0.00  0.00    +0.000 A 
ATOM      6  C   UNL     1      -1.788  11.490  17.261  0.00  0.00    +0.000 A 
ATOM      7  O   UNL     1      -0.095  11.617  18.916  0.00  0.00    +0.000 OA
ATOM      8  C   UNL     1       0.218  10.588  19.781  0.00  0.00    +0.000 A 
ATOM      9  C   UNL     1       1.063   9.580  19.295  0.00  0.00    +0.000 A 
ATOM     10  C   UNL     1       1.390   8.486  20.104  0.00  0.00    +0.000 A 
ATOM     11  C   UNL     1       2.262   7.378  19.588  0.00  0.00    +0.000 C 
ATOM     12  C   UNL     1       0.882   8.436  21.407  0.00  0.00    +0.000 A 
ATOM     13  C   UNL     1       0.056   9.460  21.890  0.00  0.00    +0.000 A 
ATOM     14  C   UNL     1      -0.303  10.546  21.082  0.00  0.00    +0.000 A 
ATOM     15  N   UNL     1      -1.096  11.563  21.647  0.00  0.00    +0.000 NA
ATOM     16  C   UNL     1      -2.062  12.162  20.998  0.00  0.00    +0.000 C 
ATOM     17  N   UNL     1      -2.757  13.214  21.643  0.00  0.00    +0.000 N 
ATOM     18  C   UNL     1      -3.803  14.054  21.035  0.00  0.00    +0.000 C 
ATOM     19  C   UNL     1      -5.207  13.716  21.545  0.00  0.00    +0.000 C 
ATOM     20  C   UNL     1      -5.353  13.525  23.052  0.00  0.00    +0.000 C 
ATOM     21  N   UNL     1      -4.443  14.330  23.855  0.00  0.00    +0.000 N 
ATOM     22  C   UNL     1      -4.815  15.631  24.159  0.00  0.00    +0.000 C 
ATOM     23  O   UNL     1      -5.876  16.111  23.743  0.00  0.00    +0.000 OA
ATOM     24  C   UNL     1      -3.112  13.731  24.073  0.00  0.00    +0.000 C 
ATOM     25  C   UNL     1      -2.175  13.841  22.857  0.00  0.00    +0.000 C 
ENDROOT
BRANCH   1  27
ATOM     26  C   UNL     1      -3.119  10.048  14.961  0.00  0.00    +0.000 C 
ATOM     27  O   UNL     1      -3.372  11.323  15.546  0.00  0.00    +0.000 OA
ENDBRANCH   1  27
BRANCH  22  28
ATOM     28  C   UNL     1      -3.898  16.482  25.032  0.00  0.00    +0.000 C 
BRANCH  28  29
ATOM     29  C   UNL     1      -2.783  17.145  24.258  0.00  0.00    +0.000 A 
ATOM     30  C   UNL     1      -2.998  17.615  22.956  0.00  0.00    +0.000 A 
ATOM     31  C   UNL     1      -1.959  18.214  22.237  0.00  0.00    +0.000 A 
ATOM     32  C   UNL     1      -0.700  18.358  22.811  0.00  0.00    +0.000 A 
ATOM     33  C   UNL     1      -0.478  17.914  24.116  0.00  0.00    +0.000 A 
ATOM     34  C   UNL     1      -1.515  17.313  24.834  0.00  0.00    +0.000 A 
ENDBRANCH  28  29
ENDBRANCH  22  28
TORSDOF 3
ENDMDL
MODEL 7
REMARK VINA RESULT:      -6.8      6.106     10.520
REMARK  Name = 
REMARK  5 active torsions:
REMARK  status: ('A' for Active; 'I' for Inactive)
REMARK    1  A    between atoms: C_1  and  O_2
REMARK    2  A    between atoms: O_2  and  C_3
REMARK    3  A    between atoms: C_12  and  C_13
REMARK    4  A    between atoms: C_24  and  C_26
REMARK    5  A    between atoms: C_26  and  C_27
REMARK                            x       y       z     vdW  Elec       q    Type
REMARK                         _______ _______ _______ _____ _____    ______ ____
ROOT
ATOM      1  C   UNL     1      -1.561  11.881  18.695  0.00  0.00    +0.000 A 
ATOM      2  C   UNL     1      -0.839  12.831  17.976  0.00  0.00    +0.000 A 
ATOM      3  C   UNL     1       0.099  13.637  18.622  0.00  0.00    +0.000 A 
ATOM      4  C   UNL     1       0.401  13.444  19.968  0.00  0.00    +0.000 A 
ATOM      5  C   UNL     1      -0.394  12.567  20.708  0.00  0.00    +0.000 A 
ATOM      6  C   UNL     1      -1.358  11.774  20.073  0.00  0.00    +0.000 A 
ATOM      7  O   UNL     1      -0.294  12.469  22.075  0.00  0.00    +0.000 OA
ATOM      8  C   UNL     1      -0.535  13.676  22.699  0.00  0.00    +0.000 A 
ATOM      9  C   UNL     1      -1.667  13.756  23.521  0.00  0.00    +0.000 A 
ATOM     10  C   UNL     1      -1.994  14.961  24.153  0.00  0.00    +0.000 A 
ATOM     11  C   UNL     1      -3.224  15.076  25.007  0.00  0.00    +0.000 C 
ATOM     12  C   UNL     1      -1.157  16.067  23.970  0.00  0.00    +0.000 A 
ATOM     13  C   UNL     1      -0.015  15.970  23.162  0.00  0.00    +0.000 A 
ATOM     14  C   UNL     1       0.308  14.779  22.501  0.00  0.00    +0.000 A 
ATOM     15  N   UNL     1       1.496  14.738  21.745  0.00  0.00    +0.000 NA
ATOM     16  C   UNL     1       1.590  14.126  20.591  0.00  0.00    +0.000 C 
ATOM     17  N   UNL     1       2.850  14.096  19.944  0.00  0.00    +0.000 N 
ATOM     18  C   UNL     1       3.158  13.381  18.695  0.00  0.00    +0.000 C 
ATOM     19  C   UNL     1       3.319  14.321  17.497  0.00  0.00    +0.000 C 
ATOM     20  C   UNL     1       4.160  15.574  17.726  0.00  0.00    +0.000 C 
ATOM     21  N   UNL     1       5.235  15.413  18.696  0.00  0.00    +0.000 N 
ATOM     22  C   UNL     1       6.442  14.895  18.253  0.00  0.00    +0.000 C 
ATOM     23  O   UNL     1       6.603  14.553  17.075  0.00  0.00    +0.000 OA
ATOM     24  C   UNL     1       4.838  15.620  20.102  0.00  0.00    +0.000 C 
ATOM     25  C   UNL     1       4.076  14.430  20.714  0.00  0.00    +0.000 C 
ENDROOT
BRANCH   1  27
ATOM     26  C   UNL     1      -2.287  10.624  16.819  0.00  0.00    +0.000 C 
ATOM     27  O   UNL     1      -2.498  11.036  18.167  0.00  0.00    +0.000 OA
ENDBRANCH   1  27
BRANCH  22  28
ATOM     28  C   UNL     1       7.598  14.753  19.239  0.00  0.00    +0.000 C 
BRANCH  28  29
ATOM     29  C   UNL     1       8.821  14.101  18.636  0.00  0.00    +0.000 A 
ATOM     30  C   UNL     1       9.844  14.879  18.080  0.00  0.00    +0.000 A 
ATOM     31  C   UNL     1      10.967  14.273  17.510  0.00  0.00    +0.000 A 
ATOM     32  C   UNL     1      11.085  12.886  17.497  0.00  0.00    +0.000 A 
ATOM     33  C   UNL     1      10.082  12.100  18.067  0.00  0.00    +0.000 A 
ATOM     34  C   UNL     1       8.959  12.706  18.634  0.00  0.00    +0.000 A 
ENDBRANCH  28  29
ENDBRANCH  22  28
TORSDOF 3
ENDMDL
MODEL 8
REMARK VINA RESULT:      -6.6      5.946     10.039
REMARK  Name = 
REMARK  5 active torsions:
REMARK  status: ('A' for Active; 'I' for Inactive)
REMARK    1  A    between atoms: C_1  and  O_2
REMARK    2  A    between atoms: O_2  and  C_3
REMARK    3  A    between atoms: C_12  and  C_13
REMARK    4  A    between atoms: C_24  and  C_26
REMARK    5  A    between atoms: C_26  and  C_27
REMARK                            x       y       z     vdW  Elec       q    Type
REMARK                         _______ _______ _______ _____ _____    ______ ____
ROOT
ATOM      1  C   UNL     1      -0.599  11.134  18.695  0.00  0.00    +0.000 A 
ATOM      2  C   UNL     1      -0.315  12.408  18.207  0.00  0.00    +0.000 A 
ATOM      3  C   UNL     1       0.006  13.442  19.088  0.00  0.00    +0.000 A 
ATOM      4  C   UNL     1       0.144  13.201  20.452  0.00  0.00    +0.000 A 
ATOM      5  C   UNL     1      -0.241  11.955  20.949  0.00  0.00    +0.000 A 
ATOM      6  C   UNL     1      -0.592  10.919  20.075  0.00  0.00    +0.000 A 
ATOM      7  O   UNL     1      -0.326  11.702  22.298  0.00  0.00    +0.000 OA
ATOM      8  C   UNL     1      -1.210  12.553  22.928  0.00  0.00    +0.000 A 
ATOM      9  C   UNL     1      -2.357  11.978  23.492  0.00  0.00    +0.000 A 
ATOM     10  C   UNL     1      -3.317  12.786  24.112  0.00  0.00    +0.000 A 
ATOM     11  C   UNL     1      -4.570  12.193  24.688  0.00  0.00    +0.000 C 
ATOM     12  C   UNL     1      -3.094  14.165  24.181  0.00  0.00    +0.000 A 
ATOM     13  C   UNL     1      -1.933  14.728  23.632  0.00  0.00    +0.000 A 
ATOM     14  C   UNL     1      -0.979  13.935  22.984  0.00  0.00    +0.000 A 
ATOM     15  N   UNL     1       0.187  14.559  22.498  0.00  0.00    +0.000 NA
ATOM     16  C   UNL     1       0.745  14.245  21.356  0.00  0.00    +0.000 C 
ATOM     17  N   UNL     1       1.951  14.894  20.993  0.00  0.00    +0.000 N 
ATOM     18  C   UNL     1       2.759  14.603  19.798  0.00  0.00    +0.000 C 
ATOM     19  C   UNL     1       2.639  15.686  18.722  0.00  0.00    +0.000 C 
ATOM     20  C   UNL     1       2.729  17.132  19.202  0.00  0.00    +0.000 C 
ATOM     21  N   UNL     1       3.580  17.331  20.367  0.00  0.00    +0.000 N 
ATOM     22  C   UNL     1       4.941  17.497  20.162  0.00  0.00    +0.000 C 
ATOM     23  O   UNL     1       5.432  17.454  19.028  0.00  0.00    +0.000 OA
ATOM     24  C   UNL     1       2.914  17.112  21.666  0.00  0.00    +0.000 C 
ATOM     25  C   UNL     1       2.727  15.627  22.026  0.00  0.00    +0.000 C 
ENDROOT
BRANCH   1  27
ATOM     26  C   UNL     1      -2.157  10.115  17.226  0.00  0.00    +0.000 C 
ATOM     27  O   UNL     1      -0.919  10.048  17.928  0.00  0.00    +0.000 OA
ENDBRANCH   1  27
BRANCH  22  28
ATOM     28  C   UNL     1       5.849  17.747  21.363  0.00  0.00    +0.000 C 
BRANCH  28  29
ATOM     29  C   UNL     1       6.343  16.475  22.012  0.00  0.00    +0.000 A 
ATOM     30  C   UNL     1       6.641  15.347  21.238  0.00  0.00    +0.000 A 
ATOM     31  C   UNL     1       7.083  14.167  21.844  0.00  0.00    +0.000 A 
ATOM     32  C   UNL     1       7.242  14.104  23.225  0.00  0.00    +0.000 A 
ATOM     33  C   UNL     1       6.969  15.229  24.006  0.00  0.00    +0.000 A 
ATOM     34  C   UNL     1       6.524  16.407  23.401  0.00  0.00    +0.000 A 
ENDBRANCH  28  29
ENDBRANCH  22  28
TORSDOF 3
ENDMDL
MODEL 9
REMARK VINA RESULT:      -6.6      3.990     10.187
REMARK  Name = 
REMARK  5 active torsions:
REMARK  status: ('A' for Active; 'I' for Inactive)
REMARK    1  A    between atoms: C_1  and  O_2
REMARK    2  A    between atoms: O_2  and  C_3
REMARK    3  A    between atoms: C_12  and  C_13
REMARK    4  A    between atoms: C_24  and  C_26
REMARK    5  A    between atoms: C_26  and  C_27
REMARK                            x       y       z     vdW  Elec       q    Type
REMARK                         _______ _______ _______ _____ _____    ______ ____
ROOT
ATOM      1  C   UNL     1      -5.742  13.051  22.649  0.00  0.00    +0.000 A 
ATOM      2  C   UNL     1      -5.281  13.037  21.334  0.00  0.00    +0.000 A 
ATOM      3  C   UNL     1      -3.922  13.207  21.065  0.00  0.00    +0.000 A 
ATOM      4  C   UNL     1      -2.995  13.296  22.099  0.00  0.00    +0.000 A 
ATOM      5  C   UNL     1      -3.467  13.415  23.407  0.00  0.00    +0.000 A 
ATOM      6  C   UNL     1      -4.832  13.274  23.685  0.00  0.00    +0.000 A 
ATOM      7  O   UNL     1      -2.633  13.705  24.461  0.00  0.00    +0.000 OA
ATOM      8  C   UNL     1      -1.972  14.903  24.281  0.00  0.00    +0.000 A 
ATOM      9  C   UNL     1      -2.266  15.936  25.181  0.00  0.00    +0.000 A 
ATOM     10  C   UNL     1      -1.662  17.191  25.034  0.00  0.00    +0.000 A 
ATOM     11  C   UNL     1      -1.994  18.321  25.964  0.00  0.00    +0.000 C 
ATOM     12  C   UNL     1      -0.745  17.379  23.994  0.00  0.00    +0.000 A 
ATOM     13  C   UNL     1      -0.442  16.332  23.112  0.00  0.00    +0.000 A 
ATOM     14  C   UNL     1      -1.060  15.081  23.230  0.00  0.00    +0.000 A 
ATOM     15  N   UNL     1      -0.673  14.060  22.341  0.00  0.00    +0.000 NA
ATOM     16  C   UNL     1      -1.518  13.211  21.813  0.00  0.00    +0.000 C 
ATOM     17  N   UNL     1      -1.011  12.186  20.978  0.00  0.00    +0.000 N 
ATOM     18  C   UNL     1      -1.800  11.097  20.377  0.00  0.00    +0.000 C 
ATOM     19  C   UNL     1      -2.023  11.286  18.873  0.00  0.00    +0.000 C 
ATOM     20  C   UNL     1      -0.804  11.703  18.054  0.00  0.00    +0.000 C 
ATOM     21  N   UNL     1       0.466  11.205  18.562  0.00  0.00    +0.000 N 
ATOM     22  C   UNL     1       0.866   9.932  18.185  0.00  0.00    +0.000 C 
ATOM     23  O   UNL     1       0.159   9.222  17.459  0.00  0.00    +0.000 OA
ATOM     24  C   UNL     1       1.088  12.039  19.609  0.00  0.00    +0.000 C 
ATOM     25  C   UNL     1       0.442  11.877  20.996  0.00  0.00    +0.000 C 
ENDROOT
BRANCH   1  27
ATOM     26  C   UNL     1      -7.442  13.560  24.223  0.00  0.00    +0.000 C 
ATOM     27  O   UNL     1      -7.046  12.889  23.030  0.00  0.00    +0.000 OA
ENDBRANCH   1  27
BRANCH  22  28
ATOM     28  C   UNL     1       2.212   9.400  18.670  0.00  0.00    +0.000 C 
BRANCH  28  29
ATOM     29  C   UNL     1       2.187   7.925  18.999  0.00  0.00    +0.000 A 
ATOM     30  C   UNL     1       2.549   6.973  18.038  0.00  0.00    +0.000 A 
ATOM     31  C   UNL     1       2.511   5.609  18.341  0.00  0.00    +0.000 A 
ATOM     32  C   UNL     1       2.121   5.182  19.607  0.00  0.00    +0.000 A 
ATOM     33  C   UNL     1       1.780   6.122  20.581  0.00  0.00    +0.000 A 
ATOM     34  C   UNL     1       1.815   7.485  20.277  0.00  0.00    +0.000 A 
ENDBRANCH  28  29
ENDBRANCH  22  28
TORSDOF 3
ENDMDL
