MODEL 1
REMARK VINA RESULT:      -7.8      0.000      0.000
REMARK  Name = 
REMARK  7 active torsions:
REMARK  status: ('A' for Active; 'I' for Inactive)
REMARK    1  A    between atoms: C_1  and  C_2
REMARK    2  A    between atoms: C_7  and  N_8
REMARK    3  A    between atoms: N_8  and  C_9
REMARK    4  A    between atoms: C_14  and  O_15
REMARK    5  A    between atoms: O_15  and  C_16
REMARK    6  A    between atoms: C_16  and  C_17
REMARK    7  A    between atoms: C_16  and  C_18
REMARK                            x       y       z     vdW  Elec       q    Type
REMARK                         _______ _______ _______ _____ _____    ______ ____
ROOT
ATOM      1  N   UNL     1       5.310   3.521  17.055  0.00  0.00    +0.000 N 
ATOM      2  H   UNL     1       5.922   2.869  17.541  0.00  0.00    +0.000 HD
ENDROOT
BRANCH   1   9
ATOM      3  C   UNL     1       1.867   2.703  21.759  0.00  0.00    +0.000 C 
ATOM      4  C   UNL     1       2.038   3.836  20.782  0.00  0.00    +0.000 C 
ATOM      5  O   UNL     1       1.344   4.847  20.889  0.00  0.00    +0.000 OA
ATOM      6  N   UNL     1       3.005   3.687  19.801  0.00  0.00    +0.000 N 
ATOM      7  C   UNL     1       3.308   4.814  18.919  0.00  0.00    +0.000 C 
ATOM      8  C   UNL     1       3.061   4.433  17.466  0.00  0.00    +0.000 C 
ATOM      9  C   UNL     1       3.869   3.183  17.088  0.00  0.00    +0.000 C 
ATOM     10  C   UNL     1       3.577   2.044  18.071  0.00  0.00    +0.000 C 
ATOM     11  C   UNL     1       3.759   2.466  19.525  0.00  0.00    +0.000 C 
ENDBRANCH   1   9
BRANCH   1  12
ATOM     12  C   UNL     1       5.928   3.977  15.880  0.00  0.00    +0.000 A 
ATOM     13  C   UNL     1       5.516   3.549  14.611  0.00  0.00    +0.000 A 
ATOM     14  C   UNL     1       6.152   3.980  13.455  0.00  0.00    +0.000 A 
ATOM     15  C   UNL     1       7.232   4.827  13.588  0.00  0.00    +0.000 A 
ATOM     16  N   UNL     1       7.704   5.240  14.774  0.00  0.00    +0.000 NA
ATOM     17  C   UNL     1       7.066   4.816  15.895  0.00  0.00    +0.000 A 
BRANCH  17  18
ATOM     18  O   UNL     1       7.545   5.291  17.111  0.00  0.00    +0.000 OA
BRANCH  18  19
ATOM     19  C   UNL     1       7.388   6.717  17.274  0.00  0.00    +0.000 C 
ATOM     20  C   UNL     1       5.921   7.160  17.342  0.00  0.00    +0.000 C 
ATOM     21  C   UNL     1       8.079   7.125  18.577  0.00  0.00    +0.000 C 
ENDBRANCH  18  19
ENDBRANCH  17  18
ENDBRANCH   1  12
TORSDOF 4
ENDMDL
MODEL 2
REMARK VINA RESULT:      -7.5      1.655      2.186
REMARK  Name = 
REMARK  7 active torsions:
REMARK  status: ('A' for Active; 'I' for Inactive)
REMARK    1  A    between atoms: C_1  and  C_2
REMARK    2  A    between atoms: C_7  and  N_8
REMARK    3  A    between atoms: N_8  and  C_9
REMARK    4  A    between atoms: C_14  and  O_15
REMARK    5  A    between atoms: O_15  and  C_16
REMARK    6  A    between atoms: C_16  and  C_17
REMARK    7  A    between atoms: C_16  and  C_18
REMARK                            x       y       z     vdW  Elec       q    Type
REMARK                         _______ _______ _______ _____ _____    ______ ____
ROOT
ATOM      1  N   UNL     1       4.024   5.766  17.286  0.00  0.00    +0.000 N 
ATOM      2  H   UNL     1       3.439   6.479  16.857  0.00  0.00    +0.000 HD
ENDROOT
BRANCH   1   9
ATOM      3  C   UNL     1       1.448   2.905  21.738  0.00  0.00    +0.000 C 
ATOM      4  C   UNL     1       2.795   2.795  21.075  0.00  0.00    +0.000 C 
ATOM      5  O   UNL     1       3.616   1.976  21.488  0.00  0.00    +0.000 OA
ATOM      6  N   UNL     1       3.040   3.628  19.995  0.00  0.00    +0.000 N 
ATOM      7  C   UNL     1       4.275   3.460  19.229  0.00  0.00    +0.000 C 
ATOM      8  C   UNL     1       5.093   4.744  19.253  0.00  0.00    +0.000 C 
ATOM      9  C   UNL     1       4.262   5.927  18.738  0.00  0.00    +0.000 C 
ATOM     10  C   UNL     1       2.947   6.033  19.518  0.00  0.00    +0.000 C 
ATOM     11  C   UNL     1       2.176   4.717  19.544  0.00  0.00    +0.000 C 
ENDBRANCH   1   9
BRANCH   1  12
ATOM     12  C   UNL     1       5.060   5.402  16.411  0.00  0.00    +0.000 A 
ATOM     13  C   UNL     1       5.015   4.222  15.656  0.00  0.00    +0.000 A 
ATOM     14  C   UNL     1       6.056   3.853  14.817  0.00  0.00    +0.000 A 
ATOM     15  C   UNL     1       7.166   4.671  14.765  0.00  0.00    +0.000 A 
ATOM     16  N   UNL     1       7.292   5.790  15.493  0.00  0.00    +0.000 NA
ATOM     17  C   UNL     1       6.260   6.142  16.303  0.00  0.00    +0.000 A 
BRANCH  17  18
ATOM     18  O   UNL     1       6.393   7.329  17.016  0.00  0.00    +0.000 OA
BRANCH  18  19
ATOM     19  C   UNL     1       7.740   7.577  17.474  0.00  0.00    +0.000 C 
ATOM     20  C   UNL     1       7.986   9.041  17.863  0.00  0.00    +0.000 C 
ATOM     21  C   UNL     1       7.992   6.700  18.702  0.00  0.00    +0.000 C 
ENDBRANCH  18  19
ENDBRANCH  17  18
ENDBRANCH   1  12
TORSDOF 4
ENDMDL
MODEL 3
REMARK VINA RESULT:      -7.3      1.048      1.402
REMARK  Name = 
REMARK  7 active torsions:
REMARK  status: ('A' for Active; 'I' for Inactive)
REMARK    1  A    between atoms: C_1  and  C_2
REMARK    2  A    between atoms: C_7  and  N_8
REMARK    3  A    between atoms: N_8  and  C_9
REMARK    4  A    between atoms: C_14  and  O_15
REMARK    5  A    between atoms: O_15  and  C_16
REMARK    6  A    between atoms: C_16  and  C_17
REMARK    7  A    between atoms: C_16  and  C_18
REMARK                            x       y       z     vdW  Elec       q    Type
REMARK                         _______ _______ _______ _____ _____    ______ ____
ROOT
ATOM      1  N   UNL     1       5.193   3.594  16.887  0.00  0.00    +0.000 N 
ATOM      2  H   UNL     1       4.589   2.810  16.651  0.00  0.00    +0.000 HD
ENDROOT
BRANCH   1   9
ATOM      3  C   UNL     1       0.765   2.763  20.674  0.00  0.00    +0.000 C 
ATOM      4  C   UNL     1       2.263   2.793  20.820  0.00  0.00    +0.000 C 
ATOM      5  O   UNL     1       2.774   2.641  21.929  0.00  0.00    +0.000 OA
ATOM      6  N   UNL     1       3.009   2.974  19.666  0.00  0.00    +0.000 N 
ATOM      7  C   UNL     1       4.466   2.868  19.733  0.00  0.00    +0.000 C 
ATOM      8  C   UNL     1       5.115   4.169  19.279  0.00  0.00    +0.000 C 
ATOM      9  C   UNL     1       4.637   4.550  17.871  0.00  0.00    +0.000 C 
ATOM     10  C   UNL     1       3.106   4.588  17.821  0.00  0.00    +0.000 C 
ATOM     11  C   UNL     1       2.473   3.304  18.347  0.00  0.00    +0.000 C 
ENDBRANCH   1   9
BRANCH   1  12
ATOM     12  C   UNL     1       5.880   4.035  15.745  0.00  0.00    +0.000 A 
ATOM     13  C   UNL     1       5.509   3.635  14.455  0.00  0.00    +0.000 A 
ATOM     14  C   UNL     1       6.211   4.050  13.332  0.00  0.00    +0.000 A 
ATOM     15  C   UNL     1       7.317   4.852  13.521  0.00  0.00    +0.000 A 
ATOM     16  N   UNL     1       7.753   5.236  14.731  0.00  0.00    +0.000 NA
ATOM     17  C   UNL     1       7.049   4.828  15.819  0.00  0.00    +0.000 A 
BRANCH  17  18
ATOM     18  O   UNL     1       7.491   5.273  17.060  0.00  0.00    +0.000 OA
BRANCH  18  19
ATOM     19  C   UNL     1       7.494   6.711  17.188  0.00  0.00    +0.000 C 
ATOM     20  C   UNL     1       6.091   7.327  17.102  0.00  0.00    +0.000 C 
ATOM     21  C   UNL     1       8.097   7.065  18.549  0.00  0.00    +0.000 C 
ENDBRANCH  18  19
ENDBRANCH  17  18
ENDBRANCH   1  12
TORSDOF 4
ENDMDL
MODEL 4
REMARK VINA RESULT:      -7.2      1.158      1.290
REMARK  Name = 
REMARK  7 active torsions:
REMARK  status: ('A' for Active; 'I' for Inactive)
REMARK    1  A    between atoms: C_1  and  C_2
REMARK    2  A    between atoms: C_7  and  N_8
REMARK    3  A    between atoms: N_8  and  C_9
REMARK    4  A    between atoms: C_14  and  O_15
REMARK    5  A    between atoms: O_15  and  C_16
REMARK    6  A    between atoms: C_16  and  C_17
REMARK    7  A    between atoms: C_16  and  C_18
REMARK                            x       y       z     vdW  Elec       q    Type
REMARK                         _______ _______ _______ _____ _____    ______ ____
ROOT
ATOM      1  N   UNL     1       4.233   4.414  16.510  0.00  0.00    +0.000 N 
ATOM      2  H   UNL     1       4.064   5.251  17.062  0.00  0.00    +0.000 HD
ENDROOT
BRANCH   1   9
ATOM      3  C   UNL     1       2.130   3.541  21.937  0.00  0.00    +0.000 C 
ATOM      4  C   UNL     1       1.552   3.360  20.559  0.00  0.00    +0.000 C 
ATOM      5  O   UNL     1       0.409   2.923  20.426  0.00  0.00    +0.000 OA
ATOM      6  N   UNL     1       2.349   3.722  19.485  0.00  0.00    +0.000 N 
ATOM      7  C   UNL     1       1.783   3.701  18.136  0.00  0.00    +0.000 C 
ATOM      8  C   UNL     1       2.573   2.752  17.244  0.00  0.00    +0.000 C 
ATOM      9  C   UNL     1       4.059   3.132  17.230  0.00  0.00    +0.000 C 
ATOM     10  C   UNL     1       4.603   3.209  18.661  0.00  0.00    +0.000 C 
ATOM     11  C   UNL     1       3.756   4.107  19.559  0.00  0.00    +0.000 C 
ENDBRANCH   1   9
BRANCH   1  12
ATOM     12  C   UNL     1       5.312   4.622  15.636  0.00  0.00    +0.000 A 
ATOM     13  C   UNL     1       5.443   3.910  14.436  0.00  0.00    +0.000 A 
ATOM     14  C   UNL     1       6.529   4.098  13.592  0.00  0.00    +0.000 A 
ATOM     15  C   UNL     1       7.504   4.992  13.982  0.00  0.00    +0.000 A 
ATOM     16  N   UNL     1       7.462   5.672  15.137  0.00  0.00    +0.000 NA
ATOM     17  C   UNL     1       6.388   5.484  15.948  0.00  0.00    +0.000 A 
BRANCH  17  18
ATOM     18  O   UNL     1       6.343   6.232  17.120  0.00  0.00    +0.000 OA
BRANCH  18  19
ATOM     19  C   UNL     1       7.647   6.599  17.618  0.00  0.00    +0.000 C 
ATOM     20  C   UNL     1       7.849   8.117  17.722  0.00  0.00    +0.000 C 
ATOM     21  C   UNL     1       7.811   5.993  19.013  0.00  0.00    +0.000 C 
ENDBRANCH  18  19
ENDBRANCH  17  18
ENDBRANCH   1  12
TORSDOF 4
ENDMDL
MODEL 5
REMARK VINA RESULT:      -7.0      1.192      2.935
REMARK  Name = 
REMARK  7 active torsions:
REMARK  status: ('A' for Active; 'I' for Inactive)
REMARK    1  A    between atoms: C_1  and  C_2
REMARK    2  A    between atoms: C_7  and  N_8
REMARK    3  A    between atoms: N_8  and  C_9
REMARK    4  A    between atoms: C_14  and  O_15
REMARK    5  A    between atoms: O_15  and  C_16
REMARK    6  A    between atoms: C_16  and  C_17
REMARK    7  A    between atoms: C_16  and  C_18
REMARK                            x       y       z     vdW  Elec       q    Type
REMARK                         _______ _______ _______ _____ _____    ______ ____
ROOT
ATOM      1  N   UNL     1       5.583   3.747  17.199  0.00  0.00    +0.000 N 
ATOM      2  H   UNL     1       6.038   3.089  16.571  0.00  0.00    +0.000 HD
ENDROOT
BRANCH   1   9
ATOM      3  C   UNL     1       1.301   2.876  21.143  0.00  0.00    +0.000 C 
ATOM      4  C   UNL     1       1.951   4.108  20.571  0.00  0.00    +0.000 C 
ATOM      5  O   UNL     1       1.566   5.223  20.922  0.00  0.00    +0.000 OA
ATOM      6  N   UNL     1       2.988   3.919  19.671  0.00  0.00    +0.000 N 
ATOM      7  C   UNL     1       3.744   5.079  19.199  0.00  0.00    +0.000 C 
ATOM      8  C   UNL     1       3.650   5.192  17.683  0.00  0.00    +0.000 C 
ATOM      9  C   UNL     1       4.122   3.894  17.012  0.00  0.00    +0.000 C 
ATOM     10  C   UNL     1       3.355   2.694  17.578  0.00  0.00    +0.000 C 
ATOM     11  C   UNL     1       3.400   2.638  19.101  0.00  0.00    +0.000 C 
ENDBRANCH   1   9
BRANCH   1  12
ATOM     12  C   UNL     1       6.409   4.861  17.412  0.00  0.00    +0.000 A 
ATOM     13  C   UNL     1       6.971   5.140  18.665  0.00  0.00    +0.000 A 
ATOM     14  C   UNL     1       7.761   6.261  18.877  0.00  0.00    +0.000 A 
ATOM     15  C   UNL     1       7.959   7.122  17.818  0.00  0.00    +0.000 A 
ATOM     16  N   UNL     1       7.416   6.938  16.605  0.00  0.00    +0.000 NA
ATOM     17  C   UNL     1       6.652   5.831  16.412  0.00  0.00    +0.000 A 
BRANCH  17  18
ATOM     18  O   UNL     1       6.135   5.636  15.136  0.00  0.00    +0.000 OA
BRANCH  18  19
ATOM     19  C   UNL     1       6.854   4.647  14.369  0.00  0.00    +0.000 C 
ATOM     20  C   UNL     1       5.934   3.735  13.546  0.00  0.00    +0.000 C 
ATOM     21  C   UNL     1       7.792   5.381  13.409  0.00  0.00    +0.000 C 
ENDBRANCH  18  19
ENDBRANCH  17  18
ENDBRANCH   1  12
TORSDOF 4
ENDMDL
MODEL 6
REMARK VINA RESULT:      -6.5      2.202      6.028
REMARK  Name = 
REMARK  7 active torsions:
REMARK  status: ('A' for Active; 'I' for Inactive)
REMARK    1  A    between atoms: C_1  and  C_2
REMARK    2  A    between atoms: C_7  and  N_8
REMARK    3  A    between atoms: N_8  and  C_9
REMARK    4  A    between atoms: C_14  and  O_15
REMARK    5  A    between atoms: O_15  and  C_16
REMARK    6  A    between atoms: C_16  and  C_17
REMARK    7  A    between atoms: C_16  and  C_18
REMARK                            x       y       z     vdW  Elec       q    Type
REMARK                         _______ _______ _______ _____ _____    ______ ____
ROOT
ATOM      1  N   UNL     1       2.996   4.778  17.545  0.00  0.00    +0.000 N 
ATOM      2  H   UNL     1       2.275   4.940  16.846  0.00  0.00    +0.000 HD
ENDROOT
BRANCH   1   9
ATOM      3  C   UNL     1       8.025   7.834  17.426  0.00  0.00    +0.000 C 
ATOM      4  C   UNL     1       7.511   6.713  18.291  0.00  0.00    +0.000 C 
ATOM      5  O   UNL     1       8.225   6.251  19.181  0.00  0.00    +0.000 OA
ATOM      6  N   UNL     1       6.224   6.263  18.047  0.00  0.00    +0.000 N 
ATOM      7  C   UNL     1       5.629   5.278  18.950  0.00  0.00    +0.000 C 
ATOM      8  C   UNL     1       5.248   4.018  18.184  0.00  0.00    +0.000 C 
ATOM      9  C   UNL     1       4.312   4.356  17.015  0.00  0.00    +0.000 C 
ATOM     10  C   UNL     1       4.938   5.437  16.127  0.00  0.00    +0.000 C 
ATOM     11  C   UNL     1       5.379   6.662  16.923  0.00  0.00    +0.000 C 
ENDBRANCH   1   9
BRANCH   1  12
ATOM     12  C   UNL     1       2.437   4.173  18.682  0.00  0.00    +0.000 A 
ATOM     13  C   UNL     1       1.926   2.869  18.654  0.00  0.00    +0.000 A 
ATOM     14  C   UNL     1       1.346   2.288  19.773  0.00  0.00    +0.000 A 
ATOM     15  C   UNL     1       1.255   3.047  20.921  0.00  0.00    +0.000 A 
ATOM     16  N   UNL     1       1.684   4.315  21.004  0.00  0.00    +0.000 NA
ATOM     17  C   UNL     1       2.257   4.866  19.902  0.00  0.00    +0.000 A 
BRANCH  17  18
ATOM     18  O   UNL     1       2.734   6.166  20.022  0.00  0.00    +0.000 OA
BRANCH  18  19
ATOM     19  C   UNL     1       1.736   7.173  19.748  0.00  0.00    +0.000 C 
ATOM     20  C   UNL     1       1.397   8.036  20.971  0.00  0.00    +0.000 C 
ATOM     21  C   UNL     1       2.273   8.087  18.645  0.00  0.00    +0.000 C 
ENDBRANCH  18  19
ENDBRANCH  17  18
ENDBRANCH   1  12
TORSDOF 4
ENDMDL
MODEL 7
REMARK VINA RESULT:      -6.5      0.901      1.126
REMARK  Name = 
REMARK  7 active torsions:
REMARK  status: ('A' for Active; 'I' for Inactive)
REMARK    1  A    between atoms: C_1  and  C_2
REMARK    2  A    between atoms: C_7  and  N_8
REMARK    3  A    between atoms: N_8  and  C_9
REMARK    4  A    between atoms: C_14  and  O_15
REMARK    5  A    between atoms: O_15  and  C_16
REMARK    6  A    between atoms: C_16  and  C_17
REMARK    7  A    between atoms: C_16  and  C_18
REMARK                            x       y       z     vdW  Elec       q    Type
REMARK                         _______ _______ _______ _____ _____    ______ ____
ROOT
ATOM      1  N   UNL     1       4.897   3.387  16.936  0.00  0.00    +0.000 N 
ATOM      2  H   UNL     1       5.256   2.454  17.123  0.00  0.00    +0.000 HD
ENDROOT
BRANCH   1   9
ATOM      3  C   UNL     1       1.421   2.745  21.642  0.00  0.00    +0.000 C 
ATOM      4  C   UNL     1       1.945   3.943  20.895  0.00  0.00    +0.000 C 
ATOM      5  O   UNL     1       1.623   5.076  21.251  0.00  0.00    +0.000 OA
ATOM      6  N   UNL     1       2.800   3.702  19.832  0.00  0.00    +0.000 N 
ATOM      7  C   UNL     1       3.449   4.831  19.166  0.00  0.00    +0.000 C 
ATOM      8  C   UNL     1       3.076   4.862  17.690  0.00  0.00    +0.000 C 
ATOM      9  C   UNL     1       3.425   3.529  17.015  0.00  0.00    +0.000 C 
ATOM     10  C   UNL     1       2.784   2.363  17.775  0.00  0.00    +0.000 C 
ATOM     11  C   UNL     1       3.109   2.390  19.266  0.00  0.00    +0.000 C 
ENDBRANCH   1   9
BRANCH   1  12
ATOM     12  C   UNL     1       5.636   3.991  15.907  0.00  0.00    +0.000 A 
ATOM     13  C   UNL     1       5.737   3.420  14.631  0.00  0.00    +0.000 A 
ATOM     14  C   UNL     1       6.495   4.006  13.628  0.00  0.00    +0.000 A 
ATOM     15  C   UNL     1       7.181   5.164  13.928  0.00  0.00    +0.000 A 
ATOM     16  N   UNL     1       7.164   5.739  15.140  0.00  0.00    +0.000 NA
ATOM     17  C   UNL     1       6.410   5.158  16.109  0.00  0.00    +0.000 A 
BRANCH  17  18
ATOM     18  O   UNL     1       6.370   5.794  17.345  0.00  0.00    +0.000 OA
BRANCH  18  19
ATOM     19  C   UNL     1       7.607   5.693  18.083  0.00  0.00    +0.000 C 
ATOM     20  C   UNL     1       7.430   5.918  19.591  0.00  0.00    +0.000 C 
ATOM     21  C   UNL     1       8.177   4.290  17.867  0.00  0.00    +0.000 C 
ENDBRANCH  18  19
ENDBRANCH  17  18
ENDBRANCH   1  12
TORSDOF 4
ENDMDL
MODEL 8
REMARK VINA RESULT:      -6.5      2.687      3.179
REMARK  Name = 
REMARK  7 active torsions:
REMARK  status: ('A' for Active; 'I' for Inactive)
REMARK    1  A    between atoms: C_1  and  C_2
REMARK    2  A    between atoms: C_7  and  N_8
REMARK    3  A    between atoms: N_8  and  C_9
REMARK    4  A    between atoms: C_14  and  O_15
REMARK    5  A    between atoms: O_15  and  C_16
REMARK    6  A    between atoms: C_16  and  C_17
REMARK    7  A    between atoms: C_16  and  C_18
REMARK                            x       y       z     vdW  Elec       q    Type
REMARK                         _______ _______ _______ _____ _____    ______ ____
ROOT
ATOM      1  N   UNL     1       4.222   5.431  18.173  0.00  0.00    +0.000 N 
ATOM      2  H   UNL     1       4.606   4.917  18.961  0.00  0.00    +0.000 HD
ENDROOT
BRANCH   1   9
ATOM      3  C   UNL     1       0.616   8.584  21.594  0.00  0.00    +0.000 C 
ATOM      4  C   UNL     1       1.120   8.752  20.185  0.00  0.00    +0.000 C 
ATOM      5  O   UNL     1       0.743   9.709  19.509  0.00  0.00    +0.000 OA
ATOM      6  N   UNL     1       2.019   7.807  19.716  0.00  0.00    +0.000 N 
ATOM      7  C   UNL     1       2.646   8.004  18.410  0.00  0.00    +0.000 C 
ATOM      8  C   UNL     1       2.322   6.838  17.485  0.00  0.00    +0.000 C 
ATOM      9  C   UNL     1       2.744   5.507  18.122  0.00  0.00    +0.000 C 
ATOM     10  C   UNL     1       2.122   5.364  19.516  0.00  0.00    +0.000 C 
ATOM     11  C   UNL     1       2.395   6.574  20.403  0.00  0.00    +0.000 C 
ENDBRANCH   1   9
BRANCH   1  12
ATOM     12  C   UNL     1       4.981   5.182  17.018  0.00  0.00    +0.000 A 
ATOM     13  C   UNL     1       4.823   4.012  16.264  0.00  0.00    +0.000 A 
ATOM     14  C   UNL     1       5.599   3.757  15.142  0.00  0.00    +0.000 A 
ATOM     15  C   UNL     1       6.564   4.682  14.800  0.00  0.00    +0.000 A 
ATOM     16  N   UNL     1       6.797   5.800  15.503  0.00  0.00    +0.000 NA
ATOM     17  C   UNL     1       6.023   6.039  16.594  0.00  0.00    +0.000 A 
BRANCH  17  18
ATOM     18  O   UNL     1       6.251   7.225  17.282  0.00  0.00    +0.000 OA
BRANCH  18  19
ATOM     19  C   UNL     1       7.647   7.467  17.564  0.00  0.00    +0.000 C 
ATOM     20  C   UNL     1       7.952   8.935  17.890  0.00  0.00    +0.000 C 
ATOM     21  C   UNL     1       8.042   6.611  18.770  0.00  0.00    +0.000 C 
ENDBRANCH  18  19
ENDBRANCH  17  18
ENDBRANCH   1  12
TORSDOF 4
ENDMDL
MODEL 9
REMARK VINA RESULT:      -6.3      1.139      2.973
REMARK  Name = 
REMARK  7 active torsions:
REMARK  status: ('A' for Active; 'I' for Inactive)
REMARK    1  A    between atoms: C_1  and  C_2
REMARK    2  A    between atoms: C_7  and  N_8
REMARK    3  A    between atoms: N_8  and  C_9
REMARK    4  A    between atoms: C_14  and  O_15
REMARK    5  A    between atoms: O_15  and  C_16
REMARK    6  A    between atoms: C_16  and  C_17
REMARK    7  A    between atoms: C_16  and  C_18
REMARK                            x       y       z     vdW  Elec       q    Type
REMARK                         _______ _______ _______ _____ _____    ______ ____
ROOT
ATOM      1  N   UNL     1       6.043   3.754  18.375  0.00  0.00    +0.000 N 
ATOM      2  H   UNL     1       6.695   2.973  18.384  0.00  0.00    +0.000 HD
ENDROOT
BRANCH   1   9
ATOM      3  C   UNL     1       1.275   2.699  21.661  0.00  0.00    +0.000 C 
ATOM      4  C   UNL     1       1.742   3.885  20.861  0.00  0.00    +0.000 C 
ATOM      5  O   UNL     1       1.042   4.896  20.798  0.00  0.00    +0.000 OA
ATOM      6  N   UNL     1       2.975   3.784  20.236  0.00  0.00    +0.000 N 
ATOM      7  C   UNL     1       3.536   4.958  19.568  0.00  0.00    +0.000 C 
ATOM      8  C   UNL     1       3.774   4.665  18.092  0.00  0.00    +0.000 C 
ATOM      9  C   UNL     1       4.671   3.431  17.922  0.00  0.00    +0.000 C 
ATOM     10  C   UNL     1       4.088   2.239  18.689  0.00  0.00    +0.000 C 
ATOM     11  C   UNL     1       3.788   2.573  20.146  0.00  0.00    +0.000 C 
ENDBRANCH   1   9
BRANCH   1  12
ATOM     12  C   UNL     1       6.697   4.923  17.953  0.00  0.00    +0.000 A 
ATOM     13  C   UNL     1       6.961   5.984  18.830  0.00  0.00    +0.000 A 
ATOM     14  C   UNL     1       7.579   7.149  18.399  0.00  0.00    +0.000 A 
ATOM     15  C   UNL     1       7.905   7.252  17.063  0.00  0.00    +0.000 A 
ATOM     16  N   UNL     1       7.640   6.294  16.162  0.00  0.00    +0.000 NA
ATOM     17  C   UNL     1       7.043   5.155  16.602  0.00  0.00    +0.000 A 
BRANCH  17  18
ATOM     18  O   UNL     1       6.818   4.157  15.661  0.00  0.00    +0.000 OA
BRANCH  18  19
ATOM     19  C   UNL     1       6.289   4.652  14.412  0.00  0.00    +0.000 C 
ATOM     20  C   UNL     1       6.616   3.747  13.216  0.00  0.00    +0.000 C 
ATOM     21  C   UNL     1       4.768   4.748  14.545  0.00  0.00    +0.000 C 
ENDBRANCH  18  19
ENDBRANCH  17  18
ENDBRANCH   1  12
TORSDOF 4
ENDMDL
