MODEL 1
REMARK VINA RESULT:      -8.4      0.000      0.000
REMARK  Name = 
REMARK  3 active torsions:
REMARK  status: ('A' for Active; 'I' for Inactive)
REMARK    1  A    between atoms: C_4  and  C_5
REMARK    2  A    between atoms: C_5  and  N_6
REMARK    3  A    between atoms: C_5  and  C_14
REMARK                            x       y       z     vdW  Elec       q    Type
REMARK                         _______ _______ _______ _____ _____    ______ ____
ROOT
ATOM      1  C   UNL     1       5.622   4.805  15.983  0.00  0.00    +0.000 C 
ENDROOT
BRANCH   1   2
ATOM      2  N   UNL     1       5.356   3.540  16.731  0.00  0.00    +0.000 NA
ATOM      3  C   UNL     1       4.243   3.424  17.374  0.00  0.00    +0.000 C 
ATOM      4  C   UNL     1       3.092   4.426  17.255  0.00  0.00    +0.000 C 
ATOM      5  C   UNL     1       2.062   4.521  18.361  0.00  0.00    +0.000 C 
ATOM      6  C   UNL     1       1.261   3.241  18.550  0.00  0.00    +0.000 C 
ATOM      7  C   UNL     1       1.934   2.243  19.487  0.00  0.00    +0.000 C 
ATOM      8  C   UNL     1       3.457   2.208  19.438  0.00  0.00    +0.000 C 
ATOM      9  N   UNL     1       3.974   2.264  18.089  0.00  0.00    +0.000 N 
ATOM     10  H   UNL     1       4.151   1.390  17.612  0.00  0.00    +0.000 HD
ENDBRANCH   1   2
BRANCH   1  14
ATOM     11  C   UNL     1       7.108   4.035  11.974  0.00  0.00    +0.000 A 
ATOM     12  C   UNL     1       5.926   3.448  12.414  0.00  0.00    +0.000 A 
ATOM     13  C   UNL     1       5.428   3.765  13.681  0.00  0.00    +0.000 A 
ATOM     14  C   UNL     1       6.129   4.627  14.552  0.00  0.00    +0.000 A 
ATOM     15  C   UNL     1       7.283   5.253  14.070  0.00  0.00    +0.000 A 
ATOM     16  C   UNL     1       7.764   4.960  12.788  0.00  0.00    +0.000 A 
ENDBRANCH   1  14
BRANCH   1  17
ATOM     17  C   UNL     1       6.516   5.709  16.805  0.00  0.00    +0.000 A 
ATOM     18  C   UNL     1       7.424   5.480  17.818  0.00  0.00    +0.000 A 
ATOM     19  C   UNL     1       7.855   6.747  18.266  0.00  0.00    +0.000 A 
ATOM     20  C   UNL     1       7.198   7.674  17.489  0.00  0.00    +0.000 A 
ATOM     21  O   UNL     1       6.384   7.052  16.598  0.00  0.00    +0.000 OA
ENDBRANCH   1  17
TORSDOF 3
ENDMDL
MODEL 2
REMARK VINA RESULT:      -8.2      0.160      1.088
REMARK  Name = 
REMARK  3 active torsions:
REMARK  status: ('A' for Active; 'I' for Inactive)
REMARK    1  A    between atoms: C_4  and  C_5
REMARK    2  A    between atoms: C_5  and  N_6
REMARK    3  A    between atoms: C_5  and  C_14
REMARK                            x       y       z     vdW  Elec       q    Type
REMARK                         _______ _______ _______ _____ _____    ______ ____
ROOT
ATOM      1  C   UNL     1       5.642   4.732  15.911  0.00  0.00    +0.000 C 
ENDROOT
BRANCH   1   2
ATOM      2  N   UNL     1       5.337   3.497  16.696  0.00  0.00    +0.000 NA
ATOM      3  C   UNL     1       4.240   3.451  17.374  0.00  0.00    +0.000 C 
ATOM      4  C   UNL     1       3.137   4.508  17.267  0.00  0.00    +0.000 C 
ATOM      5  C   UNL     1       2.149   4.678  18.401  0.00  0.00    +0.000 C 
ATOM      6  C   UNL     1       1.291   3.444  18.644  0.00  0.00    +0.000 C 
ATOM      7  C   UNL     1       1.942   2.434  19.582  0.00  0.00    +0.000 C 
ATOM      8  C   UNL     1       3.459   2.321  19.488  0.00  0.00    +0.000 C 
ATOM      9  N   UNL     1       3.936   2.322  18.123  0.00  0.00    +0.000 N 
ATOM     10  H   UNL     1       4.054   1.430  17.661  0.00  0.00    +0.000 HD
ENDBRANCH   1   2
BRANCH   1  14
ATOM     11  C   UNL     1       7.199   4.320  11.877  0.00  0.00    +0.000 A 
ATOM     12  C   UNL     1       7.835   5.145  12.799  0.00  0.00    +0.000 A 
ATOM     13  C   UNL     1       7.360   5.209  14.111  0.00  0.00    +0.000 A 
ATOM     14  C   UNL     1       6.210   4.495  14.512  0.00  0.00    +0.000 A 
ATOM     15  C   UNL     1       5.620   3.625  13.589  0.00  0.00    +0.000 A 
ATOM     16  C   UNL     1       6.116   3.537  12.283  0.00  0.00    +0.000 A 
ENDBRANCH   1  14
BRANCH   1  17
ATOM     17  C   UNL     1       6.504   5.663  16.736  0.00  0.00    +0.000 A 
ATOM     18  C   UNL     1       7.421   5.462  17.748  0.00  0.00    +0.000 A 
ATOM     19  C   UNL     1       7.808   6.742  18.199  0.00  0.00    +0.000 A 
ATOM     20  C   UNL     1       7.118   7.649  17.426  0.00  0.00    +0.000 A 
ATOM     21  O   UNL     1       6.326   7.001  16.533  0.00  0.00    +0.000 OA
ENDBRANCH   1  17
TORSDOF 3
ENDMDL
MODEL 3
REMARK VINA RESULT:      -7.6      1.286      4.092
REMARK  Name = 
REMARK  3 active torsions:
REMARK  status: ('A' for Active; 'I' for Inactive)
REMARK    1  A    between atoms: C_4  and  C_5
REMARK    2  A    between atoms: C_5  and  N_6
REMARK    3  A    between atoms: C_5  and  C_14
REMARK                            x       y       z     vdW  Elec       q    Type
REMARK                         _______ _______ _______ _____ _____    ______ ____
ROOT
ATOM      1  C   UNL     1       5.765   4.771  16.810  0.00  0.00    +0.000 C 
ENDROOT
BRANCH   1   2
ATOM      2  N   UNL     1       4.287   4.939  16.952  0.00  0.00    +0.000 NA
ATOM      3  C   UNL     1       3.684   4.322  17.912  0.00  0.00    +0.000 C 
ATOM      4  C   UNL     1       4.420   3.584  19.033  0.00  0.00    +0.000 C 
ATOM      5  C   UNL     1       3.706   2.497  19.810  0.00  0.00    +0.000 C 
ATOM      6  C   UNL     1       2.503   3.005  20.592  0.00  0.00    +0.000 C 
ATOM      7  C   UNL     1       1.219   3.031  19.769  0.00  0.00    +0.000 C 
ATOM      8  C   UNL     1       1.383   3.363  18.290  0.00  0.00    +0.000 C 
ATOM      9  N   UNL     1       2.309   4.450  18.061  0.00  0.00    +0.000 N 
ATOM     10  H   UNL     1       1.936   5.389  18.011  0.00  0.00    +0.000 HD
ENDBRANCH   1   2
BRANCH   1  14
ATOM     11  C   UNL     1       8.315   7.831  18.544  0.00  0.00    +0.000 A 
ATOM     12  C   UNL     1       7.404   8.154  17.542  0.00  0.00    +0.000 A 
ATOM     13  C   UNL     1       6.544   7.170  17.048  0.00  0.00    +0.000 A 
ATOM     14  C   UNL     1       6.615   5.835  17.503  0.00  0.00    +0.000 A 
ATOM     15  C   UNL     1       7.494   5.543  18.551  0.00  0.00    +0.000 A 
ATOM     16  C   UNL     1       8.334   6.537  19.068  0.00  0.00    +0.000 A 
ENDBRANCH   1  14
BRANCH   1  17
ATOM     17  C   UNL     1       6.123   4.604  15.349  0.00  0.00    +0.000 A 
ATOM     18  C   UNL     1       5.553   3.905  14.305  0.00  0.00    +0.000 A 
ATOM     19  C   UNL     1       6.424   4.047  13.203  0.00  0.00    +0.000 A 
ATOM     20  C   UNL     1       7.465   4.838  13.634  0.00  0.00    +0.000 A 
ATOM     21  O   UNL     1       7.289   5.182  14.936  0.00  0.00    +0.000 OA
ENDBRANCH   1  17
TORSDOF 3
ENDMDL
MODEL 4
REMARK VINA RESULT:      -7.5      3.222      6.978
REMARK  Name = 
REMARK  3 active torsions:
REMARK  status: ('A' for Active; 'I' for Inactive)
REMARK    1  A    between atoms: C_4  and  C_5
REMARK    2  A    between atoms: C_5  and  N_6
REMARK    3  A    between atoms: C_5  and  C_14
REMARK                            x       y       z     vdW  Elec       q    Type
REMARK                         _______ _______ _______ _____ _____    ______ ____
ROOT
ATOM      1  C   UNL     1       2.747   5.853  19.174  0.00  0.00    +0.000 C 
ENDROOT
BRANCH   1   2
ATOM      2  N   UNL     1       4.236   5.893  19.289  0.00  0.00    +0.000 NA
ATOM      3  C   UNL     1       4.945   5.571  18.260  0.00  0.00    +0.000 C 
ATOM      4  C   UNL     1       4.352   5.339  16.867  0.00  0.00    +0.000 C 
ATOM      5  C   UNL     1       5.112   4.504  15.858  0.00  0.00    +0.000 C 
ATOM      6  C   UNL     1       6.452   5.107  15.463  0.00  0.00    +0.000 C 
ATOM      7  C   UNL     1       7.589   4.712  16.400  0.00  0.00    +0.000 C 
ATOM      8  C   UNL     1       7.213   4.544  17.867  0.00  0.00    +0.000 C 
ATOM      9  N   UNL     1       6.331   5.587  18.341  0.00  0.00    +0.000 N 
ATOM     10  H   UNL     1       6.748   6.407  18.762  0.00  0.00    +0.000 HD
ENDBRANCH   1   2
BRANCH   1  14
ATOM     11  C   UNL     1       0.941   9.706  20.052  0.00  0.00    +0.000 A 
ATOM     12  C   UNL     1       1.385   9.410  18.767  0.00  0.00    +0.000 A 
ATOM     13  C   UNL     1       1.897   8.140  18.489  0.00  0.00    +0.000 A 
ATOM     14  C   UNL     1       2.029   7.163  19.500  0.00  0.00    +0.000 A 
ATOM     15  C   UNL     1       1.523   7.458  20.770  0.00  0.00    +0.000 A 
ATOM     16  C   UNL     1       0.980   8.719  21.040  0.00  0.00    +0.000 A 
ENDBRANCH   1  14
BRANCH   1  17
ATOM     17  C   UNL     1       2.203   4.683  19.965  0.00  0.00    +0.000 A 
ATOM     18  C   UNL     1       1.076   3.896  19.843  0.00  0.00    +0.000 A 
ATOM     19  C   UNL     1       1.064   3.037  20.962  0.00  0.00    +0.000 A 
ATOM     20  C   UNL     1       2.191   3.337  21.692  0.00  0.00    +0.000 A 
ATOM     21  O   UNL     1       2.890   4.335  21.092  0.00  0.00    +0.000 OA
ENDBRANCH   1  17
TORSDOF 3
ENDMDL
MODEL 5
REMARK VINA RESULT:      -7.5      2.838      6.767
REMARK  Name = 
REMARK  3 active torsions:
REMARK  status: ('A' for Active; 'I' for Inactive)
REMARK    1  A    between atoms: C_4  and  C_5
REMARK    2  A    between atoms: C_5  and  N_6
REMARK    3  A    between atoms: C_5  and  C_14
REMARK                            x       y       z     vdW  Elec       q    Type
REMARK                         _______ _______ _______ _____ _____    ______ ____
ROOT
ATOM      1  C   UNL     1       2.961   6.151  19.360  0.00  0.00    +0.000 C 
ENDROOT
BRANCH   1   2
ATOM      2  N   UNL     1       3.308   6.020  17.913  0.00  0.00    +0.000 NA
ATOM      3  C   UNL     1       4.510   5.676  17.594  0.00  0.00    +0.000 C 
ATOM      4  C   UNL     1       5.550   5.201  18.613  0.00  0.00    +0.000 C 
ATOM      5  C   UNL     1       7.024   5.295  18.280  0.00  0.00    +0.000 C 
ATOM      6  C   UNL     1       7.429   4.436  17.091  0.00  0.00    +0.000 C 
ATOM      7  C   UNL     1       7.250   5.142  15.750  0.00  0.00    +0.000 C 
ATOM      8  C   UNL     1       6.065   6.095  15.655  0.00  0.00    +0.000 C 
ATOM      9  N   UNL     1       4.865   5.558  16.257  0.00  0.00    +0.000 N 
ATOM     10  H   UNL     1       4.226   5.044  15.665  0.00  0.00    +0.000 HD
ENDBRANCH   1   2
BRANCH   1  14
ATOM     11  C   UNL     1       1.207   2.588  21.120  0.00  0.00    +0.000 A 
ATOM     12  C   UNL     1       2.121   3.353  21.837  0.00  0.00    +0.000 A 
ATOM     13  C   UNL     1       2.619   4.534  21.281  0.00  0.00    +0.000 A 
ATOM     14  C   UNL     1       2.259   4.942  19.978  0.00  0.00    +0.000 A 
ATOM     15  C   UNL     1       1.295   4.193  19.297  0.00  0.00    +0.000 A 
ATOM     16  C   UNL     1       0.771   3.027  19.868  0.00  0.00    +0.000 A 
ENDBRANCH   1  14
BRANCH   1  17
ATOM     17  C   UNL     1       2.203   7.441  19.591  0.00  0.00    +0.000 A 
ATOM     18  C   UNL     1       1.525   7.964  20.673  0.00  0.00    +0.000 A 
ATOM     19  C   UNL     1       0.923   9.161  20.230  0.00  0.00    +0.000 A 
ATOM     20  C   UNL     1       1.282   9.308  18.909  0.00  0.00    +0.000 A 
ATOM     21  O   UNL     1       2.062   8.268  18.514  0.00  0.00    +0.000 OA
ENDBRANCH   1  17
TORSDOF 3
ENDMDL
MODEL 6
REMARK VINA RESULT:      -7.5      3.195      6.927
REMARK  Name = 
REMARK  3 active torsions:
REMARK  status: ('A' for Active; 'I' for Inactive)
REMARK    1  A    between atoms: C_4  and  C_5
REMARK    2  A    between atoms: C_5  and  N_6
REMARK    3  A    between atoms: C_5  and  C_14
REMARK                            x       y       z     vdW  Elec       q    Type
REMARK                         _______ _______ _______ _____ _____    ______ ____
ROOT
ATOM      1  C   UNL     1       2.839   5.919  19.061  0.00  0.00    +0.000 C 
ENDROOT
BRANCH   1   2
ATOM      2  N   UNL     1       4.328   5.897  19.172  0.00  0.00    +0.000 NA
ATOM      3  C   UNL     1       5.021   5.578  18.131  0.00  0.00    +0.000 C 
ATOM      4  C   UNL     1       4.417   5.413  16.734  0.00  0.00    +0.000 C 
ATOM      5  C   UNL     1       5.141   4.579  15.698  0.00  0.00    +0.000 C 
ATOM      6  C   UNL     1       6.503   5.141  15.316  0.00  0.00    +0.000 C 
ATOM      7  C   UNL     1       7.626   4.673  16.237  0.00  0.00    +0.000 C 
ATOM      8  C   UNL     1       7.247   4.476  17.700  0.00  0.00    +0.000 C 
ATOM      9  N   UNL     1       6.408   5.538  18.208  0.00  0.00    +0.000 N 
ATOM     10  H   UNL     1       6.857   6.327  18.653  0.00  0.00    +0.000 HD
ENDBRANCH   1   2
BRANCH   1  14
ATOM     11  C   UNL     1       0.730   9.609  19.961  0.00  0.00    +0.000 A 
ATOM     12  C   UNL     1       0.926   8.648  20.948  0.00  0.00    +0.000 A 
ATOM     13  C   UNL     1       1.668   7.501  20.657  0.00  0.00    +0.000 A 
ATOM     14  C   UNL     1       2.179   7.264  19.363  0.00  0.00    +0.000 A 
ATOM     15  C   UNL     1       2.024   8.268  18.400  0.00  0.00    +0.000 A 
ATOM     16  C   UNL     1       1.308   9.432  18.702  0.00  0.00    +0.000 A 
ENDBRANCH   1  14
BRANCH   1  17
ATOM     17  C   UNL     1       2.247   4.789  19.876  0.00  0.00    +0.000 A 
ATOM     18  C   UNL     1       1.097   4.035  19.761  0.00  0.00    +0.000 A 
ATOM     19  C   UNL     1       1.042   3.208  20.903  0.00  0.00    +0.000 A 
ATOM     20  C   UNL     1       2.169   3.493  21.640  0.00  0.00    +0.000 A 
ATOM     21  O   UNL     1       2.908   4.451  21.022  0.00  0.00    +0.000 OA
ENDBRANCH   1  17
TORSDOF 3
ENDMDL
MODEL 7
REMARK VINA RESULT:      -7.5      1.252      4.092
REMARK  Name = 
REMARK  3 active torsions:
REMARK  status: ('A' for Active; 'I' for Inactive)
REMARK    1  A    between atoms: C_4  and  C_5
REMARK    2  A    between atoms: C_5  and  N_6
REMARK    3  A    between atoms: C_5  and  C_14
REMARK                            x       y       z     vdW  Elec       q    Type
REMARK                         _______ _______ _______ _____ _____    ______ ____
ROOT
ATOM      1  C   UNL     1       5.878   4.749  16.533  0.00  0.00    +0.000 C 
ENDROOT
BRANCH   1   2
ATOM      2  N   UNL     1       4.413   4.992  16.693  0.00  0.00    +0.000 NA
ATOM      3  C   UNL     1       3.788   4.395  17.652  0.00  0.00    +0.000 C 
ATOM      4  C   UNL     1       4.495   3.606  18.757  0.00  0.00    +0.000 C 
ATOM      5  C   UNL     1       3.734   2.548  19.528  0.00  0.00    +0.000 C 
ATOM      6  C   UNL     1       2.567   3.108  20.329  0.00  0.00    +0.000 C 
ATOM      7  C   UNL     1       1.278   3.211  19.520  0.00  0.00    +0.000 C 
ATOM      8  C   UNL     1       1.445   3.552  18.044  0.00  0.00    +0.000 C 
ATOM      9  N   UNL     1       2.423   4.592  17.818  0.00  0.00    +0.000 N 
ATOM     10  H   UNL     1       2.099   5.550  17.783  0.00  0.00    +0.000 HD
ENDBRANCH   1   2
BRANCH   1  14
ATOM     11  C   UNL     1       8.316   7.590  18.738  0.00  0.00    +0.000 A 
ATOM     12  C   UNL     1       8.282   6.250  19.110  0.00  0.00    +0.000 A 
ATOM     13  C   UNL     1       7.548   5.340  18.345  0.00  0.00    +0.000 A 
ATOM     14  C   UNL     1       6.790   5.759  17.231  0.00  0.00    +0.000 A 
ATOM     15  C   UNL     1       6.884   7.097  16.837  0.00  0.00    +0.000 A 
ATOM     16  C   UNL     1       7.646   8.003  17.585  0.00  0.00    +0.000 A 
ENDBRANCH   1  14
BRANCH   1  17
ATOM     17  C   UNL     1       6.213   4.583  15.067  0.00  0.00    +0.000 A 
ATOM     18  C   UNL     1       5.641   3.864  14.037  0.00  0.00    +0.000 A 
ATOM     19  C   UNL     1       6.487   4.022  12.919  0.00  0.00    +0.000 A 
ATOM     20  C   UNL     1       7.515   4.841  13.325  0.00  0.00    +0.000 A 
ATOM     21  O   UNL     1       7.356   5.188  14.629  0.00  0.00    +0.000 OA
ENDBRANCH   1  17
TORSDOF 3
ENDMDL
MODEL 8
REMARK VINA RESULT:      -7.4      0.944      1.567
REMARK  Name = 
REMARK  3 active torsions:
REMARK  status: ('A' for Active; 'I' for Inactive)
REMARK    1  A    between atoms: C_4  and  C_5
REMARK    2  A    between atoms: C_5  and  N_6
REMARK    3  A    between atoms: C_5  and  C_14
REMARK                            x       y       z     vdW  Elec       q    Type
REMARK                         _______ _______ _______ _____ _____    ______ ____
ROOT
ATOM      1  C   UNL     1       5.547   5.078  16.820  0.00  0.00    +0.000 C 
ENDROOT
BRANCH   1   2
ATOM      2  N   UNL     1       5.348   3.954  17.784  0.00  0.00    +0.000 NA
ATOM      3  C   UNL     1       4.147   3.663  18.155  0.00  0.00    +0.000 C 
ATOM      4  C   UNL     1       2.896   4.272  17.516  0.00  0.00    +0.000 C 
ATOM      5  C   UNL     1       1.593   4.291  18.288  0.00  0.00    +0.000 C 
ATOM      6  C   UNL     1       1.060   2.901  18.606  0.00  0.00    +0.000 C 
ATOM      7  C   UNL     1       1.627   2.321  19.898  0.00  0.00    +0.000 C 
ATOM      8  C   UNL     1       3.069   2.695  20.218  0.00  0.00    +0.000 C 
ATOM      9  N   UNL     1       3.932   2.632  19.060  0.00  0.00    +0.000 N 
ATOM     10  H   UNL     1       4.422   1.765  18.879  0.00  0.00    +0.000 HD
ENDBRANCH   1   2
BRANCH   1  14
ATOM     11  C   UNL     1       6.706   4.166  12.733  0.00  0.00    +0.000 A 
ATOM     12  C   UNL     1       7.575   4.847  13.579  0.00  0.00    +0.000 A 
ATOM     13  C   UNL     1       7.212   5.068  14.910  0.00  0.00    +0.000 A 
ATOM     14  C   UNL     1       5.953   4.664  15.405  0.00  0.00    +0.000 A 
ATOM     15  C   UNL     1       5.118   3.929  14.558  0.00  0.00    +0.000 A 
ATOM     16  C   UNL     1       5.496   3.679  13.234  0.00  0.00    +0.000 A 
ENDBRANCH   1  14
BRANCH   1  17
ATOM     17  C   UNL     1       6.486   6.104  17.415  0.00  0.00    +0.000 A 
ATOM     18  C   UNL     1       6.756   7.426  17.125  0.00  0.00    +0.000 A 
ATOM     19  C   UNL     1       7.825   7.811  17.963  0.00  0.00    +0.000 A 
ATOM     20  C   UNL     1       8.134   6.708  18.726  0.00  0.00    +0.000 A 
ATOM     21  O   UNL     1       7.324   5.667  18.400  0.00  0.00    +0.000 OA
ENDBRANCH   1  17
TORSDOF 3
ENDMDL
MODEL 9
REMARK VINA RESULT:      -7.2      2.880      6.756
REMARK  Name = 
REMARK  3 active torsions:
REMARK  status: ('A' for Active; 'I' for Inactive)
REMARK    1  A    between atoms: C_4  and  C_5
REMARK    2  A    between atoms: C_5  and  N_6
REMARK    3  A    between atoms: C_5  and  C_14
REMARK                            x       y       z     vdW  Elec       q    Type
REMARK                         _______ _______ _______ _____ _____    ______ ____
ROOT
ATOM      1  C   UNL     1       2.994   6.177  19.476  0.00  0.00    +0.000 C 
ENDROOT
BRANCH   1   2
ATOM      2  N   UNL     1       3.305   6.141  18.015  0.00  0.00    +0.000 NA
ATOM      3  C   UNL     1       4.483   5.765  17.643  0.00  0.00    +0.000 C 
ATOM      4  C   UNL     1       5.517   5.164  18.598  0.00  0.00    +0.000 C 
ATOM      5  C   UNL     1       6.987   5.213  18.239  0.00  0.00    +0.000 C 
ATOM      6  C   UNL     1       7.326   4.430  16.978  0.00  0.00    +0.000 C 
ATOM      7  C   UNL     1       7.156   5.245  15.700  0.00  0.00    +0.000 C 
ATOM      8  C   UNL     1       6.018   6.259  15.705  0.00  0.00    +0.000 C 
ATOM      9  N   UNL     1       4.805   5.734  16.292  0.00  0.00    +0.000 N 
ATOM     10  H   UNL     1       4.129   5.299  15.678  0.00  0.00    +0.000 HD
ENDBRANCH   1   2
BRANCH   1  14
ATOM     11  C   UNL     1       1.024   2.660  21.097  0.00  0.00    +0.000 A 
ATOM     12  C   UNL     1       0.743   3.096  19.806  0.00  0.00    +0.000 A 
ATOM     13  C   UNL     1       1.439   4.186  19.278  0.00  0.00    +0.000 A 
ATOM     14  C   UNL     1       2.386   4.896  20.047  0.00  0.00    +0.000 A 
ATOM     15  C   UNL     1       2.699   4.408  21.320  0.00  0.00    +0.000 A 
ATOM     16  C   UNL     1       2.024   3.295  21.837  0.00  0.00    +0.000 A 
ENDBRANCH   1  14
BRANCH   1  17
ATOM     17  C   UNL     1       2.165   7.403  19.794  0.00  0.00    +0.000 A 
ATOM     18  C   UNL     1       1.414   7.784  20.887  0.00  0.00    +0.000 A 
ATOM     19  C   UNL     1       0.776   8.993  20.534  0.00  0.00    +0.000 A 
ATOM     20  C   UNL     1       1.188   9.287  19.254  0.00  0.00    +0.000 A 
ATOM     21  O   UNL     1       2.034   8.327  18.797  0.00  0.00    +0.000 OA
ENDBRANCH   1  17
TORSDOF 3
ENDMDL
