MODEL 1
REMARK VINA RESULT:      -8.4      0.000      0.000
REMARK  Name = 
REMARK  9 active torsions:
REMARK  status: ('A' for Active; 'I' for Inactive)
REMARK    1  A    between atoms: C_1  and  O_2
REMARK    2  A    between atoms: O_2  and  C_3
REMARK    3  A    between atoms: C_4  and  O_5
REMARK    4  A    between atoms: O_5  and  C_6
REMARK    5  A    between atoms: C_6  and  C_7
REMARK    6  A    between atoms: C_10  and  C_11
REMARK    7  A    between atoms: C_16  and  C_17
REMARK    8  A    between atoms: C_25  and  C_26
REMARK    9  A    between atoms: C_28  and  C_29
REMARK                            x       y       z     vdW  Elec       q    Type
REMARK                         _______ _______ _______ _____ _____    ______ ____
ROOT
ATOM      1  C   UNL     1       2.432   7.272  19.366  0.00  0.00    +0.000 A 
ATOM      2  C   UNL     1       2.744   7.929  18.176  0.00  0.00    +0.000 A 
ATOM      3  C   UNL     1       3.679   7.391  17.285  0.00  0.00    +0.000 A 
ATOM      4  C   UNL     1       4.274   6.137  17.500  0.00  0.00    +0.000 A 
ATOM      5  C   UNL     1       3.965   5.497  18.716  0.00  0.00    +0.000 A 
ATOM      6  C   UNL     1       3.068   6.056  19.638  0.00  0.00    +0.000 A 
ENDROOT
BRANCH   4   7
ATOM      7  C   UNL     1       5.186   5.510  16.498  0.00  0.00    +0.000 A 
ATOM      8  C   UNL     1       4.622   4.680  15.497  0.00  0.00    +0.000 A 
ATOM      9  C   UNL     1       5.399   4.037  14.528  0.00  0.00    +0.000 A 
ATOM     10  C   UNL     1       6.777   4.181  14.540  0.00  0.00    +0.000 A 
ATOM     11  C   UNL     1       7.371   4.983  15.510  0.00  0.00    +0.000 A 
ATOM     12  C   UNL     1       6.600   5.671  16.477  0.00  0.00    +0.000 A 
BRANCH  12  13
ATOM     13  C   UNL     1       7.334   6.534  17.398  0.00  0.00    +0.000 A 
ATOM     14  N   UNL     1       7.588   7.866  17.167  0.00  0.00    +0.000 NA
ATOM     15  N   UNL     1       8.234   8.327  18.228  0.00  0.00    +0.000 NA
ATOM     16  N   UNL     1       8.377   7.263  19.022  0.00  0.00    +0.000 N 
ATOM     17  N   UNL     1       7.853   6.115  18.570  0.00  0.00    +0.000 NA
ATOM     18  H   UNL     1       8.855   7.327  19.915  0.00  0.00    +0.000 HD
ENDBRANCH  12  13
ENDBRANCH   4   7
BRANCH   1  19
ATOM     19  C   UNL     1       1.424   7.860  20.325  0.00  0.00    +0.000 C 
BRANCH  19  20
ATOM     20  O   UNL     1       1.527   9.283  20.423  0.00  0.00    +0.000 OA
BRANCH  20  22
ATOM     21  C   UNL     1      -0.152  10.738  21.305  0.00  0.00    +0.000 A 
ATOM     22  C   UNL     1       0.409  10.049  20.218  0.00  0.00    +0.000 A 
ATOM     23  C   UNL     1      -0.151  10.215  18.948  0.00  0.00    +0.000 A 
ATOM     24  C   UNL     1      -1.283  11.007  18.797  0.00  0.00    +0.000 A 
ATOM     25  C   UNL     1      -1.917  11.205  17.453  0.00  0.00    +0.000 C 
ATOM     26  N   UNL     1      -1.867  11.640  19.836  0.00  0.00    +0.000 NA
ATOM     27  C   UNL     1      -1.307  11.499  21.064  0.00  0.00    +0.000 A 
ATOM     28  C   UNL     1      -1.993  12.233  22.182  0.00  0.00    +0.000 C 
BRANCH  21  30
ATOM     29  C   UNL     1      -0.034   9.557  23.375  0.00  0.00    +0.000 C 
ATOM     30  O   UNL     1       0.277  10.712  22.607  0.00  0.00    +0.000 OA
ENDBRANCH  21  30
ENDBRANCH  20  22
ENDBRANCH  19  20
ENDBRANCH   1  19
TORSDOF 6
ENDMDL
MODEL 2
REMARK VINA RESULT:      -8.4      3.005      3.787
REMARK  Name = 
REMARK  9 active torsions:
REMARK  status: ('A' for Active; 'I' for Inactive)
REMARK    1  A    between atoms: C_1  and  O_2
REMARK    2  A    between atoms: O_2  and  C_3
REMARK    3  A    between atoms: C_4  and  O_5
REMARK    4  A    between atoms: O_5  and  C_6
REMARK    5  A    between atoms: C_6  and  C_7
REMARK    6  A    between atoms: C_10  and  C_11
REMARK    7  A    between atoms: C_16  and  C_17
REMARK    8  A    between atoms: C_25  and  C_26
REMARK    9  A    between atoms: C_28  and  C_29
REMARK                            x       y       z     vdW  Elec       q    Type
REMARK                         _______ _______ _______ _____ _____    ______ ____
ROOT
ATOM      1  C   UNL     1       1.478   8.688  19.378  0.00  0.00    +0.000 A 
ATOM      2  C   UNL     1       1.952   8.962  18.094  0.00  0.00    +0.000 A 
ATOM      3  C   UNL     1       2.879   8.115  17.477  0.00  0.00    +0.000 A 
ATOM      4  C   UNL     1       3.304   6.917  18.076  0.00  0.00    +0.000 A 
ATOM      5  C   UNL     1       2.834   6.667  19.379  0.00  0.00    +0.000 A 
ATOM      6  C   UNL     1       1.945   7.539  20.025  0.00  0.00    +0.000 A 
ENDROOT
BRANCH   4   7
ATOM      7  C   UNL     1       4.206   5.957  17.374  0.00  0.00    +0.000 A 
ATOM      8  C   UNL     1       5.370   6.461  16.742  0.00  0.00    +0.000 A 
ATOM      9  C   UNL     1       6.263   5.640  16.046  0.00  0.00    +0.000 A 
ATOM     10  C   UNL     1       6.010   4.282  15.934  0.00  0.00    +0.000 A 
ATOM     11  C   UNL     1       4.874   3.747  16.537  0.00  0.00    +0.000 A 
ATOM     12  C   UNL     1       3.978   4.555  17.275  0.00  0.00    +0.000 A 
BRANCH  12  13
ATOM     13  C   UNL     1       2.861   3.866  17.915  0.00  0.00    +0.000 A 
ATOM     14  N   UNL     1       1.575   3.866  17.426  0.00  0.00    +0.000 NA
ATOM     15  N   UNL     1       0.852   3.109  18.239  0.00  0.00    +0.000 NA
ATOM     16  N   UNL     1       1.706   2.726  19.190  0.00  0.00    +0.000 N 
ATOM     17  N   UNL     1       2.967   3.163  19.061  0.00  0.00    +0.000 NA
ATOM     18  H   UNL     1       1.413   2.138  19.963  0.00  0.00    +0.000 HD
ENDBRANCH  12  13
ENDBRANCH   4   7
BRANCH   1  19
ATOM     19  C   UNL     1       0.480   9.608  20.040  0.00  0.00    +0.000 C 
BRANCH  19  20
ATOM     20  O   UNL     1       0.159  10.742  19.228  0.00  0.00    +0.000 OA
BRANCH  20  22
ATOM     21  C   UNL     1      -2.079  11.578  19.315  0.00  0.00    +0.000 A 
ATOM     22  C   UNL     1      -1.088  10.826  18.664  0.00  0.00    +0.000 A 
ATOM     23  C   UNL     1      -1.382  10.240  17.429  0.00  0.00    +0.000 A 
ATOM     24  C   UNL     1      -2.662  10.362  16.902  0.00  0.00    +0.000 A 
ATOM     25  C   UNL     1      -3.019   9.743  15.584  0.00  0.00    +0.000 C 
ATOM     26  N   UNL     1      -3.644  11.040  17.532  0.00  0.00    +0.000 NA
ATOM     27  C   UNL     1      -3.349  11.631  18.719  0.00  0.00    +0.000 A 
ATOM     28  C   UNL     1      -4.477  12.378  19.372  0.00  0.00    +0.000 C 
BRANCH  21  30
ATOM     29  C   UNL     1      -1.282  13.487  20.504  0.00  0.00    +0.000 C 
ATOM     30  O   UNL     1      -1.960  12.238  20.511  0.00  0.00    +0.000 OA
ENDBRANCH  21  30
ENDBRANCH  20  22
ENDBRANCH  19  20
ENDBRANCH   1  19
TORSDOF 6
ENDMDL
MODEL 3
REMARK VINA RESULT:      -8.4      2.900      3.747
REMARK  Name = 
REMARK  9 active torsions:
REMARK  status: ('A' for Active; 'I' for Inactive)
REMARK    1  A    between atoms: C_1  and  O_2
REMARK    2  A    between atoms: O_2  and  C_3
REMARK    3  A    between atoms: C_4  and  O_5
REMARK    4  A    between atoms: O_5  and  C_6
REMARK    5  A    between atoms: C_6  and  C_7
REMARK    6  A    between atoms: C_10  and  C_11
REMARK    7  A    between atoms: C_16  and  C_17
REMARK    8  A    between atoms: C_25  and  C_26
REMARK    9  A    between atoms: C_28  and  C_29
REMARK                            x       y       z     vdW  Elec       q    Type
REMARK                         _______ _______ _______ _____ _____    ______ ____
ROOT
ATOM      1  C   UNL     1       1.443   8.604  19.798  0.00  0.00    +0.000 A 
ATOM      2  C   UNL     1       1.864   7.382  20.322  0.00  0.00    +0.000 A 
ATOM      3  C   UNL     1       2.614   6.491  19.546  0.00  0.00    +0.000 A 
ATOM      4  C   UNL     1       3.049   6.818  18.251  0.00  0.00    +0.000 A 
ATOM      5  C   UNL     1       2.597   8.045  17.729  0.00  0.00    +0.000 A 
ATOM      6  C   UNL     1       1.800   8.920  18.483  0.00  0.00    +0.000 A 
ENDROOT
BRANCH   4   7
ATOM      7  C   UNL     1       3.942   5.917  17.463  0.00  0.00    +0.000 A 
ATOM      8  C   UNL     1       5.044   6.488  16.778  0.00  0.00    +0.000 A 
ATOM      9  C   UNL     1       5.923   5.725  16.002  0.00  0.00    +0.000 A 
ATOM     10  C   UNL     1       5.717   4.362  15.863  0.00  0.00    +0.000 A 
ATOM     11  C   UNL     1       4.644   3.763  16.516  0.00  0.00    +0.000 A 
ATOM     12  C   UNL     1       3.764   4.511  17.334  0.00  0.00    +0.000 A 
BRANCH  12  13
ATOM     13  C   UNL     1       2.718   3.757  18.018  0.00  0.00    +0.000 A 
ATOM     14  N   UNL     1       2.920   3.031  19.170  0.00  0.00    +0.000 NA
ATOM     15  N   UNL     1       1.747   2.523  19.518  0.00  0.00    +0.000 NA
ATOM     16  N   UNL     1       0.910   2.921  18.558  0.00  0.00    +0.000 N 
ATOM     17  N   UNL     1       1.441   3.681  17.590  0.00  0.00    +0.000 NA
ATOM     18  H   UNL     1      -0.071   2.661  18.566  0.00  0.00    +0.000 HD
ENDBRANCH  12  13
ENDBRANCH   4   7
BRANCH   1  19
ATOM     19  C   UNL     1       0.631   9.560  20.639  0.00  0.00    +0.000 C 
BRANCH  19  20
ATOM     20  O   UNL     1       0.400  10.809  19.980  0.00  0.00    +0.000 OA
BRANCH  20  22
ATOM     21  C   UNL     1      -1.616  12.048  20.320  0.00  0.00    +0.000 A 
ATOM     22  C   UNL     1      -0.871  11.123  19.572  0.00  0.00    +0.000 A 
ATOM     23  C   UNL     1      -1.421  10.598  18.399  0.00  0.00    +0.000 A 
ATOM     24  C   UNL     1      -2.713  10.955  18.030  0.00  0.00    +0.000 A 
ATOM     25  C   UNL     1      -3.341  10.409  16.783  0.00  0.00    +0.000 C 
ATOM     26  N   UNL     1      -3.465  11.806  18.759  0.00  0.00    +0.000 NA
ATOM     27  C   UNL     1      -2.920  12.335  19.884  0.00  0.00    +0.000 A 
ATOM     28  C   UNL     1      -3.798  13.282  20.652  0.00  0.00    +0.000 C 
BRANCH  21  30
ATOM     29  C   UNL     1      -1.317  11.937  22.684  0.00  0.00    +0.000 C 
ATOM     30  O   UNL     1      -1.228  12.678  21.474  0.00  0.00    +0.000 OA
ENDBRANCH  21  30
ENDBRANCH  20  22
ENDBRANCH  19  20
ENDBRANCH   1  19
TORSDOF 6
ENDMDL
MODEL 4
REMARK VINA RESULT:      -8.2      2.369      3.095
REMARK  Name = 
REMARK  9 active torsions:
REMARK  status: ('A' for Active; 'I' for Inactive)
REMARK    1  A    between atoms: C_1  and  O_2
REMARK    2  A    between atoms: O_2  and  C_3
REMARK    3  A    between atoms: C_4  and  O_5
REMARK    4  A    between atoms: O_5  and  C_6
REMARK    5  A    between atoms: C_6  and  C_7
REMARK    6  A    between atoms: C_10  and  C_11
REMARK    7  A    between atoms: C_16  and  C_17
REMARK    8  A    between atoms: C_25  and  C_26
REMARK    9  A    between atoms: C_28  and  C_29
REMARK                            x       y       z     vdW  Elec       q    Type
REMARK                         _______ _______ _______ _____ _____    ______ ____
ROOT
ATOM      1  C   UNL     1       1.821   8.817  19.023  0.00  0.00    +0.000 A 
ATOM      2  C   UNL     1       2.171   8.276  17.785  0.00  0.00    +0.000 A 
ATOM      3  C   UNL     1       2.508   6.924  17.665  0.00  0.00    +0.000 A 
ATOM      4  C   UNL     1       2.425   6.038  18.752  0.00  0.00    +0.000 A 
ATOM      5  C   UNL     1       2.092   6.604  19.997  0.00  0.00    +0.000 A 
ATOM      6  C   UNL     1       1.804   7.970  20.136  0.00  0.00    +0.000 A 
ENDROOT
BRANCH   4   7
ATOM      7  C   UNL     1       2.675   4.574  18.602  0.00  0.00    +0.000 A 
ATOM      8  C   UNL     1       1.563   3.712  18.426  0.00  0.00    +0.000 A 
ATOM      9  C   UNL     1       1.700   2.326  18.294  0.00  0.00    +0.000 A 
ATOM     10  C   UNL     1       2.956   1.746  18.360  0.00  0.00    +0.000 A 
ATOM     11  C   UNL     1       4.074   2.557  18.537  0.00  0.00    +0.000 A 
ATOM     12  C   UNL     1       3.961   3.964  18.636  0.00  0.00    +0.000 A 
BRANCH  12  13
ATOM     13  C   UNL     1       5.211   4.708  18.752  0.00  0.00    +0.000 A 
ATOM     14  N   UNL     1       5.950   4.796  19.909  0.00  0.00    +0.000 NA
ATOM     15  N   UNL     1       7.030   5.510  19.626  0.00  0.00    +0.000 NA
ATOM     16  N   UNL     1       6.879   5.852  18.345  0.00  0.00    +0.000 N 
ATOM     17  N   UNL     1       5.773   5.400  17.739  0.00  0.00    +0.000 NA
ATOM     18  H   UNL     1       7.567   6.422  17.862  0.00  0.00    +0.000 HD
ENDBRANCH  12  13
ENDBRANCH   4   7
BRANCH   1  19
ATOM     19  C   UNL     1       1.462  10.279  19.148  0.00  0.00    +0.000 C 
BRANCH  19  20
ATOM     20  O   UNL     1       0.315  10.492  19.975  0.00  0.00    +0.000 OA
BRANCH  20  22
ATOM     21  C   UNL     1      -1.733  11.718  20.105  0.00  0.00    +0.000 A 
ATOM     22  C   UNL     1      -0.866  10.874  19.393  0.00  0.00    +0.000 A 
ATOM     23  C   UNL     1      -1.202  10.500  18.089  0.00  0.00    +0.000 A 
ATOM     24  C   UNL     1      -2.411  10.920  17.547  0.00  0.00    +0.000 A 
ATOM     25  C   UNL     1      -2.810  10.535  16.154  0.00  0.00    +0.000 C 
ATOM     26  N   UNL     1      -3.281  11.692  18.230  0.00  0.00    +0.000 NA
ATOM     27  C   UNL     1      -2.942  12.076  19.487  0.00  0.00    +0.000 A 
ATOM     28  C   UNL     1      -3.944  12.941  20.198  0.00  0.00    +0.000 C 
BRANCH  21  30
ATOM     29  C   UNL     1      -0.546  13.185  21.565  0.00  0.00    +0.000 C 
ATOM     30  O   UNL     1      -1.554  12.201  21.376  0.00  0.00    +0.000 OA
ENDBRANCH  21  30
ENDBRANCH  20  22
ENDBRANCH  19  20
ENDBRANCH   1  19
TORSDOF 6
ENDMDL
MODEL 5
REMARK VINA RESULT:      -8.1      2.754      3.967
REMARK  Name = 
REMARK  9 active torsions:
REMARK  status: ('A' for Active; 'I' for Inactive)
REMARK    1  A    between atoms: C_1  and  O_2
REMARK    2  A    between atoms: O_2  and  C_3
REMARK    3  A    between atoms: C_4  and  O_5
REMARK    4  A    between atoms: O_5  and  C_6
REMARK    5  A    between atoms: C_6  and  C_7
REMARK    6  A    between atoms: C_10  and  C_11
REMARK    7  A    between atoms: C_16  and  C_17
REMARK    8  A    between atoms: C_25  and  C_26
REMARK    9  A    between atoms: C_28  and  C_29
REMARK                            x       y       z     vdW  Elec       q    Type
REMARK                         _______ _______ _______ _____ _____    ______ ____
ROOT
ATOM      1  C   UNL     1       1.964   8.669  18.659  0.00  0.00    +0.000 A 
ATOM      2  C   UNL     1       2.355   7.638  17.803  0.00  0.00    +0.000 A 
ATOM      3  C   UNL     1       2.556   6.342  18.289  0.00  0.00    +0.000 A 
ATOM      4  C   UNL     1       2.292   6.001  19.626  0.00  0.00    +0.000 A 
ATOM      5  C   UNL     1       1.921   7.056  20.481  0.00  0.00    +0.000 A 
ATOM      6  C   UNL     1       1.768   8.369  20.011  0.00  0.00    +0.000 A 
ENDROOT
BRANCH   4   7
ATOM      7  C   UNL     1       2.398   4.596  20.121  0.00  0.00    +0.000 A 
ATOM      8  C   UNL     1       1.306   4.047  20.839  0.00  0.00    +0.000 A 
ATOM      9  C   UNL     1       1.322   2.747  21.355  0.00  0.00    +0.000 A 
ATOM     10  C   UNL     1       2.447   1.954  21.194  0.00  0.00    +0.000 A 
ATOM     11  C   UNL     1       3.543   2.457  20.500  0.00  0.00    +0.000 A 
ATOM     12  C   UNL     1       3.533   3.756  19.939  0.00  0.00    +0.000 A 
BRANCH  12  13
ATOM     13  C   UNL     1       4.717   4.143  19.177  0.00  0.00    +0.000 A 
ATOM     14  N   UNL     1       5.762   4.871  19.697  0.00  0.00    +0.000 NA
ATOM     15  N   UNL     1       6.666   4.992  18.735  0.00  0.00    +0.000 NA
ATOM     16  N   UNL     1       6.119   4.380  17.682  0.00  0.00    +0.000 N 
ATOM     17  N   UNL     1       4.909   3.838  17.877  0.00  0.00    +0.000 NA
ATOM     18  H   UNL     1       6.597   4.331  16.788  0.00  0.00    +0.000 HD
ENDBRANCH  12  13
ENDBRANCH   4   7
BRANCH   1  19
ATOM     19  C   UNL     1       1.752  10.067  18.129  0.00  0.00    +0.000 C 
BRANCH  19  20
ATOM     20  O   UNL     1       0.992  10.883  19.026  0.00  0.00    +0.000 OA
BRANCH  20  22
ATOM     21  C   UNL     1      -1.083  11.896  19.645  0.00  0.00    +0.000 A 
ATOM     22  C   UNL     1      -0.357  11.020  18.823  0.00  0.00    +0.000 A 
ATOM     23  C   UNL     1      -1.018  10.363  17.781  0.00  0.00    +0.000 A 
ATOM     24  C   UNL     1      -2.386  10.542  17.618  0.00  0.00    +0.000 A 
ATOM     25  C   UNL     1      -3.133   9.850  16.517  0.00  0.00    +0.000 C 
ATOM     26  N   UNL     1      -3.113  11.341  18.426  0.00  0.00    +0.000 NA
ATOM     27  C   UNL     1      -2.465  11.999  19.421  0.00  0.00    +0.000 A 
ATOM     28  C   UNL     1      -3.322  12.882  20.285  0.00  0.00    +0.000 C 
BRANCH  21  30
ATOM     29  C   UNL     1       0.121  13.822  20.376  0.00  0.00    +0.000 C 
ATOM     30  O   UNL     1      -0.597  12.636  20.691  0.00  0.00    +0.000 OA
ENDBRANCH  21  30
ENDBRANCH  20  22
ENDBRANCH  19  20
ENDBRANCH   1  19
TORSDOF 6
ENDMDL
MODEL 6
REMARK VINA RESULT:      -8.0      2.818      3.374
REMARK  Name = 
REMARK  9 active torsions:
REMARK  status: ('A' for Active; 'I' for Inactive)
REMARK    1  A    between atoms: C_1  and  O_2
REMARK    2  A    between atoms: O_2  and  C_3
REMARK    3  A    between atoms: C_4  and  O_5
REMARK    4  A    between atoms: O_5  and  C_6
REMARK    5  A    between atoms: C_6  and  C_7
REMARK    6  A    between atoms: C_10  and  C_11
REMARK    7  A    between atoms: C_16  and  C_17
REMARK    8  A    between atoms: C_25  and  C_26
REMARK    9  A    between atoms: C_28  and  C_29
REMARK                            x       y       z     vdW  Elec       q    Type
REMARK                         _______ _______ _______ _____ _____    ______ ____
ROOT
ATOM      1  C   UNL     1       1.936   7.898  19.685  0.00  0.00    +0.000 A 
ATOM      2  C   UNL     1       2.276   8.341  18.406  0.00  0.00    +0.000 A 
ATOM      3  C   UNL     1       3.160   7.609  17.606  0.00  0.00    +0.000 A 
ATOM      4  C   UNL     1       3.672   6.365  18.011  0.00  0.00    +0.000 A 
ATOM      5  C   UNL     1       3.338   5.943  19.312  0.00  0.00    +0.000 A 
ATOM      6  C   UNL     1       2.493   6.698  20.140  0.00  0.00    +0.000 A 
ENDROOT
BRANCH   4   7
ATOM      7  C   UNL     1       4.526   5.530  17.115  0.00  0.00    +0.000 A 
ATOM      8  C   UNL     1       5.618   6.147  16.455  0.00  0.00    +0.000 A 
ATOM      9  C   UNL     1       6.462   5.448  15.585  0.00  0.00    +0.000 A 
ATOM     10  C   UNL     1       6.227   4.109  15.321  0.00  0.00    +0.000 A 
ATOM     11  C   UNL     1       5.161   3.467  15.946  0.00  0.00    +0.000 A 
ATOM     12  C   UNL     1       4.318   4.146  16.857  0.00  0.00    +0.000 A 
BRANCH  12  13
ATOM     13  C   UNL     1       3.277   3.347  17.497  0.00  0.00    +0.000 A 
ATOM     14  N   UNL     1       1.930   3.517  17.275  0.00  0.00    +0.000 NA
ATOM     15  N   UNL     1       1.300   2.594  17.987  0.00  0.00    +0.000 NA
ATOM     16  N   UNL     1       2.273   1.945  18.631  0.00  0.00    +0.000 N 
ATOM     17  N   UNL     1       3.524   2.361  18.384  0.00  0.00    +0.000 NA
ATOM     18  H   UNL     1       2.072   1.181  19.268  0.00  0.00    +0.000 HD
ENDBRANCH  12  13
ENDBRANCH   4   7
BRANCH   1  19
ATOM     19  C   UNL     1       0.984   8.694  20.545  0.00  0.00    +0.000 C 
BRANCH  19  20
ATOM     20  O   UNL     1       0.965  10.082  20.200  0.00  0.00    +0.000 OA
BRANCH  20  22
ATOM     21  C   UNL     1      -0.618  11.860  20.414  0.00  0.00    +0.000 A 
ATOM     22  C   UNL     1      -0.216  10.658  19.811  0.00  0.00    +0.000 A 
ATOM     23  C   UNL     1      -1.000  10.118  18.787  0.00  0.00    +0.000 A 
ATOM     24  C   UNL     1      -2.187  10.746  18.430  0.00  0.00    +0.000 A 
ATOM     25  C   UNL     1      -3.058  10.195  17.341  0.00  0.00    +0.000 C 
ATOM     26  N   UNL     1      -2.617  11.876  19.029  0.00  0.00    +0.000 NA
ATOM     27  C   UNL     1      -1.842  12.414  20.005  0.00  0.00    +0.000 A 
ATOM     28  C   UNL     1      -2.365  13.676  20.632  0.00  0.00    +0.000 C 
BRANCH  21  30
ATOM     29  C   UNL     1       1.120  13.375  21.028  0.00  0.00    +0.000 C 
ATOM     30  O   UNL     1       0.034  12.540  21.410  0.00  0.00    +0.000 OA
ENDBRANCH  21  30
ENDBRANCH  20  22
ENDBRANCH  19  20
ENDBRANCH   1  19
TORSDOF 6
ENDMDL
MODEL 7
REMARK VINA RESULT:      -8.0      1.953      2.928
REMARK  Name = 
REMARK  9 active torsions:
REMARK  status: ('A' for Active; 'I' for Inactive)
REMARK    1  A    between atoms: C_1  and  O_2
REMARK    2  A    between atoms: O_2  and  C_3
REMARK    3  A    between atoms: C_4  and  O_5
REMARK    4  A    between atoms: O_5  and  C_6
REMARK    5  A    between atoms: C_6  and  C_7
REMARK    6  A    between atoms: C_10  and  C_11
REMARK    7  A    between atoms: C_16  and  C_17
REMARK    8  A    between atoms: C_25  and  C_26
REMARK    9  A    between atoms: C_28  and  C_29
REMARK                            x       y       z     vdW  Elec       q    Type
REMARK                         _______ _______ _______ _____ _____    ______ ____
ROOT
ATOM      1  C   UNL     1       1.594   9.216  19.108  0.00  0.00    +0.000 A 
ATOM      2  C   UNL     1       1.856   8.815  17.798  0.00  0.00    +0.000 A 
ATOM      3  C   UNL     1       2.246   7.502  17.516  0.00  0.00    +0.000 A 
ATOM      4  C   UNL     1       2.306   6.514  18.513  0.00  0.00    +0.000 A 
ATOM      5  C   UNL     1       2.060   6.939  19.832  0.00  0.00    +0.000 A 
ATOM      6  C   UNL     1       1.719   8.268  20.129  0.00  0.00    +0.000 A 
ENDROOT
BRANCH   4   7
ATOM      7  C   UNL     1       2.613   5.087  18.198  0.00  0.00    +0.000 A 
ATOM      8  C   UNL     1       1.618   4.109  18.451  0.00  0.00    +0.000 A 
ATOM      9  C   UNL     1       1.822   2.748  18.204  0.00  0.00    +0.000 A 
ATOM     10  C   UNL     1       3.042   2.309  17.716  0.00  0.00    +0.000 A 
ATOM     11  C   UNL     1       4.048   3.237  17.459  0.00  0.00    +0.000 A 
ATOM     12  C   UNL     1       3.849   4.622  17.668  0.00  0.00    +0.000 A 
BRANCH  12  13
ATOM     13  C   UNL     1       4.956   5.499  17.297  0.00  0.00    +0.000 A 
ATOM     14  N   UNL     1       5.888   5.981  18.187  0.00  0.00    +0.000 NA
ATOM     15  N   UNL     1       6.755   6.700  17.489  0.00  0.00    +0.000 NA
ATOM     16  N   UNL     1       6.294   6.659  16.237  0.00  0.00    +0.000 N 
ATOM     17  N   UNL     1       5.178   5.942  16.042  0.00  0.00    +0.000 NA
ATOM     18  H   UNL     1       6.765   7.144  15.481  0.00  0.00    +0.000 HD
ENDBRANCH  12  13
ENDBRANCH   4   7
BRANCH   1  19
ATOM     19  C   UNL     1       1.176  10.636  19.407  0.00  0.00    +0.000 C 
BRANCH  19  20
ATOM     20  O   UNL     1       0.061  10.703  20.301  0.00  0.00    +0.000 OA
BRANCH  20  22
ATOM     21  C   UNL     1      -1.868  12.097  20.519  0.00  0.00    +0.000 A 
ATOM     22  C   UNL     1      -1.156  11.110  19.819  0.00  0.00    +0.000 A 
ATOM     23  C   UNL     1      -1.679  10.619  18.619  0.00  0.00    +0.000 A 
ATOM     24  C   UNL     1      -2.916  11.071  18.176  0.00  0.00    +0.000 A 
ATOM     25  C   UNL     1      -3.513  10.564  16.898  0.00  0.00    +0.000 C 
ATOM     26  N   UNL     1      -3.640  11.984  18.857  0.00  0.00    +0.000 NA
ATOM     27  C   UNL     1      -3.119  12.479  20.009  0.00  0.00    +0.000 A 
ATOM     28  C   UNL     1      -3.964  13.498  20.721  0.00  0.00    +0.000 C 
BRANCH  21  30
ATOM     29  C   UNL     1      -1.595  11.937  22.884  0.00  0.00    +0.000 C 
ATOM     30  O   UNL     1      -1.499  12.704  21.691  0.00  0.00    +0.000 OA
ENDBRANCH  21  30
ENDBRANCH  20  22
ENDBRANCH  19  20
ENDBRANCH   1  19
TORSDOF 6
ENDMDL
MODEL 8
REMARK VINA RESULT:      -8.0      3.150      4.609
REMARK  Name = 
REMARK  9 active torsions:
REMARK  status: ('A' for Active; 'I' for Inactive)
REMARK    1  A    between atoms: C_1  and  O_2
REMARK    2  A    between atoms: O_2  and  C_3
REMARK    3  A    between atoms: C_4  and  O_5
REMARK    4  A    between atoms: O_5  and  C_6
REMARK    5  A    between atoms: C_6  and  C_7
REMARK    6  A    between atoms: C_10  and  C_11
REMARK    7  A    between atoms: C_16  and  C_17
REMARK    8  A    between atoms: C_25  and  C_26
REMARK    9  A    between atoms: C_28  and  C_29
REMARK                            x       y       z     vdW  Elec       q    Type
REMARK                         _______ _______ _______ _____ _____    ______ ____
ROOT
ATOM      1  C   UNL     1       0.936   9.532  19.606  0.00  0.00    +0.000 A 
ATOM      2  C   UNL     1       1.432   8.494  20.396  0.00  0.00    +0.000 A 
ATOM      3  C   UNL     1       2.194   7.467  19.830  0.00  0.00    +0.000 A 
ATOM      4  C   UNL     1       2.566   7.477  18.476  0.00  0.00    +0.000 A 
ATOM      5  C   UNL     1       2.039   8.518  17.689  0.00  0.00    +0.000 A 
ATOM      6  C   UNL     1       1.230   9.524  18.239  0.00  0.00    +0.000 A 
ENDROOT
BRANCH   4   7
ATOM      7  C   UNL     1       3.472   6.442  17.895  0.00  0.00    +0.000 A 
ATOM      8  C   UNL     1       4.450   6.850  16.954  0.00  0.00    +0.000 A 
ATOM      9  C   UNL     1       5.330   5.949  16.344  0.00  0.00    +0.000 A 
ATOM     10  C   UNL     1       5.246   4.598  16.636  0.00  0.00    +0.000 A 
ATOM     11  C   UNL     1       4.295   4.154  17.551  0.00  0.00    +0.000 A 
ATOM     12  C   UNL     1       3.420   5.054  18.205  0.00  0.00    +0.000 A 
BRANCH  12  13
ATOM     13  C   UNL     1       2.515   4.474  19.193  0.00  0.00    +0.000 A 
ATOM     14  N   UNL     1       1.228   4.073  18.916  0.00  0.00    +0.000 NA
ATOM     15  N   UNL     1       0.732   3.564  20.034  0.00  0.00    +0.000 NA
ATOM     16  N   UNL     1       1.706   3.715  20.933  0.00  0.00    +0.000 N 
ATOM     17  N   UNL     1       2.838   4.280  20.488  0.00  0.00    +0.000 NA
ATOM     18  H   UNL     1       1.592   3.417  21.897  0.00  0.00    +0.000 HD
ENDBRANCH  12  13
ENDBRANCH   4   7
BRANCH   1  19
ATOM     19  C   UNL     1       0.110  10.637  20.223  0.00  0.00    +0.000 C 
BRANCH  19  20
ATOM     20  O   UNL     1      -0.491  11.485  19.239  0.00  0.00    +0.000 OA
BRANCH  20  22
ATOM     21  C   UNL     1      -2.667  11.599  18.257  0.00  0.00    +0.000 A 
ATOM     22  C   UNL     1      -1.818  11.805  19.356  0.00  0.00    +0.000 A 
ATOM     23  C   UNL     1      -2.364  12.270  20.556  0.00  0.00    +0.000 A 
ATOM     24  C   UNL     1      -3.718  12.575  20.620  0.00  0.00    +0.000 A 
ATOM     25  C   UNL     1      -4.340  13.082  21.886  0.00  0.00    +0.000 C 
ATOM     26  N   UNL     1      -4.543  12.430  19.562  0.00  0.00    +0.000 NA
ATOM     27  C   UNL     1      -4.017  11.953  18.404  0.00  0.00    +0.000 A 
ATOM     28  C   UNL     1      -4.983  11.804  17.262  0.00  0.00    +0.000 C 
BRANCH  21  30
ATOM     29  C   UNL     1      -2.155   9.724  16.873  0.00  0.00    +0.000 C 
ATOM     30  O   UNL     1      -2.312  11.130  17.019  0.00  0.00    +0.000 OA
ENDBRANCH  21  30
ENDBRANCH  20  22
ENDBRANCH  19  20
ENDBRANCH   1  19
TORSDOF 6
ENDMDL
MODEL 9
REMARK VINA RESULT:      -8.0      3.031      4.288
REMARK  Name = 
REMARK  9 active torsions:
REMARK  status: ('A' for Active; 'I' for Inactive)
REMARK    1  A    between atoms: C_1  and  O_2
REMARK    2  A    between atoms: O_2  and  C_3
REMARK    3  A    between atoms: C_4  and  O_5
REMARK    4  A    between atoms: O_5  and  C_6
REMARK    5  A    between atoms: C_6  and  C_7
REMARK    6  A    between atoms: C_10  and  C_11
REMARK    7  A    between atoms: C_16  and  C_17
REMARK    8  A    between atoms: C_25  and  C_26
REMARK    9  A    between atoms: C_28  and  C_29
REMARK                            x       y       z     vdW  Elec       q    Type
REMARK                         _______ _______ _______ _____ _____    ______ ____
ROOT
ATOM      1  C   UNL     1       1.431   8.111  20.445  0.00  0.00    +0.000 A 
ATOM      2  C   UNL     1       1.900   6.838  20.769  0.00  0.00    +0.000 A 
ATOM      3  C   UNL     1       2.603   6.074  19.830  0.00  0.00    +0.000 A 
ATOM      4  C   UNL     1       2.942   6.581  18.565  0.00  0.00    +0.000 A 
ATOM      5  C   UNL     1       2.442   7.858  18.246  0.00  0.00    +0.000 A 
ATOM      6  C   UNL     1       1.692   8.608  19.164  0.00  0.00    +0.000 A 
ENDROOT
BRANCH   4   7
ATOM      7  C   UNL     1       3.787   5.812  17.603  0.00  0.00    +0.000 A 
ATOM      8  C   UNL     1       4.812   6.498  16.905  0.00  0.00    +0.000 A 
ATOM      9  C   UNL     1       5.641   5.865  15.974  0.00  0.00    +0.000 A 
ATOM     10  C   UNL     1       5.457   4.522  15.686  0.00  0.00    +0.000 A 
ATOM     11  C   UNL     1       4.458   3.813  16.346  0.00  0.00    +0.000 A 
ATOM     12  C   UNL     1       3.632   4.426  17.318  0.00  0.00    +0.000 A 
BRANCH  12  13
ATOM     13  C   UNL     1       2.667   3.561  17.988  0.00  0.00    +0.000 A 
ATOM     14  N   UNL     1       2.995   2.660  18.974  0.00  0.00    +0.000 NA
ATOM     15  N   UNL     1       1.866   2.090  19.370  0.00  0.00    +0.000 NA
ATOM     16  N   UNL     1       0.926   2.630  18.590  0.00  0.00    +0.000 N 
ATOM     17  N   UNL     1       1.348   3.542  17.703  0.00  0.00    +0.000 NA
ATOM     18  H   UNL     1      -0.049   2.361  18.669  0.00  0.00    +0.000 HD
ENDBRANCH  12  13
ENDBRANCH   4   7
BRANCH   1  19
ATOM     19  C   UNL     1       0.670   8.929  21.462  0.00  0.00    +0.000 C 
BRANCH  19  20
ATOM     20  O   UNL     1      -0.475   9.575  20.898  0.00  0.00    +0.000 OA
BRANCH  20  22
ATOM     21  C   UNL     1      -0.474  11.683  19.771  0.00  0.00    +0.000 A 
ATOM     22  C   UNL     1      -0.568  10.941  20.959  0.00  0.00    +0.000 A 
ATOM     23  C   UNL     1      -0.818  11.613  22.160  0.00  0.00    +0.000 A 
ATOM     24  C   UNL     1      -0.908  12.999  22.162  0.00  0.00    +0.000 A 
ATOM     25  C   UNL     1      -1.168  13.756  23.430  0.00  0.00    +0.000 C 
ATOM     26  N   UNL     1      -0.773  13.736  21.040  0.00  0.00    +0.000 NA
ATOM     27  C   UNL     1      -0.556  13.081  19.871  0.00  0.00    +0.000 A 
ATOM     28  C   UNL     1      -0.421  13.950  18.652  0.00  0.00    +0.000 C 
BRANCH  21  30
ATOM     29  C   UNL     1      -1.341  10.531  17.869  0.00  0.00    +0.000 C 
ATOM     30  O   UNL     1      -0.257  11.193  18.509  0.00  0.00    +0.000 OA
ENDBRANCH  21  30
ENDBRANCH  20  22
ENDBRANCH  19  20
ENDBRANCH   1  19
TORSDOF 6
ENDMDL
