MODEL 1
REMARK VINA RESULT:      -7.7      0.000      0.000
REMARK  Name = 
REMARK  13 active torsions:
REMARK  status: ('A' for Active; 'I' for Inactive)
REMARK    1  A    between atoms: C_1  and  C_2
REMARK    2  A    between atoms: C_2  and  C_3
REMARK    3  A    between atoms: C_3  and  C_4
REMARK    4  A    between atoms: C_4  and  C_5
REMARK    5  A    between atoms: C_5  and  C_6
REMARK    6  A    between atoms: C_6  and  C_7
REMARK    7  A    between atoms: C_7  and  C_8
REMARK    8  A    between atoms: C_8  and  O_9
REMARK    9  A    between atoms: O_9  and  C_10
REMARK   10  A    between atoms: C_10  and  C_11
REMARK   11  A    between atoms: C_10  and  P_21
REMARK   12  A    between atoms: P_21  and  O_23
REMARK   13  A    between atoms: P_21  and  O_24
REMARK                            x       y       z     vdW  Elec       q    Type
REMARK                         _______ _______ _______ _____ _____    ______ ____
ROOT
ATOM      1  C   UNL     1       5.059   4.421  17.307  0.00  0.00    +0.000 C 
ENDROOT
BRANCH   1   2
ATOM      2  C   UNL     1       3.904   3.873  18.138  0.00  0.00    +0.000 A 
ATOM      3  C   UNL     1       3.728   2.470  18.116  0.00  0.00    +0.000 A 
ATOM      4  C   UNL     1       2.787   1.847  18.923  0.00  0.00    +0.000 A 
ATOM      5  C   UNL     1       1.970   2.613  19.741  0.00  0.00    +0.000 A 
ATOM      6  C   UNL     1       2.084   4.010  19.767  0.00  0.00    +0.000 A 
ATOM      7  C   UNL     1       1.217   4.758  20.580  0.00  0.00    +0.000 A 
ATOM      8  C   UNL     1       1.317   6.145  20.651  0.00  0.00    +0.000 A 
ATOM      9  C   UNL     1       2.315   6.793  19.934  0.00  0.00    +0.000 A 
ATOM     10  C   UNL     1       3.185   6.064  19.119  0.00  0.00    +0.000 A 
ATOM     11  C   UNL     1       3.076   4.662  18.983  0.00  0.00    +0.000 A 
ENDBRANCH   1   2
BRANCH   1  12
ATOM     12  P   UNL     1       6.594   4.989  18.061  0.00  0.00    +0.000 P 
ATOM     13  O   UNL     1       6.994   6.415  17.835  0.00  0.00    +0.000 OA
BRANCH  12  14
ATOM     14  O   UNL     1       6.368   4.768  19.640  0.00  0.00    +0.000 OA
ATOM     15  H   UNL     1       5.479   5.050  19.924  0.00  0.00    +0.000 HD
ENDBRANCH  12  14
BRANCH  12  16
ATOM     16  O   UNL     1       7.828   3.999  17.789  0.00  0.00    +0.000 OA
ATOM     17  H   UNL     1       7.644   3.376  17.065  0.00  0.00    +0.000 HD
ENDBRANCH  12  16
ENDBRANCH   1  12
BRANCH   1  18
ATOM     18  O   UNL     1       5.319   3.602  16.137  0.00  0.00    +0.000 OA
BRANCH  18  19
ATOM     19  C   UNL     1       5.562   4.448  15.010  0.00  0.00    +0.000 C 
BRANCH  19  20
ATOM     20  C   UNL     1       6.775   4.010  14.207  0.00  0.00    +0.000 C 
BRANCH  20  21
ATOM     21  C   UNL     1       6.580   4.473  12.761  0.00  0.00    +0.000 C 
BRANCH  21  22
ATOM     22  C   UNL     1       6.730   3.338  11.760  0.00  0.00    +0.000 C 
BRANCH  22  23
ATOM     23  C   UNL     1       5.434   2.532  11.664  0.00  0.00    +0.000 C 
BRANCH  23  24
ATOM     24  C   UNL     1       4.227   3.463  11.577  0.00  0.00    +0.000 C 
BRANCH  24  26
ATOM     25  C   UNL     1       2.979   4.207   9.534  0.00  0.00    +0.000 C 
ATOM     26  C   UNL     1       3.269   3.042  10.466  0.00  0.00    +0.000 C 
ENDBRANCH  24  26
ENDBRANCH  23  24
ENDBRANCH  22  23
ENDBRANCH  21  22
ENDBRANCH  20  21
ENDBRANCH  19  20
ENDBRANCH  18  19
ENDBRANCH   1  18
TORSDOF 12
ENDMDL
MODEL 2
REMARK VINA RESULT:      -7.6      1.405      2.721
REMARK  Name = 
REMARK  13 active torsions:
REMARK  status: ('A' for Active; 'I' for Inactive)
REMARK    1  A    between atoms: C_1  and  C_2
REMARK    2  A    between atoms: C_2  and  C_3
REMARK    3  A    between atoms: C_3  and  C_4
REMARK    4  A    between atoms: C_4  and  C_5
REMARK    5  A    between atoms: C_5  and  C_6
REMARK    6  A    between atoms: C_6  and  C_7
REMARK    7  A    between atoms: C_7  and  C_8
REMARK    8  A    between atoms: C_8  and  O_9
REMARK    9  A    between atoms: O_9  and  C_10
REMARK   10  A    between atoms: C_10  and  C_11
REMARK   11  A    between atoms: C_10  and  P_21
REMARK   12  A    between atoms: P_21  and  O_23
REMARK   13  A    between atoms: P_21  and  O_24
REMARK                            x       y       z     vdW  Elec       q    Type
REMARK                         _______ _______ _______ _____ _____    ______ ____
ROOT
ATOM      1  C   UNL     1       6.107   5.685  17.355  0.00  0.00    +0.000 C 
ENDROOT
BRANCH   1   2
ATOM      2  C   UNL     1       4.614   5.781  17.652  0.00  0.00    +0.000 A 
ATOM      3  C   UNL     1       4.070   7.085  17.705  0.00  0.00    +0.000 A 
ATOM      4  C   UNL     1       2.706   7.294  17.851  0.00  0.00    +0.000 A 
ATOM      5  C   UNL     1       1.856   6.206  17.987  0.00  0.00    +0.000 A 
ATOM      6  C   UNL     1       2.357   4.896  17.978  0.00  0.00    +0.000 A 
ATOM      7  C   UNL     1       1.473   3.819  18.155  0.00  0.00    +0.000 A 
ATOM      8  C   UNL     1       1.930   2.504  18.126  0.00  0.00    +0.000 A 
ATOM      9  C   UNL     1       3.275   2.255  17.881  0.00  0.00    +0.000 A 
ATOM     10  C   UNL     1       4.168   3.317  17.705  0.00  0.00    +0.000 A 
ATOM     11  C   UNL     1       3.746   4.663  17.782  0.00  0.00    +0.000 A 
ENDBRANCH   1   2
BRANCH   1  12
ATOM     12  P   UNL     1       7.342   5.646  18.667  0.00  0.00    +0.000 P 
ATOM     13  O   UNL     1       6.885   5.260  20.040  0.00  0.00    +0.000 OA
BRANCH  12  14
ATOM     14  O   UNL     1       8.421   4.562  18.166  0.00  0.00    +0.000 OA
ATOM     15  H   UNL     1       8.854   4.834  17.336  0.00  0.00    +0.000 HD
ENDBRANCH  12  14
BRANCH  12  16
ATOM     16  O   UNL     1       8.244   6.973  18.715  0.00  0.00    +0.000 OA
ATOM     17  H   UNL     1       9.045   6.850  19.253  0.00  0.00    +0.000 HD
ENDBRANCH  12  16
ENDBRANCH   1  12
BRANCH   1  18
ATOM     18  O   UNL     1       6.392   4.694  16.334  0.00  0.00    +0.000 OA
BRANCH  18  19
ATOM     19  C   UNL     1       6.009   5.207  15.054  0.00  0.00    +0.000 C 
BRANCH  19  20
ATOM     20  C   UNL     1       6.621   4.421  13.908  0.00  0.00    +0.000 C 
BRANCH  20  21
ATOM     21  C   UNL     1       5.491   3.997  12.967  0.00  0.00    +0.000 C 
BRANCH  21  22
ATOM     22  C   UNL     1       5.815   2.722  12.203  0.00  0.00    +0.000 C 
BRANCH  22  23
ATOM     23  C   UNL     1       4.793   2.488  11.090  0.00  0.00    +0.000 C 
BRANCH  23  24
ATOM     24  C   UNL     1       3.933   3.731  10.879  0.00  0.00    +0.000 C 
BRANCH  24  26
ATOM     25  C   UNL     1       2.448   4.816   9.175  0.00  0.00    +0.000 C 
ATOM     26  C   UNL     1       2.858   3.502   9.820  0.00  0.00    +0.000 C 
ENDBRANCH  24  26
ENDBRANCH  23  24
ENDBRANCH  22  23
ENDBRANCH  21  22
ENDBRANCH  20  21
ENDBRANCH  19  20
ENDBRANCH  18  19
ENDBRANCH   1  18
TORSDOF 12
ENDMDL
MODEL 3
REMARK VINA RESULT:      -7.6      1.039      2.413
REMARK  Name = 
REMARK  13 active torsions:
REMARK  status: ('A' for Active; 'I' for Inactive)
REMARK    1  A    between atoms: C_1  and  C_2
REMARK    2  A    between atoms: C_2  and  C_3
REMARK    3  A    between atoms: C_3  and  C_4
REMARK    4  A    between atoms: C_4  and  C_5
REMARK    5  A    between atoms: C_5  and  C_6
REMARK    6  A    between atoms: C_6  and  C_7
REMARK    7  A    between atoms: C_7  and  C_8
REMARK    8  A    between atoms: C_8  and  O_9
REMARK    9  A    between atoms: O_9  and  C_10
REMARK   10  A    between atoms: C_10  and  C_11
REMARK   11  A    between atoms: C_10  and  P_21
REMARK   12  A    between atoms: P_21  and  O_23
REMARK   13  A    between atoms: P_21  and  O_24
REMARK                            x       y       z     vdW  Elec       q    Type
REMARK                         _______ _______ _______ _____ _____    ______ ____
ROOT
ATOM      1  C   UNL     1       5.466   5.121  17.727  0.00  0.00    +0.000 C 
ENDROOT
BRANCH   1   2
ATOM      2  C   UNL     1       4.273   5.419  18.629  0.00  0.00    +0.000 A 
ATOM      3  C   UNL     1       3.657   6.680  18.456  0.00  0.00    +0.000 A 
ATOM      4  C   UNL     1       2.495   7.017  19.136  0.00  0.00    +0.000 A 
ATOM      5  C   UNL     1       1.942   6.117  20.035  0.00  0.00    +0.000 A 
ATOM      6  C   UNL     1       2.540   4.870  20.266  0.00  0.00    +0.000 A 
ATOM      7  C   UNL     1       1.973   3.998  21.210  0.00  0.00    +0.000 A 
ATOM      8  C   UNL     1       2.525   2.741  21.447  0.00  0.00    +0.000 A 
ATOM      9  C   UNL     1       3.629   2.332  20.711  0.00  0.00    +0.000 A 
ATOM     10  C   UNL     1       4.206   3.189  19.769  0.00  0.00    +0.000 A 
ATOM     11  C   UNL     1       3.704   4.490  19.543  0.00  0.00    +0.000 A 
ENDBRANCH   1   2
BRANCH   1  12
ATOM     12  P   UNL     1       7.164   5.227  18.321  0.00  0.00    +0.000 P 
ATOM     13  O   UNL     1       8.162   4.269  17.746  0.00  0.00    +0.000 OA
BRANCH  12  14
ATOM     14  O   UNL     1       7.623   6.724  17.949  0.00  0.00    +0.000 OA
ATOM     15  H   UNL     1       8.591   6.832  18.000  0.00  0.00    +0.000 HD
ENDBRANCH  12  14
BRANCH  12  16
ATOM     16  O   UNL     1       7.265   5.267  19.922  0.00  0.00    +0.000 OA
ATOM     17  H   UNL     1       7.405   6.169  20.257  0.00  0.00    +0.000 HD
ENDBRANCH  12  16
ENDBRANCH   1  12
BRANCH   1  18
ATOM     18  O   UNL     1       5.258   3.923  16.935  0.00  0.00    +0.000 OA
BRANCH  18  19
ATOM     19  C   UNL     1       4.683   4.279  15.675  0.00  0.00    +0.000 C 
BRANCH  19  20
ATOM     20  C   UNL     1       5.682   4.956  14.752  0.00  0.00    +0.000 C 
BRANCH  20  21
ATOM     21  C   UNL     1       6.592   3.876  14.162  0.00  0.00    +0.000 C 
BRANCH  21  22
ATOM     22  C   UNL     1       6.547   3.842  12.642  0.00  0.00    +0.000 C 
BRANCH  22  23
ATOM     23  C   UNL     1       5.307   3.089  12.158  0.00  0.00    +0.000 C 
BRANCH  23  24
ATOM     24  C   UNL     1       4.397   4.012  11.353  0.00  0.00    +0.000 C 
BRANCH  24  26
ATOM     25  C   UNL     1       2.778   4.121   9.442  0.00  0.00    +0.000 C 
ATOM     26  C   UNL     1       3.410   3.225  10.495  0.00  0.00    +0.000 C 
ENDBRANCH  24  26
ENDBRANCH  23  24
ENDBRANCH  22  23
ENDBRANCH  21  22
ENDBRANCH  20  21
ENDBRANCH  19  20
ENDBRANCH  18  19
ENDBRANCH   1  18
TORSDOF 12
ENDMDL
MODEL 4
REMARK VINA RESULT:      -7.5      0.649      1.221
REMARK  Name = 
REMARK  13 active torsions:
REMARK  status: ('A' for Active; 'I' for Inactive)
REMARK    1  A    between atoms: C_1  and  C_2
REMARK    2  A    between atoms: C_2  and  C_3
REMARK    3  A    between atoms: C_3  and  C_4
REMARK    4  A    between atoms: C_4  and  C_5
REMARK    5  A    between atoms: C_5  and  C_6
REMARK    6  A    between atoms: C_6  and  C_7
REMARK    7  A    between atoms: C_7  and  C_8
REMARK    8  A    between atoms: C_8  and  O_9
REMARK    9  A    between atoms: O_9  and  C_10
REMARK   10  A    between atoms: C_10  and  C_11
REMARK   11  A    between atoms: C_10  and  P_21
REMARK   12  A    between atoms: P_21  and  O_23
REMARK   13  A    between atoms: P_21  and  O_24
REMARK                            x       y       z     vdW  Elec       q    Type
REMARK                         _______ _______ _______ _____ _____    ______ ____
ROOT
ATOM      1  C   UNL     1       5.466   4.642  17.281  0.00  0.00    +0.000 C 
ENDROOT
BRANCH   1   2
ATOM      2  C   UNL     1       4.264   3.933  17.896  0.00  0.00    +0.000 A 
ATOM      3  C   UNL     1       4.139   2.553  17.612  0.00  0.00    +0.000 A 
ATOM      4  C   UNL     1       3.156   1.778  18.209  0.00  0.00    +0.000 A 
ATOM      5  C   UNL     1       2.246   2.370  19.074  0.00  0.00    +0.000 A 
ATOM      6  C   UNL     1       2.310   3.742  19.354  0.00  0.00    +0.000 A 
ATOM      7  C   UNL     1       1.352   4.316  20.206  0.00  0.00    +0.000 A 
ATOM      8  C   UNL     1       1.398   5.670  20.529  0.00  0.00    +0.000 A 
ATOM      9  C   UNL     1       2.429   6.455  20.029  0.00  0.00    +0.000 A 
ATOM     10  C   UNL     1       3.390   5.899  19.179  0.00  0.00    +0.000 A 
ATOM     11  C   UNL     1       3.341   4.542  18.789  0.00  0.00    +0.000 A 
ENDBRANCH   1   2
BRANCH   1  12
ATOM     12  P   UNL     1       6.881   5.158  18.270  0.00  0.00    +0.000 P 
ATOM     13  O   UNL     1       6.717   5.178  19.759  0.00  0.00    +0.000 OA
BRANCH  12  14
ATOM     14  O   UNL     1       8.033   4.097  17.900  0.00  0.00    +0.000 OA
ATOM     15  H   UNL     1       8.365   4.221  16.991  0.00  0.00    +0.000 HD
ENDBRANCH  12  14
BRANCH  12  16
ATOM     16  O   UNL     1       7.544   6.522  17.747  0.00  0.00    +0.000 OA
ATOM     17  H   UNL     1       8.483   6.588  17.991  0.00  0.00    +0.000 HD
ENDBRANCH  12  16
ENDBRANCH   1  12
BRANCH   1  18
ATOM     18  O   UNL     1       5.889   4.012  16.043  0.00  0.00    +0.000 OA
BRANCH  18  19
ATOM     19  C   UNL     1       5.541   4.852  14.939  0.00  0.00    +0.000 C 
BRANCH  19  20
ATOM     20  C   UNL     1       6.333   4.521  13.686  0.00  0.00    +0.000 C 
BRANCH  20  21
ATOM     21  C   UNL     1       5.961   3.101  13.250  0.00  0.00    +0.000 C 
BRANCH  21  22
ATOM     22  C   UNL     1       5.504   3.037  11.801  0.00  0.00    +0.000 C 
BRANCH  22  23
ATOM     23  C   UNL     1       4.265   3.908  11.589  0.00  0.00    +0.000 C 
BRANCH  23  24
ATOM     24  C   UNL     1       3.308   3.251  10.599  0.00  0.00    +0.000 C 
BRANCH  24  26
ATOM     25  C   UNL     1       2.109   4.901   9.141  0.00  0.00    +0.000 C 
ATOM     26  C   UNL     1       3.306   3.971   9.253  0.00  0.00    +0.000 C 
ENDBRANCH  24  26
ENDBRANCH  23  24
ENDBRANCH  22  23
ENDBRANCH  21  22
ENDBRANCH  20  21
ENDBRANCH  19  20
ENDBRANCH  18  19
ENDBRANCH   1  18
TORSDOF 12
ENDMDL
MODEL 5
REMARK VINA RESULT:      -7.3      1.079      2.313
REMARK  Name = 
REMARK  13 active torsions:
REMARK  status: ('A' for Active; 'I' for Inactive)
REMARK    1  A    between atoms: C_1  and  C_2
REMARK    2  A    between atoms: C_2  and  C_3
REMARK    3  A    between atoms: C_3  and  C_4
REMARK    4  A    between atoms: C_4  and  C_5
REMARK    5  A    between atoms: C_5  and  C_6
REMARK    6  A    between atoms: C_6  and  C_7
REMARK    7  A    between atoms: C_7  and  C_8
REMARK    8  A    between atoms: C_8  and  O_9
REMARK    9  A    between atoms: O_9  and  C_10
REMARK   10  A    between atoms: C_10  and  C_11
REMARK   11  A    between atoms: C_10  and  P_21
REMARK   12  A    between atoms: P_21  and  O_23
REMARK   13  A    between atoms: P_21  and  O_24
REMARK                            x       y       z     vdW  Elec       q    Type
REMARK                         _______ _______ _______ _____ _____    ______ ____
ROOT
ATOM      1  C   UNL     1       5.462   5.352  17.829  0.00  0.00    +0.000 C 
ENDROOT
BRANCH   1   2
ATOM      2  C   UNL     1       4.245   5.567  18.722  0.00  0.00    +0.000 A 
ATOM      3  C   UNL     1       3.597   6.818  18.605  0.00  0.00    +0.000 A 
ATOM      4  C   UNL     1       2.413   7.086  19.278  0.00  0.00    +0.000 A 
ATOM      5  C   UNL     1       1.869   6.124  20.116  0.00  0.00    +0.000 A 
ATOM      6  C   UNL     1       2.498   4.883  20.291  0.00  0.00    +0.000 A 
ATOM      7  C   UNL     1       1.939   3.946  21.175  0.00  0.00    +0.000 A 
ATOM      8  C   UNL     1       2.520   2.694  21.355  0.00  0.00    +0.000 A 
ATOM      9  C   UNL     1       3.650   2.355  20.620  0.00  0.00    +0.000 A 
ATOM     10  C   UNL     1       4.219   3.277  19.738  0.00  0.00    +0.000 A 
ATOM     11  C   UNL     1       3.685   4.574  19.572  0.00  0.00    +0.000 A 
ENDBRANCH   1   2
BRANCH   1  12
ATOM     12  P   UNL     1       7.145   5.512  18.452  0.00  0.00    +0.000 P 
ATOM     13  O   UNL     1       7.871   6.793  18.171  0.00  0.00    +0.000 OA
BRANCH  12  14
ATOM     14  O   UNL     1       6.997   5.350  20.046  0.00  0.00    +0.000 OA
ATOM     15  H   UNL     1       7.696   4.783  20.422  0.00  0.00    +0.000 HD
ENDBRANCH  12  14
BRANCH  12  16
ATOM     16  O   UNL     1       8.065   4.245  18.101  0.00  0.00    +0.000 OA
ATOM     17  H   UNL     1       8.060   3.582  18.813  0.00  0.00    +0.000 HD
ENDBRANCH  12  16
ENDBRANCH   1  12
BRANCH   1  18
ATOM     18  O   UNL     1       5.319   4.171  16.996  0.00  0.00    +0.000 OA
BRANCH  18  19
ATOM     19  C   UNL     1       5.236   4.566  15.623  0.00  0.00    +0.000 C 
BRANCH  19  20
ATOM     20  C   UNL     1       6.513   5.225  15.131  0.00  0.00    +0.000 C 
BRANCH  20  21
ATOM     21  C   UNL     1       6.732   4.808  13.675  0.00  0.00    +0.000 C 
BRANCH  21  22
ATOM     22  C   UNL     1       6.175   3.424  13.375  0.00  0.00    +0.000 C 
BRANCH  22  23
ATOM     23  C   UNL     1       6.372   3.075  11.899  0.00  0.00    +0.000 C 
BRANCH  23  24
ATOM     24  C   UNL     1       5.098   2.473  11.314  0.00  0.00    +0.000 C 
BRANCH  24  26
ATOM     25  C   UNL     1       3.290   3.669  10.055  0.00  0.00    +0.000 C 
ATOM     26  C   UNL     1       3.918   3.435  11.419  0.00  0.00    +0.000 C 
ENDBRANCH  24  26
ENDBRANCH  23  24
ENDBRANCH  22  23
ENDBRANCH  21  22
ENDBRANCH  20  21
ENDBRANCH  19  20
ENDBRANCH  18  19
ENDBRANCH   1  18
TORSDOF 12
ENDMDL
MODEL 6
REMARK VINA RESULT:      -7.2      1.383      2.731
REMARK  Name = 
REMARK  13 active torsions:
REMARK  status: ('A' for Active; 'I' for Inactive)
REMARK    1  A    between atoms: C_1  and  C_2
REMARK    2  A    between atoms: C_2  and  C_3
REMARK    3  A    between atoms: C_3  and  C_4
REMARK    4  A    between atoms: C_4  and  C_5
REMARK    5  A    between atoms: C_5  and  C_6
REMARK    6  A    between atoms: C_6  and  C_7
REMARK    7  A    between atoms: C_7  and  C_8
REMARK    8  A    between atoms: C_8  and  O_9
REMARK    9  A    between atoms: O_9  and  C_10
REMARK   10  A    between atoms: C_10  and  C_11
REMARK   11  A    between atoms: C_10  and  P_21
REMARK   12  A    between atoms: P_21  and  O_23
REMARK   13  A    between atoms: P_21  and  O_24
REMARK                            x       y       z     vdW  Elec       q    Type
REMARK                         _______ _______ _______ _____ _____    ______ ____
ROOT
ATOM      1  C   UNL     1       6.010   5.562  17.035  0.00  0.00    +0.000 C 
ENDROOT
BRANCH   1   2
ATOM      2  C   UNL     1       4.560   5.696  17.488  0.00  0.00    +0.000 A 
ATOM      3  C   UNL     1       4.055   7.014  17.588  0.00  0.00    +0.000 A 
ATOM      4  C   UNL     1       2.720   7.257  17.876  0.00  0.00    +0.000 A 
ATOM      5  C   UNL     1       1.864   6.191  18.110  0.00  0.00    +0.000 A 
ATOM      6  C   UNL     1       2.329   4.870  18.057  0.00  0.00    +0.000 A 
ATOM      7  C   UNL     1       1.443   3.815  18.334  0.00  0.00    +0.000 A 
ATOM      8  C   UNL     1       1.863   2.489  18.267  0.00  0.00    +0.000 A 
ATOM      9  C   UNL     1       3.167   2.206  17.882  0.00  0.00    +0.000 A 
ATOM     10  C   UNL     1       4.062   3.244  17.605  0.00  0.00    +0.000 A 
ATOM     11  C   UNL     1       3.684   4.600  17.717  0.00  0.00    +0.000 A 
ENDBRANCH   1   2
BRANCH   1  12
ATOM     12  P   UNL     1       7.341   5.187  18.190  0.00  0.00    +0.000 P 
ATOM     13  O   UNL     1       8.342   4.150  17.783  0.00  0.00    +0.000 OA
BRANCH  12  14
ATOM     14  O   UNL     1       8.109   6.589  18.381  0.00  0.00    +0.000 OA
ATOM     15  H   UNL     1       7.603   7.336  18.010  0.00  0.00    +0.000 HD
ENDBRANCH  12  14
BRANCH  12  16
ATOM     16  O   UNL     1       6.816   4.922  19.683  0.00  0.00    +0.000 OA
ATOM     17  H   UNL     1       7.306   5.445  20.341  0.00  0.00    +0.000 HD
ENDBRANCH  12  16
ENDBRANCH   1  12
BRANCH   1  18
ATOM     18  O   UNL     1       6.126   4.772  15.823  0.00  0.00    +0.000 OA
BRANCH  18  19
ATOM     19  C   UNL     1       6.969   5.455  14.890  0.00  0.00    +0.000 C 
BRANCH  19  20
ATOM     20  C   UNL     1       7.174   4.665  13.608  0.00  0.00    +0.000 C 
BRANCH  20  21
ATOM     21  C   UNL     1       6.207   3.479  13.621  0.00  0.00    +0.000 C 
BRANCH  21  22
ATOM     22  C   UNL     1       4.861   3.818  12.997  0.00  0.00    +0.000 C 
BRANCH  22  23
ATOM     23  C   UNL     1       4.832   3.401  11.526  0.00  0.00    +0.000 C 
BRANCH  23  24
ATOM     24  C   UNL     1       3.406   3.078  11.087  0.00  0.00    +0.000 C 
BRANCH  24  26
ATOM     25  C   UNL     1       2.594   4.714   9.369  0.00  0.00    +0.000 C 
ATOM     26  C   UNL     1       3.202   3.339   9.597  0.00  0.00    +0.000 C 
ENDBRANCH  24  26
ENDBRANCH  23  24
ENDBRANCH  22  23
ENDBRANCH  21  22
ENDBRANCH  20  21
ENDBRANCH  19  20
ENDBRANCH  18  19
ENDBRANCH   1  18
TORSDOF 12
ENDMDL
MODEL 7
REMARK VINA RESULT:      -7.2      0.675      1.096
REMARK  Name = 
REMARK  13 active torsions:
REMARK  status: ('A' for Active; 'I' for Inactive)
REMARK    1  A    between atoms: C_1  and  C_2
REMARK    2  A    between atoms: C_2  and  C_3
REMARK    3  A    between atoms: C_3  and  C_4
REMARK    4  A    between atoms: C_4  and  C_5
REMARK    5  A    between atoms: C_5  and  C_6
REMARK    6  A    between atoms: C_6  and  C_7
REMARK    7  A    between atoms: C_7  and  C_8
REMARK    8  A    between atoms: C_8  and  O_9
REMARK    9  A    between atoms: O_9  and  C_10
REMARK   10  A    between atoms: C_10  and  C_11
REMARK   11  A    between atoms: C_10  and  P_21
REMARK   12  A    between atoms: P_21  and  O_23
REMARK   13  A    between atoms: P_21  and  O_24
REMARK                            x       y       z     vdW  Elec       q    Type
REMARK                         _______ _______ _______ _____ _____    ______ ____
ROOT
ATOM      1  C   UNL     1       5.529   4.668  17.649  0.00  0.00    +0.000 C 
ENDROOT
BRANCH   1   2
ATOM      2  C   UNL     1       4.406   4.116  18.520  0.00  0.00    +0.000 A 
ATOM      3  C   UNL     1       4.401   2.716  18.721  0.00  0.00    +0.000 A 
ATOM      4  C   UNL     1       3.500   2.112  19.587  0.00  0.00    +0.000 A 
ATOM      5  C   UNL     1       2.556   2.888  20.244  0.00  0.00    +0.000 A 
ATOM      6  C   UNL     1       2.501   4.275  20.045  0.00  0.00    +0.000 A 
ATOM      7  C   UNL     1       1.509   5.026  20.698  0.00  0.00    +0.000 A 
ATOM      8  C   UNL     1       1.439   6.408  20.546  0.00  0.00    +0.000 A 
ATOM      9  C   UNL     1       2.388   7.057  19.766  0.00  0.00    +0.000 A 
ATOM     10  C   UNL     1       3.380   6.324  19.108  0.00  0.00    +0.000 A 
ATOM     11  C   UNL     1       3.447   4.916  19.198  0.00  0.00    +0.000 A 
ENDBRANCH   1   2
BRANCH   1  12
ATOM     12  P   UNL     1       7.097   5.219  18.346  0.00  0.00    +0.000 P 
ATOM     13  O   UNL     1       7.213   5.272  19.839  0.00  0.00    +0.000 OA
BRANCH  12  14
ATOM     14  O   UNL     1       8.174   4.160  17.790  0.00  0.00    +0.000 OA
ATOM     15  H   UNL     1       7.834   3.247  17.812  0.00  0.00    +0.000 HD
ENDBRANCH  12  14
BRANCH  12  16
ATOM     16  O   UNL     1       7.633   6.577  17.681  0.00  0.00    +0.000 OA
ATOM     17  H   UNL     1       6.908   7.131  17.346  0.00  0.00    +0.000 HD
ENDBRANCH  12  16
ENDBRANCH   1  12
BRANCH   1  18
ATOM     18  O   UNL     1       5.736   3.862  16.460  0.00  0.00    +0.000 OA
BRANCH  18  19
ATOM     19  C   UNL     1       5.885   4.720  15.324  0.00  0.00    +0.000 C 
BRANCH  19  20
ATOM     20  C   UNL     1       5.572   4.012  14.017  0.00  0.00    +0.000 C 
BRANCH  20  21
ATOM     21  C   UNL     1       6.712   4.299  13.037  0.00  0.00    +0.000 C 
BRANCH  21  22
ATOM     22  C   UNL     1       6.604   3.479  11.761  0.00  0.00    +0.000 C 
BRANCH  22  23
ATOM     23  C   UNL     1       5.517   2.412  11.898  0.00  0.00    +0.000 C 
BRANCH  23  24
ATOM     24  C   UNL     1       4.489   2.544  10.778  0.00  0.00    +0.000 C 
BRANCH  24  26
ATOM     25  C   UNL     1       2.948   4.141   9.611  0.00  0.00    +0.000 C 
ATOM     26  C   UNL     1       3.671   3.826  10.911  0.00  0.00    +0.000 C 
ENDBRANCH  24  26
ENDBRANCH  23  24
ENDBRANCH  22  23
ENDBRANCH  21  22
ENDBRANCH  20  21
ENDBRANCH  19  20
ENDBRANCH  18  19
ENDBRANCH   1  18
TORSDOF 12
ENDMDL
MODEL 8
REMARK VINA RESULT:      -7.2      4.919      7.393
REMARK  Name = 
REMARK  13 active torsions:
REMARK  status: ('A' for Active; 'I' for Inactive)
REMARK    1  A    between atoms: C_1  and  C_2
REMARK    2  A    between atoms: C_2  and  C_3
REMARK    3  A    between atoms: C_3  and  C_4
REMARK    4  A    between atoms: C_4  and  C_5
REMARK    5  A    between atoms: C_5  and  C_6
REMARK    6  A    between atoms: C_6  and  C_7
REMARK    7  A    between atoms: C_7  and  C_8
REMARK    8  A    between atoms: C_8  and  O_9
REMARK    9  A    between atoms: O_9  and  C_10
REMARK   10  A    between atoms: C_10  and  C_11
REMARK   11  A    between atoms: C_10  and  P_21
REMARK   12  A    between atoms: P_21  and  O_23
REMARK   13  A    between atoms: P_21  and  O_24
REMARK                            x       y       z     vdW  Elec       q    Type
REMARK                         _______ _______ _______ _____ _____    ______ ____
ROOT
ATOM      1  C   UNL     1       6.343   6.062  17.419  0.00  0.00    +0.000 C 
ENDROOT
BRANCH   1   2
ATOM      2  C   UNL     1       4.896   6.038  17.898  0.00  0.00    +0.000 A 
ATOM      3  C   UNL     1       4.078   7.111  17.472  0.00  0.00    +0.000 A 
ATOM      4  C   UNL     1       2.718   7.138  17.746  0.00  0.00    +0.000 A 
ATOM      5  C   UNL     1       2.148   6.113  18.487  0.00  0.00    +0.000 A 
ATOM      6  C   UNL     1       2.928   5.049  18.962  0.00  0.00    +0.000 A 
ATOM      7  C   UNL     1       2.325   4.046  19.739  0.00  0.00    +0.000 A 
ATOM      8  C   UNL     1       3.062   2.961  20.206  0.00  0.00    +0.000 A 
ATOM      9  C   UNL     1       4.404   2.850  19.865  0.00  0.00    +0.000 A 
ATOM     10  C   UNL     1       5.019   3.840  19.093  0.00  0.00    +0.000 A 
ATOM     11  C   UNL     1       4.314   4.981  18.649  0.00  0.00    +0.000 A 
ENDBRANCH   1   2
BRANCH   1  12
ATOM     12  P   UNL     1       7.004   4.804  16.310  0.00  0.00    +0.000 P 
ATOM     13  O   UNL     1       7.639   5.267  15.034  0.00  0.00    +0.000 OA
BRANCH  12  14
ATOM     14  O   UNL     1       8.119   4.046  17.188  0.00  0.00    +0.000 OA
ATOM     15  H   UNL     1       8.040   3.076  17.120  0.00  0.00    +0.000 HD
ENDBRANCH  12  14
BRANCH  12  16
ATOM     16  O   UNL     1       5.969   3.609  16.034  0.00  0.00    +0.000 OA
ATOM     17  H   UNL     1       6.420   2.788  15.772  0.00  0.00    +0.000 HD
ENDBRANCH  12  16
ENDBRANCH   1  12
BRANCH   1  18
ATOM     18  O   UNL     1       6.755   7.393  17.011  0.00  0.00    +0.000 OA
BRANCH  18  19
ATOM     19  C   UNL     1       7.760   7.875  17.909  0.00  0.00    +0.000 C 
BRANCH  19  20
ATOM     20  C   UNL     1       7.944   9.380  17.819  0.00  0.00    +0.000 C 
BRANCH  20  21
ATOM     21  C   UNL     1       9.110   9.770  18.729  0.00  0.00    +0.000 C 
BRANCH  21  22
ATOM     22  C   UNL     1       9.648  11.161  18.425  0.00  0.00    +0.000 C 
BRANCH  22  23
ATOM     23  C   UNL     1      10.949  11.412  19.189  0.00  0.00    +0.000 C 
BRANCH  23  24
ATOM     24  C   UNL     1      10.656  11.867  20.616  0.00  0.00    +0.000 C 
BRANCH  24  26
ATOM     25  C   UNL     1       9.340  13.437  22.061  0.00  0.00    +0.000 C 
ATOM     26  C   UNL     1       9.776  13.114  20.641  0.00  0.00    +0.000 C 
ENDBRANCH  24  26
ENDBRANCH  23  24
ENDBRANCH  22  23
ENDBRANCH  21  22
ENDBRANCH  20  21
ENDBRANCH  19  20
ENDBRANCH  18  19
ENDBRANCH   1  18
TORSDOF 12
ENDMDL
MODEL 9
REMARK VINA RESULT:      -7.1      0.958      1.618
REMARK  Name = 
REMARK  13 active torsions:
REMARK  status: ('A' for Active; 'I' for Inactive)
REMARK    1  A    between atoms: C_1  and  C_2
REMARK    2  A    between atoms: C_2  and  C_3
REMARK    3  A    between atoms: C_3  and  C_4
REMARK    4  A    between atoms: C_4  and  C_5
REMARK    5  A    between atoms: C_5  and  C_6
REMARK    6  A    between atoms: C_6  and  C_7
REMARK    7  A    between atoms: C_7  and  C_8
REMARK    8  A    between atoms: C_8  and  O_9
REMARK    9  A    between atoms: O_9  and  C_10
REMARK   10  A    between atoms: C_10  and  C_11
REMARK   11  A    between atoms: C_10  and  P_21
REMARK   12  A    between atoms: P_21  and  O_23
REMARK   13  A    between atoms: P_21  and  O_24
REMARK                            x       y       z     vdW  Elec       q    Type
REMARK                         _______ _______ _______ _____ _____    ______ ____
ROOT
ATOM      1  C   UNL     1       5.169   4.588  17.341  0.00  0.00    +0.000 C 
ENDROOT
BRANCH   1   2
ATOM      2  C   UNL     1       4.039   3.931  18.125  0.00  0.00    +0.000 A 
ATOM      3  C   UNL     1       3.946   2.523  18.026  0.00  0.00    +0.000 A 
ATOM      4  C   UNL     1       3.034   1.803  18.785  0.00  0.00    +0.000 A 
ATOM      5  C   UNL     1       2.164   2.475  19.631  0.00  0.00    +0.000 A 
ATOM      6  C   UNL     1       2.195   3.873  19.732  0.00  0.00    +0.000 A 
ATOM      7  C   UNL     1       1.276   4.525  20.571  0.00  0.00    +0.000 A 
ATOM      8  C   UNL     1       1.294   5.909  20.716  0.00  0.00    +0.000 A 
ATOM      9  C   UNL     1       2.260   6.652  20.050  0.00  0.00    +0.000 A 
ATOM     10  C   UNL     1       3.181   6.019  19.209  0.00  0.00    +0.000 A 
ATOM     11  C   UNL     1       3.156   4.623  18.998  0.00  0.00    +0.000 A 
ENDBRANCH   1   2
BRANCH   1  12
ATOM     12  P   UNL     1       6.708   5.097  18.128  0.00  0.00    +0.000 P 
ATOM     13  O   UNL     1       7.150   6.516  17.937  0.00  0.00    +0.000 OA
BRANCH  12  14
ATOM     14  O   UNL     1       6.453   4.850  19.698  0.00  0.00    +0.000 OA
ATOM     15  H   UNL     1       5.506   4.736  19.900  0.00  0.00    +0.000 HD
ENDBRANCH  12  14
BRANCH  12  16
ATOM     16  O   UNL     1       7.917   4.079  17.852  0.00  0.00    +0.000 OA
ATOM     17  H   UNL     1       8.696   4.279  18.399  0.00  0.00    +0.000 HD
ENDBRANCH  12  16
ENDBRANCH   1  12
BRANCH   1  18
ATOM     18  O   UNL     1       5.420   3.909  16.083  0.00  0.00    +0.000 OA
BRANCH  18  19
ATOM     19  C   UNL     1       5.500   4.875  15.030  0.00  0.00    +0.000 C 
BRANCH  19  20
ATOM     20  C   UNL     1       6.842   4.848  14.319  0.00  0.00    +0.000 C 
BRANCH  20  21
ATOM     21  C   UNL     1       6.659   4.118  12.986  0.00  0.00    +0.000 C 
BRANCH  21  22
ATOM     22  C   UNL     1       5.199   3.820  12.680  0.00  0.00    +0.000 C 
BRANCH  22  23
ATOM     23  C   UNL     1       5.083   2.645  11.708  0.00  0.00    +0.000 C 
BRANCH  23  24
ATOM     24  C   UNL     1       6.427   1.938  11.556  0.00  0.00    +0.000 C 
BRANCH  24  26
ATOM     25  C   UNL     1       6.051  -0.538  11.437  0.00  0.00    +0.000 C 
ATOM     26  C   UNL     1       6.325   0.724  10.636  0.00  0.00    +0.000 C 
ENDBRANCH  24  26
ENDBRANCH  23  24
ENDBRANCH  22  23
ENDBRANCH  21  22
ENDBRANCH  20  21
ENDBRANCH  19  20
ENDBRANCH  18  19
ENDBRANCH   1  18
TORSDOF 12
ENDMDL
