MODEL 1
REMARK VINA RESULT:      -7.2      0.000      0.000
REMARK  Name = 
REMARK  9 active torsions:
REMARK  status: ('A' for Active; 'I' for Inactive)
REMARK    1  A    between atoms: C_1  and  C_2
REMARK    2  A    between atoms: C_4  and  C_5
REMARK    3  A    between atoms: C_6  and  N_7
REMARK    4  A    between atoms: C_8  and  S_9
REMARK    5  A    between atoms: N_10  and  C_11
REMARK    6  A    between atoms: N_10  and  C_18
REMARK    7  A    between atoms: C_11  and  C_12
REMARK    8  A    between atoms: C_18  and  C_19
REMARK    9  A    between atoms: C_24  and  C_25
REMARK                            x       y       z     vdW  Elec       q    Type
REMARK                         _______ _______ _______ _____ _____    ______ ____
ROOT
ATOM      1  N   UNL     1       3.897   3.611  18.070  0.00  0.00    +0.000 NA
ATOM      2  C   UNL     1       4.232   4.809  17.657  0.00  0.00    +0.000 C 
ATOM      3  N   UNL     1       5.059   4.982  16.537  0.00  0.00    +0.000 N 
ENDROOT
BRANCH   1   9
ATOM      4  C   UNL     1       0.689   2.141  22.650  0.00  0.00    +0.000 C 
ATOM      5  C   UNL     1       1.524   2.558  21.479  0.00  0.00    +0.000 A 
ATOM      6  C   UNL     1       0.934   3.115  20.349  0.00  0.00    +0.000 A 
ATOM      7  C   UNL     1       1.692   3.428  19.196  0.00  0.00    +0.000 A 
ATOM      8  C   UNL     1       0.913   3.867  17.977  0.00  0.00    +0.000 C 
ATOM      9  C   UNL     1       3.098   3.290  19.193  0.00  0.00    +0.000 A 
ATOM     10  C   UNL     1       3.684   2.658  20.322  0.00  0.00    +0.000 A 
ATOM     11  C   UNL     1       5.122   2.219  20.370  0.00  0.00    +0.000 C 
ATOM     12  C   UNL     1       2.892   2.321  21.450  0.00  0.00    +0.000 A 
ENDBRANCH   1   9
BRANCH   2  13
ATOM     13  S   UNL     1       3.700   6.303  18.453  0.00  0.00    +0.000 S 
ATOM     14  H   UNL     1       4.060   7.172  17.508  0.00  0.00    +0.000 HD
ENDBRANCH   2  13
BRANCH   3  15
ATOM     15  C   UNL     1       5.588   3.815  15.825  0.00  0.00    +0.000 C 
BRANCH  15  16
ATOM     16  C   UNL     1       6.243   4.130  14.495  0.00  0.00    +0.000 A 
ATOM     17  C   UNL     1       5.821   3.597  13.271  0.00  0.00    +0.000 A 
ATOM     18  C   UNL     1       6.490   3.938  12.092  0.00  0.00    +0.000 A 
ATOM     19  C   UNL     1       7.567   4.803  12.177  0.00  0.00    +0.000 A 
ATOM     20  N   UNL     1       7.998   5.354  13.332  0.00  0.00    +0.000 NA
ATOM     21  C   UNL     1       7.322   4.999  14.450  0.00  0.00    +0.000 A 
ENDBRANCH  15  16
ENDBRANCH   3  15
BRANCH   3  22
ATOM     22  C   UNL     1       5.684   6.266  16.153  0.00  0.00    +0.000 C 
BRANCH  22  23
ATOM     23  C   UNL     1       6.747   6.824  17.046  0.00  0.00    +0.000 A 
ATOM     24  C   UNL     1       7.518   6.317  18.074  0.00  0.00    +0.000 A 
ATOM     25  C   UNL     1       8.287   7.404  18.573  0.00  0.00    +0.000 A 
ATOM     26  C   UNL     1       7.948   8.502  17.817  0.00  0.00    +0.000 A 
ATOM     27  O   UNL     1       7.003   8.161  16.897  0.00  0.00    +0.000 OA
ENDBRANCH  22  23
ENDBRANCH   3  22
TORSDOF 6
ENDMDL
MODEL 2
REMARK VINA RESULT:      -7.2      3.059      5.378
REMARK  Name = 
REMARK  9 active torsions:
REMARK  status: ('A' for Active; 'I' for Inactive)
REMARK    1  A    between atoms: C_1  and  C_2
REMARK    2  A    between atoms: C_4  and  C_5
REMARK    3  A    between atoms: C_6  and  N_7
REMARK    4  A    between atoms: C_8  and  S_9
REMARK    5  A    between atoms: N_10  and  C_11
REMARK    6  A    between atoms: N_10  and  C_18
REMARK    7  A    between atoms: C_11  and  C_12
REMARK    8  A    between atoms: C_18  and  C_19
REMARK    9  A    between atoms: C_24  and  C_25
REMARK                            x       y       z     vdW  Elec       q    Type
REMARK                         _______ _______ _______ _____ _____    ______ ____
ROOT
ATOM      1  N   UNL     1       2.934   6.036  18.140  0.00  0.00    +0.000 NA
ATOM      2  C   UNL     1       4.172   5.988  17.711  0.00  0.00    +0.000 C 
ATOM      3  N   UNL     1       4.599   4.967  16.849  0.00  0.00    +0.000 N 
ENDROOT
BRANCH   1   9
ATOM      4  C   UNL     1       0.528   9.813  21.797  0.00  0.00    +0.000 C 
ATOM      5  C   UNL     1       1.187   8.847  20.861  0.00  0.00    +0.000 A 
ATOM      6  C   UNL     1       1.486   9.218  19.554  0.00  0.00    +0.000 A 
ATOM      7  C   UNL     1       2.021   8.293  18.626  0.00  0.00    +0.000 A 
ATOM      8  C   UNL     1       2.143   8.767  17.196  0.00  0.00    +0.000 C 
ATOM      9  C   UNL     1       2.377   6.986  19.029  0.00  0.00    +0.000 A 
ATOM     10  C   UNL     1       2.006   6.595  20.343  0.00  0.00    +0.000 A 
ATOM     11  C   UNL     1       2.093   5.177  20.838  0.00  0.00    +0.000 C 
ATOM     12  C   UNL     1       1.437   7.534  21.240  0.00  0.00    +0.000 A 
ENDBRANCH   1   9
BRANCH   2  13
ATOM     13  S   UNL     1       5.413   7.171  18.169  0.00  0.00    +0.000 S 
ATOM     14  H   UNL     1       6.476   6.556  17.651  0.00  0.00    +0.000 HD
ENDBRANCH   2  13
BRANCH   3  15
ATOM     15  C   UNL     1       3.667   3.915  16.436  0.00  0.00    +0.000 C 
BRANCH  15  16
ATOM     16  C   UNL     1       2.991   3.186  17.579  0.00  0.00    +0.000 A 
ATOM     17  C   UNL     1       1.602   3.098  17.737  0.00  0.00    +0.000 A 
ATOM     18  C   UNL     1       1.065   2.410  18.829  0.00  0.00    +0.000 A 
ATOM     19  C   UNL     1       1.939   1.832  19.733  0.00  0.00    +0.000 A 
ATOM     20  N   UNL     1       3.283   1.877  19.613  0.00  0.00    +0.000 NA
ATOM     21  C   UNL     1       3.762   2.552  18.541  0.00  0.00    +0.000 A 
ENDBRANCH  15  16
ENDBRANCH   3  15
BRANCH   3  22
ATOM     22  C   UNL     1       6.014   4.694  16.518  0.00  0.00    +0.000 C 
BRANCH  22  23
ATOM     23  C   UNL     1       6.395   4.615  15.074  0.00  0.00    +0.000 A 
ATOM     24  C   UNL     1       5.973   3.861  13.997  0.00  0.00    +0.000 A 
ATOM     25  C   UNL     1       6.812   4.215  12.905  0.00  0.00    +0.000 A 
ATOM     26  C   UNL     1       7.686   5.168  13.376  0.00  0.00    +0.000 A 
ATOM     27  O   UNL     1       7.448   5.406  14.696  0.00  0.00    +0.000 OA
ENDBRANCH  22  23
ENDBRANCH   3  22
TORSDOF 6
ENDMDL
MODEL 3
REMARK VINA RESULT:      -7.0     10.279     12.505
REMARK  Name = 
REMARK  9 active torsions:
REMARK  status: ('A' for Active; 'I' for Inactive)
REMARK    1  A    between atoms: C_1  and  C_2
REMARK    2  A    between atoms: C_4  and  C_5
REMARK    3  A    between atoms: C_6  and  N_7
REMARK    4  A    between atoms: C_8  and  S_9
REMARK    5  A    between atoms: N_10  and  C_11
REMARK    6  A    between atoms: N_10  and  C_18
REMARK    7  A    between atoms: C_11  and  C_12
REMARK    8  A    between atoms: C_18  and  C_19
REMARK    9  A    between atoms: C_24  and  C_25
REMARK                            x       y       z     vdW  Elec       q    Type
REMARK                         _______ _______ _______ _____ _____    ______ ____
ROOT
ATOM      1  N   UNL     1      -0.968  11.190  21.145  0.00  0.00    +0.000 NA
ATOM      2  C   UNL     1      -0.789  12.430  21.531  0.00  0.00    +0.000 C 
ATOM      3  N   UNL     1      -1.754  13.092  22.306  0.00  0.00    +0.000 N 
ENDROOT
BRANCH   1   9
ATOM      4  C   UNL     1       2.455   7.955  17.790  0.00  0.00    +0.000 C 
ATOM      5  C   UNL     1       1.597   8.821  18.660  0.00  0.00    +0.000 A 
ATOM      6  C   UNL     1       1.669   8.728  20.046  0.00  0.00    +0.000 A 
ATOM      7  C   UNL     1       0.800   9.467  20.884  0.00  0.00    +0.000 A 
ATOM      8  C   UNL     1       0.861   9.153  22.361  0.00  0.00    +0.000 C 
ATOM      9  C   UNL     1      -0.097  10.414  20.343  0.00  0.00    +0.000 A 
ATOM     10  C   UNL     1      -0.213  10.454  18.927  0.00  0.00    +0.000 A 
ATOM     11  C   UNL     1      -1.287  11.225  18.208  0.00  0.00    +0.000 C 
ATOM     12  C   UNL     1       0.646   9.673  18.112  0.00  0.00    +0.000 A 
ENDBRANCH   1   9
BRANCH   2  13
ATOM     13  S   UNL     1       0.649  13.386  21.121  0.00  0.00    +0.000 S 
ATOM     14  H   UNL     1       1.567  12.637  21.731  0.00  0.00    +0.000 HD
ENDBRANCH   2  13
BRANCH   3  15
ATOM     15  C   UNL     1      -2.998  12.409  22.671  0.00  0.00    +0.000 C 
BRANCH  15  16
ATOM     16  C   UNL     1      -4.206  12.817  21.852  0.00  0.00    +0.000 A 
ATOM     17  C   UNL     1      -4.283  12.695  20.460  0.00  0.00    +0.000 A 
ATOM     18  C   UNL     1      -5.436  13.105  19.784  0.00  0.00    +0.000 A 
ATOM     19  C   UNL     1      -6.479  13.628  20.527  0.00  0.00    +0.000 A 
ATOM     20  N   UNL     1      -6.456  13.749  21.872  0.00  0.00    +0.000 NA
ATOM     21  C   UNL     1      -5.322  13.340  22.487  0.00  0.00    +0.000 A 
ENDBRANCH  15  16
ENDBRANCH   3  15
BRANCH   3  22
ATOM     22  C   UNL     1      -1.753  14.546  22.573  0.00  0.00    +0.000 C 
BRANCH  22  23
ATOM     23  C   UNL     1      -1.617  14.998  23.992  0.00  0.00    +0.000 A 
ATOM     24  C   UNL     1      -2.458  15.031  25.087  0.00  0.00    +0.000 A 
ATOM     25  C   UNL     1      -1.735  15.671  26.131  0.00  0.00    +0.000 A 
ATOM     26  C   UNL     1      -0.497  15.981  25.615  0.00  0.00    +0.000 A 
ATOM     27  O   UNL     1      -0.423  15.589  24.313  0.00  0.00    +0.000 OA
ENDBRANCH  22  23
ENDBRANCH   3  22
TORSDOF 6
ENDMDL
MODEL 4
REMARK VINA RESULT:      -6.9      9.872     11.380
REMARK  Name = 
REMARK  9 active torsions:
REMARK  status: ('A' for Active; 'I' for Inactive)
REMARK    1  A    between atoms: C_1  and  C_2
REMARK    2  A    between atoms: C_4  and  C_5
REMARK    3  A    between atoms: C_6  and  N_7
REMARK    4  A    between atoms: C_8  and  S_9
REMARK    5  A    between atoms: N_10  and  C_11
REMARK    6  A    between atoms: N_10  and  C_18
REMARK    7  A    between atoms: C_11  and  C_12
REMARK    8  A    between atoms: C_18  and  C_19
REMARK    9  A    between atoms: C_24  and  C_25
REMARK                            x       y       z     vdW  Elec       q    Type
REMARK                         _______ _______ _______ _____ _____    ______ ____
ROOT
ATOM      1  N   UNL     1      -3.244  12.371  20.524  0.00  0.00    +0.000 NA
ATOM      2  C   UNL     1      -2.015  12.604  20.135  0.00  0.00    +0.000 C 
ATOM      3  N   UNL     1      -1.326  11.686  19.328  0.00  0.00    +0.000 N 
ENDROOT
BRANCH   1   9
ATOM      4  C   UNL     1      -6.555  15.579  24.014  0.00  0.00    +0.000 C 
ATOM      5  C   UNL     1      -5.673  14.779  23.106  0.00  0.00    +0.000 A 
ATOM      6  C   UNL     1      -5.885  14.777  21.731  0.00  0.00    +0.000 A 
ATOM      7  C   UNL     1      -5.125  13.955  20.866  0.00  0.00    +0.000 A 
ATOM      8  C   UNL     1      -5.562  13.914  19.419  0.00  0.00    +0.000 C 
ATOM      9  C   UNL     1      -4.044  13.189  21.357  0.00  0.00    +0.000 A 
ATOM     10  C   UNL     1      -3.878  13.143  22.767  0.00  0.00    +0.000 A 
ATOM     11  C   UNL     1      -2.938  12.192  23.457  0.00  0.00    +0.000 C 
ATOM     12  C   UNL     1      -4.680  13.950  23.614  0.00  0.00    +0.000 A 
ENDBRANCH   1   9
BRANCH   2  13
ATOM     13  S   UNL     1      -1.107  14.061  20.582  0.00  0.00    +0.000 S 
ATOM     14  H   UNL     1       0.127  13.565  20.489  0.00  0.00    +0.000 HD
ENDBRANCH   2  13
BRANCH   3  15
ATOM     15  C   UNL     1      -1.967  10.430  18.930  0.00  0.00    +0.000 C 
BRANCH  15  16
ATOM     16  C   UNL     1      -2.591  10.450  17.549  0.00  0.00    +0.000 A 
ATOM     17  C   UNL     1      -2.068   9.765  16.446  0.00  0.00    +0.000 A 
ATOM     18  C   UNL     1      -2.707   9.846  15.205  0.00  0.00    +0.000 A 
ATOM     19  C   UNL     1      -3.853  10.615  15.107  0.00  0.00    +0.000 A 
ATOM     20  N   UNL     1      -4.402  11.279  16.147  0.00  0.00    +0.000 NA
ATOM     21  C   UNL     1      -3.753  11.174  17.330  0.00  0.00    +0.000 A 
ENDBRANCH  15  16
ENDBRANCH   3  15
BRANCH   3  22
ATOM     22  C   UNL     1       0.126  11.746  19.051  0.00  0.00    +0.000 C 
BRANCH  22  23
ATOM     23  C   UNL     1       0.872  10.454  18.944  0.00  0.00    +0.000 A 
ATOM     24  C   UNL     1       1.466   9.756  17.911  0.00  0.00    +0.000 A 
ATOM     25  C   UNL     1       1.938   8.536  18.468  0.00  0.00    +0.000 A 
ATOM     26  C   UNL     1       1.614   8.566  19.805  0.00  0.00    +0.000 A 
ATOM     27  O   UNL     1       0.954   9.721  20.099  0.00  0.00    +0.000 OA
ENDBRANCH  22  23
ENDBRANCH   3  22
TORSDOF 6
ENDMDL
MODEL 5
REMARK VINA RESULT:      -6.9      8.400     10.070
REMARK  Name = 
REMARK  9 active torsions:
REMARK  status: ('A' for Active; 'I' for Inactive)
REMARK    1  A    between atoms: C_1  and  C_2
REMARK    2  A    between atoms: C_4  and  C_5
REMARK    3  A    between atoms: C_6  and  N_7
REMARK    4  A    between atoms: C_8  and  S_9
REMARK    5  A    between atoms: N_10  and  C_11
REMARK    6  A    between atoms: N_10  and  C_18
REMARK    7  A    between atoms: C_11  and  C_12
REMARK    8  A    between atoms: C_18  and  C_19
REMARK    9  A    between atoms: C_24  and  C_25
REMARK                            x       y       z     vdW  Elec       q    Type
REMARK                         _______ _______ _______ _____ _____    ______ ____
ROOT
ATOM      1  N   UNL     1      -1.681  11.304  19.296  0.00  0.00    +0.000 NA
ATOM      2  C   UNL     1      -0.588  12.010  19.139  0.00  0.00    +0.000 C 
ATOM      3  N   UNL     1       0.627  11.596  19.705  0.00  0.00    +0.000 N 
ENDROOT
BRANCH   1   9
ATOM      4  C   UNL     1      -7.025  12.507  17.444  0.00  0.00    +0.000 C 
ATOM      5  C   UNL     1      -5.628  12.228  17.905  0.00  0.00    +0.000 A 
ATOM      6  C   UNL     1      -4.772  11.442  17.140  0.00  0.00    +0.000 A 
ATOM      7  C   UNL     1      -3.482  11.087  17.601  0.00  0.00    +0.000 A 
ATOM      8  C   UNL     1      -2.715  10.093  16.759  0.00  0.00    +0.000 C 
ATOM      9  C   UNL     1      -2.973  11.615  18.809  0.00  0.00    +0.000 A 
ATOM     10  C   UNL     1      -3.875  12.359  19.615  0.00  0.00    +0.000 A 
ATOM     11  C   UNL     1      -3.568  12.778  21.027  0.00  0.00    +0.000 C 
ATOM     12  C   UNL     1      -5.177  12.668  19.143  0.00  0.00    +0.000 A 
ENDBRANCH   1   9
BRANCH   2  13
ATOM     13  S   UNL     1      -0.528  13.531  18.227  0.00  0.00    +0.000 S 
ATOM     14  H   UNL     1       0.127  13.093  17.152  0.00  0.00    +0.000 HD
ENDBRANCH   2  13
BRANCH   3  15
ATOM     15  C   UNL     1       0.685  10.374  20.511  0.00  0.00    +0.000 C 
BRANCH  15  16
ATOM     16  C   UNL     1       1.322   9.188  19.814  0.00  0.00    +0.000 A 
ATOM     17  C   UNL     1       1.653   9.166  18.454  0.00  0.00    +0.000 A 
ATOM     18  C   UNL     1       2.232   8.025  17.892  0.00  0.00    +0.000 A 
ATOM     19  C   UNL     1       2.459   6.934  18.714  0.00  0.00    +0.000 A 
ATOM     20  N   UNL     1       2.171   6.915  20.033  0.00  0.00    +0.000 NA
ATOM     21  C   UNL     1       1.613   8.042  20.537  0.00  0.00    +0.000 A 
ENDBRANCH  15  16
ENDBRANCH   3  15
BRANCH   3  22
ATOM     22  C   UNL     1       1.838  12.442  19.791  0.00  0.00    +0.000 C 
BRANCH  22  23
ATOM     23  C   UNL     1       1.805  13.623  20.708  0.00  0.00    +0.000 A 
ATOM     24  C   UNL     1       0.925  14.084  21.667  0.00  0.00    +0.000 A 
ATOM     25  C   UNL     1       1.443  15.329  22.121  0.00  0.00    +0.000 A 
ATOM     26  C   UNL     1       2.607  15.546  21.422  0.00  0.00    +0.000 A 
ATOM     27  O   UNL     1       2.827  14.522  20.551  0.00  0.00    +0.000 OA
ENDBRANCH  22  23
ENDBRANCH   3  22
TORSDOF 6
ENDMDL
MODEL 6
REMARK VINA RESULT:      -6.9      9.631     12.139
REMARK  Name = 
REMARK  9 active torsions:
REMARK  status: ('A' for Active; 'I' for Inactive)
REMARK    1  A    between atoms: C_1  and  C_2
REMARK    2  A    between atoms: C_4  and  C_5
REMARK    3  A    between atoms: C_6  and  N_7
REMARK    4  A    between atoms: C_8  and  S_9
REMARK    5  A    between atoms: N_10  and  C_11
REMARK    6  A    between atoms: N_10  and  C_18
REMARK    7  A    between atoms: C_11  and  C_12
REMARK    8  A    between atoms: C_18  and  C_19
REMARK    9  A    between atoms: C_24  and  C_25
REMARK                            x       y       z     vdW  Elec       q    Type
REMARK                         _______ _______ _______ _____ _____    ______ ____
ROOT
ATOM      1  N   UNL     1      -1.421  11.812  19.899  0.00  0.00    +0.000 NA
ATOM      2  C   UNL     1      -0.636  12.852  20.040  0.00  0.00    +0.000 C 
ATOM      3  N   UNL     1      -0.142  13.219  21.301  0.00  0.00    +0.000 N 
ENDROOT
BRANCH   1   9
ATOM      4  C   UNL     1      -3.955   9.844  15.089  0.00  0.00    +0.000 C 
ATOM      5  C   UNL     1      -3.285  10.385  16.314  0.00  0.00    +0.000 A 
ATOM      6  C   UNL     1      -1.973  10.037  16.618  0.00  0.00    +0.000 A 
ATOM      7  C   UNL     1      -1.354  10.460  17.818  0.00  0.00    +0.000 A 
ATOM      8  C   UNL     1       0.010   9.879  18.114  0.00  0.00    +0.000 C 
ATOM      9  C   UNL     1      -2.011  11.347  18.699  0.00  0.00    +0.000 A 
ATOM     10  C   UNL     1      -3.372  11.642  18.418  0.00  0.00    +0.000 A 
ATOM     11  C   UNL     1      -4.276  12.367  19.378  0.00  0.00    +0.000 C 
ATOM     12  C   UNL     1      -3.978  11.173  17.224  0.00  0.00    +0.000 A 
ENDBRANCH   1   9
BRANCH   2  13
ATOM     13  S   UNL     1      -0.132  13.889  18.691  0.00  0.00    +0.000 S 
ATOM     14  H   UNL     1      -0.839  13.311  17.720  0.00  0.00    +0.000 HD
ENDBRANCH   2  13
BRANCH   3  15
ATOM     15  C   UNL     1      -0.524  12.455  22.492  0.00  0.00    +0.000 C 
BRANCH  15  16
ATOM     16  C   UNL     1      -1.793  12.934  23.169  0.00  0.00    +0.000 A 
ATOM     17  C   UNL     1      -3.016  12.255  23.107  0.00  0.00    +0.000 A 
ATOM     18  C   UNL     1      -4.138  12.775  23.757  0.00  0.00    +0.000 A 
ATOM     19  C   UNL     1      -4.001  13.965  24.449  0.00  0.00    +0.000 A 
ATOM     20  N   UNL     1      -2.839  14.646  24.550  0.00  0.00    +0.000 NA
ATOM     21  C   UNL     1      -1.776  14.107  23.907  0.00  0.00    +0.000 A 
ENDBRANCH  15  16
ENDBRANCH   3  15
BRANCH   3  22
ATOM     22  C   UNL     1       0.536  14.501  21.590  0.00  0.00    +0.000 C 
BRANCH  22  23
ATOM     23  C   UNL     1       2.032  14.517  21.600  0.00  0.00    +0.000 A 
ATOM     24  C   UNL     1       3.015  13.979  20.794  0.00  0.00    +0.000 A 
ATOM     25  C   UNL     1       4.257  14.294  21.410  0.00  0.00    +0.000 A 
ATOM     26  C   UNL     1       3.959  15.011  22.546  0.00  0.00    +0.000 A 
ATOM     27  O   UNL     1       2.609  15.139  22.676  0.00  0.00    +0.000 OA
ENDBRANCH  22  23
ENDBRANCH   3  22
TORSDOF 6
ENDMDL
MODEL 7
REMARK VINA RESULT:      -6.9     10.837     13.150
REMARK  Name = 
REMARK  9 active torsions:
REMARK  status: ('A' for Active; 'I' for Inactive)
REMARK    1  A    between atoms: C_1  and  C_2
REMARK    2  A    between atoms: C_4  and  C_5
REMARK    3  A    between atoms: C_6  and  N_7
REMARK    4  A    between atoms: C_8  and  S_9
REMARK    5  A    between atoms: N_10  and  C_11
REMARK    6  A    between atoms: N_10  and  C_18
REMARK    7  A    between atoms: C_11  and  C_12
REMARK    8  A    between atoms: C_18  and  C_19
REMARK    9  A    between atoms: C_24  and  C_25
REMARK                            x       y       z     vdW  Elec       q    Type
REMARK                         _______ _______ _______ _____ _____    ______ ____
ROOT
ATOM      1  N   UNL     1      -1.387  11.590  21.769  0.00  0.00    +0.000 NA
ATOM      2  C   UNL     1      -1.261  12.846  22.123  0.00  0.00    +0.000 C 
ATOM      3  N   UNL     1      -2.153  13.433  23.033  0.00  0.00    +0.000 N 
ENDROOT
BRANCH   1   9
ATOM      4  C   UNL     1       1.761   8.631  17.926  0.00  0.00    +0.000 C 
ATOM      5  C   UNL     1       0.974   9.425  18.922  0.00  0.00    +0.000 A 
ATOM      6  C   UNL     1       1.153   9.228  20.288  0.00  0.00    +0.000 A 
ATOM      7  C   UNL     1       0.353   9.899  21.244  0.00  0.00    +0.000 A 
ATOM      8  C   UNL     1       0.527   9.474  22.684  0.00  0.00    +0.000 C 
ATOM      9  C   UNL     1      -0.582  10.880  20.846  0.00  0.00    +0.000 A 
ATOM     10  C   UNL     1      -0.807  11.026  19.451  0.00  0.00    +0.000 A 
ATOM     11  C   UNL     1      -1.931  11.844  18.877  0.00  0.00    +0.000 C 
ATOM     12  C   UNL     1      -0.015  10.312  18.516  0.00  0.00    +0.000 A 
ENDBRANCH   1   9
BRANCH   2  13
ATOM     13  S   UNL     1       0.010  13.916  21.499  0.00  0.00    +0.000 S 
ATOM     14  H   UNL     1      -0.730  14.630  20.651  0.00  0.00    +0.000 HD
ENDBRANCH   2  13
BRANCH   3  15
ATOM     15  C   UNL     1      -3.263  12.651  23.583  0.00  0.00    +0.000 C 
BRANCH  15  16
ATOM     16  C   UNL     1      -4.605  12.915  22.929  0.00  0.00    +0.000 A 
ATOM     17  C   UNL     1      -4.867  12.703  21.570  0.00  0.00    +0.000 A 
ATOM     18  C   UNL     1      -6.134  12.981  21.051  0.00  0.00    +0.000 A 
ATOM     19  C   UNL     1      -7.103  13.466  21.912  0.00  0.00    +0.000 A 
ATOM     20  N   UNL     1      -6.901  13.670  23.231  0.00  0.00    +0.000 NA
ATOM     21  C   UNL     1      -5.661  13.387  23.694  0.00  0.00    +0.000 A 
ENDBRANCH  15  16
ENDBRANCH   3  15
BRANCH   3  22
ATOM     22  C   UNL     1      -2.239  14.886  23.295  0.00  0.00    +0.000 C 
BRANCH  22  23
ATOM     23  C   UNL     1      -1.599  15.413  24.540  0.00  0.00    +0.000 A 
ATOM     24  C   UNL     1      -1.880  15.328  25.889  0.00  0.00    +0.000 A 
ATOM     25  C   UNL     1      -0.918  16.138  26.552  0.00  0.00    +0.000 A 
ATOM     26  C   UNL     1      -0.105  16.659  25.573  0.00  0.00    +0.000 A 
ATOM     27  O   UNL     1      -0.521  16.236  24.347  0.00  0.00    +0.000 OA
ENDBRANCH  22  23
ENDBRANCH   3  22
TORSDOF 6
ENDMDL
MODEL 8
REMARK VINA RESULT:      -6.9      3.661      7.308
REMARK  Name = 
REMARK  9 active torsions:
REMARK  status: ('A' for Active; 'I' for Inactive)
REMARK    1  A    between atoms: C_1  and  C_2
REMARK    2  A    between atoms: C_4  and  C_5
REMARK    3  A    between atoms: C_6  and  N_7
REMARK    4  A    between atoms: C_8  and  S_9
REMARK    5  A    between atoms: N_10  and  C_11
REMARK    6  A    between atoms: N_10  and  C_18
REMARK    7  A    between atoms: C_11  and  C_12
REMARK    8  A    between atoms: C_18  and  C_19
REMARK    9  A    between atoms: C_24  and  C_25
REMARK                            x       y       z     vdW  Elec       q    Type
REMARK                         _______ _______ _______ _____ _____    ______ ____
ROOT
ATOM      1  N   UNL     1       3.807   5.949  18.544  0.00  0.00    +0.000 NA
ATOM      2  C   UNL     1       2.985   6.967  18.621  0.00  0.00    +0.000 C 
ATOM      3  N   UNL     1       2.265   7.228  19.797  0.00  0.00    +0.000 N 
ENDROOT
BRANCH   1   9
ATOM      4  C   UNL     1       6.945   4.185  14.020  0.00  0.00    +0.000 C 
ATOM      5  C   UNL     1       6.112   4.665  15.167  0.00  0.00    +0.000 A 
ATOM      6  C   UNL     1       6.498   5.778  15.908  0.00  0.00    +0.000 A 
ATOM      7  C   UNL     1       5.777   6.192  17.053  0.00  0.00    +0.000 A 
ATOM      8  C   UNL     1       6.390   7.307  17.869  0.00  0.00    +0.000 C 
ATOM      9  C   UNL     1       4.571   5.554  17.420  0.00  0.00    +0.000 A 
ATOM     10  C   UNL     1       4.220   4.380  16.702  0.00  0.00    +0.000 A 
ATOM     11  C   UNL     1       3.109   3.456  17.121  0.00  0.00    +0.000 C 
ATOM     12  C   UNL     1       4.984   3.967  15.580  0.00  0.00    +0.000 A 
ENDBRANCH   1   9
BRANCH   2  13
ATOM     13  S   UNL     1       2.693   8.093  17.282  0.00  0.00    +0.000 S 
ATOM     14  H   UNL     1       3.904   8.061  16.726  0.00  0.00    +0.000 HD
ENDBRANCH   2  13
BRANCH   3  15
ATOM     15  C   UNL     1       2.401   6.340  20.955  0.00  0.00    +0.000 C 
BRANCH  15  16
ATOM     16  C   UNL     1       2.069   4.887  20.678  0.00  0.00    +0.000 A 
ATOM     17  C   UNL     1       0.860   4.454  20.121  0.00  0.00    +0.000 A 
ATOM     18  C   UNL     1       0.637   3.091  19.908  0.00  0.00    +0.000 A 
ATOM     19  C   UNL     1       1.635   2.200  20.263  0.00  0.00    +0.000 A 
ATOM     20  N   UNL     1       2.822   2.573  20.787  0.00  0.00    +0.000 NA
ATOM     21  C   UNL     1       2.998   3.902  20.976  0.00  0.00    +0.000 A 
ENDBRANCH  15  16
ENDBRANCH   3  15
BRANCH   3  22
ATOM     22  C   UNL     1       1.146   8.189  19.894  0.00  0.00    +0.000 C 
BRANCH  22  23
ATOM     23  C   UNL     1       0.789   8.717  21.247  0.00  0.00    +0.000 A 
ATOM     24  C   UNL     1       1.506   9.216  22.316  0.00  0.00    +0.000 A 
ATOM     25  C   UNL     1       0.563   9.466  23.351  0.00  0.00    +0.000 A 
ATOM     26  C   UNL     1      -0.669   9.114  22.850  0.00  0.00    +0.000 A 
ATOM     27  O   UNL     1      -0.539   8.645  21.578  0.00  0.00    +0.000 OA
ENDBRANCH  22  23
ENDBRANCH   3  22
TORSDOF 6
ENDMDL
MODEL 9
REMARK VINA RESULT:      -6.8     10.180     12.446
REMARK  Name = 
REMARK  9 active torsions:
REMARK  status: ('A' for Active; 'I' for Inactive)
REMARK    1  A    between atoms: C_1  and  C_2
REMARK    2  A    between atoms: C_4  and  C_5
REMARK    3  A    between atoms: C_6  and  N_7
REMARK    4  A    between atoms: C_8  and  S_9
REMARK    5  A    between atoms: N_10  and  C_11
REMARK    6  A    between atoms: N_10  and  C_18
REMARK    7  A    between atoms: C_11  and  C_12
REMARK    8  A    between atoms: C_18  and  C_19
REMARK    9  A    between atoms: C_24  and  C_25
REMARK                            x       y       z     vdW  Elec       q    Type
REMARK                         _______ _______ _______ _____ _____    ______ ____
ROOT
ATOM      1  N   UNL     1      -1.065  11.208  20.660  0.00  0.00    +0.000 NA
ATOM      2  C   UNL     1      -0.799  12.466  20.910  0.00  0.00    +0.000 C 
ATOM      3  N   UNL     1      -1.829  13.409  21.051  0.00  0.00    +0.000 N 
ENDROOT
BRANCH   1   9
ATOM      4  C   UNL     1       2.641   6.861  19.766  0.00  0.00    +0.000 C 
ATOM      5  C   UNL     1       1.712   8.011  20.003  0.00  0.00    +0.000 A 
ATOM      6  C   UNL     1       1.265   8.310  21.286  0.00  0.00    +0.000 A 
ATOM      7  C   UNL     1       0.314   9.331  21.520  0.00  0.00    +0.000 A 
ATOM      8  C   UNL     1      -0.219   9.446  22.930  0.00  0.00    +0.000 C 
ATOM      9  C   UNL     1      -0.132  10.161  20.468  0.00  0.00    +0.000 A 
ATOM     10  C   UNL     1       0.275   9.807  19.154  0.00  0.00    +0.000 A 
ATOM     11  C   UNL     1      -0.302  10.434  17.913  0.00  0.00    +0.000 C 
ATOM     12  C   UNL     1       1.201   8.754  18.946  0.00  0.00    +0.000 A 
ENDBRANCH   1   9
BRANCH   2  13
ATOM     13  S   UNL     1       0.848  13.102  21.083  0.00  0.00    +0.000 S 
ATOM     14  H   UNL     1       0.736  13.616  22.308  0.00  0.00    +0.000 HD
ENDBRANCH   2  13
BRANCH   3  15
ATOM     15  C   UNL     1      -3.227  13.001  20.890  0.00  0.00    +0.000 C 
BRANCH  15  16
ATOM     16  C   UNL     1      -3.981  12.804  22.190  0.00  0.00    +0.000 A 
ATOM     17  C   UNL     1      -3.363  12.550  23.420  0.00  0.00    +0.000 A 
ATOM     18  C   UNL     1      -4.139  12.374  24.569  0.00  0.00    +0.000 A 
ATOM     19  C   UNL     1      -5.515  12.455  24.449  0.00  0.00    +0.000 A 
ATOM     20  N   UNL     1      -6.153  12.714  23.287  0.00  0.00    +0.000 NA
ATOM     21  C   UNL     1      -5.365  12.880  22.199  0.00  0.00    +0.000 A 
ENDBRANCH  15  16
ENDBRANCH   3  15
BRANCH   3  22
ATOM     22  C   UNL     1      -1.620  14.873  21.083  0.00  0.00    +0.000 C 
BRANCH  22  23
ATOM     23  C   UNL     1      -1.752  15.570  22.400  0.00  0.00    +0.000 A 
ATOM     24  C   UNL     1      -2.462  16.664  22.853  0.00  0.00    +0.000 A 
ATOM     25  C   UNL     1      -2.074  16.862  24.207  0.00  0.00    +0.000 A 
ATOM     26  C   UNL     1      -1.162  15.875  24.500  0.00  0.00    +0.000 A 
ATOM     27  O   UNL     1      -0.950  15.095  23.404  0.00  0.00    +0.000 OA
ENDBRANCH  22  23
ENDBRANCH   3  22
TORSDOF 6
ENDMDL
