MODEL 1
REMARK VINA RESULT:      -7.4      0.000      0.000
REMARK  Name = 
REMARK  5 active torsions:
REMARK  status: ('A' for Active; 'I' for Inactive)
REMARK    1  A    between atoms: C_1  and  O_2
REMARK    2  A    between atoms: O_2  and  C_3
REMARK    3  A    between atoms: C_5  and  C_6
REMARK    4  A    between atoms: C_10  and  O_11
REMARK    5  A    between atoms: O_11  and  C_12
REMARK                            x       y       z     vdW  Elec       q    Type
REMARK                         _______ _______ _______ _____ _____    ______ ____
ROOT
ATOM      1  C   UNL     1       6.735   4.869  17.535  0.00  0.00    +0.000 A 
ATOM      2  C   UNL     1       7.279   4.615  16.267  0.00  0.00    +0.000 A 
ATOM      3  C   UNL     1       6.574   4.901  15.088  0.00  0.00    +0.000 A 
ATOM      4  C   UNL     1       5.294   5.454  15.191  0.00  0.00    +0.000 A 
ATOM      5  C   UNL     1       4.746   5.723  16.446  0.00  0.00    +0.000 A 
ATOM      6  C   UNL     1       5.452   5.434  17.624  0.00  0.00    +0.000 A 
ENDROOT
BRANCH   1   8
ATOM      7  C   UNL     1       8.028   5.802  19.285  0.00  0.00    +0.000 C 
ATOM      8  O   UNL     1       7.458   4.640  18.679  0.00  0.00    +0.000 OA
ENDBRANCH   1   8
BRANCH   3   9
ATOM      9  C   UNL     1       7.223   4.684  13.749  0.00  0.00    +0.000 C 
ATOM     10 CL   UNL     1       6.240   3.627  12.712  0.00  0.00    +0.000 Cl
ENDBRANCH   3   9
BRANCH   6  11
ATOM     11  O   UNL     1       4.783   5.838  18.764  0.00  0.00    +0.000 OA
BRANCH  11  12
ATOM     12  C   UNL     1       3.933   4.994  19.436  0.00  0.00    +0.000 A 
ATOM     13  C   UNL     1       4.165   3.617  19.538  0.00  0.00    +0.000 A 
ATOM     14  C   UNL     1       3.325   2.820  20.320  0.00  0.00    +0.000 A 
ATOM     15  C   UNL     1       2.205   3.387  20.926  0.00  0.00    +0.000 A 
ATOM     16 CL   UNL     1       1.205   2.414  21.934  0.00  0.00    +0.000 Cl
ATOM     17  C   UNL     1       1.893   4.731  20.730  0.00  0.00    +0.000 A 
ATOM     18  C   UNL     1       2.756   5.529  19.977  0.00  0.00    +0.000 A 
ATOM     19 CL   UNL     1       2.318   7.183  19.723  0.00  0.00    +0.000 Cl
ENDBRANCH  11  12
ENDBRANCH   6  11
TORSDOF 4
ENDMDL
MODEL 2
REMARK VINA RESULT:      -7.0      1.047      1.055
REMARK  Name = 
REMARK  5 active torsions:
REMARK  status: ('A' for Active; 'I' for Inactive)
REMARK    1  A    between atoms: C_1  and  O_2
REMARK    2  A    between atoms: O_2  and  C_3
REMARK    3  A    between atoms: C_5  and  C_6
REMARK    4  A    between atoms: C_10  and  O_11
REMARK    5  A    between atoms: O_11  and  C_12
REMARK                            x       y       z     vdW  Elec       q    Type
REMARK                         _______ _______ _______ _____ _____    ______ ____
ROOT
ATOM      1  C   UNL     1       6.880   5.411  16.645  0.00  0.00    +0.000 A 
ATOM      2  C   UNL     1       7.198   4.965  15.354  0.00  0.00    +0.000 A 
ATOM      3  C   UNL     1       6.257   4.312  14.543  0.00  0.00    +0.000 A 
ATOM      4  C   UNL     1       4.970   4.104  15.046  0.00  0.00    +0.000 A 
ATOM      5  C   UNL     1       4.636   4.553  16.325  0.00  0.00    +0.000 A 
ATOM      6  C   UNL     1       5.579   5.205  17.135  0.00  0.00    +0.000 A 
ENDROOT
BRANCH   1   8
ATOM      7  C   UNL     1       7.555   7.507  17.517  0.00  0.00    +0.000 C 
ATOM      8  O   UNL     1       7.790   6.101  17.405  0.00  0.00    +0.000 OA
ENDBRANCH   1   8
BRANCH   3   9
ATOM      9  C   UNL     1       6.617   3.918  13.137  0.00  0.00    +0.000 C 
ATOM     10 CL   UNL     1       5.189   3.377  12.227  0.00  0.00    +0.000 Cl
ENDBRANCH   3   9
BRANCH   6  11
ATOM     11  O   UNL     1       5.047   5.643  18.333  0.00  0.00    +0.000 OA
BRANCH  11  12
ATOM     12  C   UNL     1       4.210   4.851  19.080  0.00  0.00    +0.000 A 
ATOM     13  C   UNL     1       4.442   3.485  19.276  0.00  0.00    +0.000 A 
ATOM     14  C   UNL     1       3.617   2.747  20.129  0.00  0.00    +0.000 A 
ATOM     15  C   UNL     1       2.509   3.359  20.715  0.00  0.00    +0.000 A 
ATOM     16 CL   UNL     1       1.529   2.463  21.809  0.00  0.00    +0.000 Cl
ATOM     17  C   UNL     1       2.195   4.686  20.429  0.00  0.00    +0.000 A 
ATOM     18  C   UNL     1       3.044   5.426  19.604  0.00  0.00    +0.000 A 
ATOM     19 CL   UNL     1       2.603   7.058  19.241  0.00  0.00    +0.000 Cl
ENDBRANCH  11  12
ENDBRANCH   6  11
TORSDOF 4
ENDMDL
MODEL 3
REMARK VINA RESULT:      -6.7      1.263      2.367
REMARK  Name = 
REMARK  5 active torsions:
REMARK  status: ('A' for Active; 'I' for Inactive)
REMARK    1  A    between atoms: C_1  and  O_2
REMARK    2  A    between atoms: O_2  and  C_3
REMARK    3  A    between atoms: C_5  and  C_6
REMARK    4  A    between atoms: C_10  and  O_11
REMARK    5  A    between atoms: O_11  and  C_12
REMARK                            x       y       z     vdW  Elec       q    Type
REMARK                         _______ _______ _______ _____ _____    ______ ____
ROOT
ATOM      1  C   UNL     1       6.410   4.356  17.674  0.00  0.00    +0.000 A 
ATOM      2  C   UNL     1       7.096   4.628  16.481  0.00  0.00    +0.000 A 
ATOM      3  C   UNL     1       6.472   4.526  15.228  0.00  0.00    +0.000 A 
ATOM      4  C   UNL     1       5.128   4.144  15.178  0.00  0.00    +0.000 A 
ATOM      5  C   UNL     1       4.430   3.882  16.359  0.00  0.00    +0.000 A 
ATOM      6  C   UNL     1       5.057   3.982  17.611  0.00  0.00    +0.000 A 
ENDROOT
BRANCH   1   8
ATOM      7  C   UNL     1       7.582   5.807  19.134  0.00  0.00    +0.000 C 
ATOM      8  O   UNL     1       7.014   4.517  18.895  0.00  0.00    +0.000 OA
ENDBRANCH   1   8
BRANCH   3   9
ATOM      9  C   UNL     1       7.222   4.899  13.979  0.00  0.00    +0.000 C 
ATOM     10 CL   UNL     1       6.713   3.909  12.594  0.00  0.00    +0.000 Cl
ENDBRANCH   3   9
BRANCH   6  11
ATOM     11  O   UNL     1       4.190   3.762  18.665  0.00  0.00    +0.000 OA
BRANCH  11  12
ATOM     12  C   UNL     1       3.469   4.786  19.227  0.00  0.00    +0.000 A 
ATOM     13  C   UNL     1       3.554   6.107  18.771  0.00  0.00    +0.000 A 
ATOM     14  C   UNL     1       2.722   7.091  19.310  0.00  0.00    +0.000 A 
ATOM     15  C   UNL     1       1.869   6.771  20.366  0.00  0.00    +0.000 A 
ATOM     16 CL   UNL     1       0.806   7.971  20.990  0.00  0.00    +0.000 Cl
ATOM     17  C   UNL     1       1.866   5.489  20.914  0.00  0.00    +0.000 A 
ATOM     18  C   UNL     1       2.674   4.501  20.346  0.00  0.00    +0.000 A 
ATOM     19 CL   UNL     1       2.671   2.933  21.075  0.00  0.00    +0.000 Cl
ENDBRANCH  11  12
ENDBRANCH   6  11
TORSDOF 4
ENDMDL
MODEL 4
REMARK VINA RESULT:      -6.5      4.064      6.577
REMARK  Name = 
REMARK  5 active torsions:
REMARK  status: ('A' for Active; 'I' for Inactive)
REMARK    1  A    between atoms: C_1  and  O_2
REMARK    2  A    between atoms: O_2  and  C_3
REMARK    3  A    between atoms: C_5  and  C_6
REMARK    4  A    between atoms: C_10  and  O_11
REMARK    5  A    between atoms: O_11  and  C_12
REMARK                            x       y       z     vdW  Elec       q    Type
REMARK                         _______ _______ _______ _____ _____    ______ ____
ROOT
ATOM      1  C   UNL     1       1.004   8.969  20.580  0.00  0.00    +0.000 A 
ATOM      2  C   UNL     1       0.110   9.969  20.170  0.00  0.00    +0.000 A 
ATOM      3  C   UNL     1       0.013  10.373  18.830  0.00  0.00    +0.000 A 
ATOM      4  C   UNL     1       0.836   9.754  17.884  0.00  0.00    +0.000 A 
ATOM      5  C   UNL     1       1.722   8.749  18.276  0.00  0.00    +0.000 A 
ATOM      6  C   UNL     1       1.818   8.348  19.618  0.00  0.00    +0.000 A 
ENDROOT
BRANCH   1   8
ATOM      7  C   UNL     1       0.395   9.393  22.829  0.00  0.00    +0.000 C 
ATOM      8  O   UNL     1       1.046   8.541  21.883  0.00  0.00    +0.000 OA
ENDBRANCH   1   8
BRANCH   3   9
ATOM      9  C   UNL     1      -1.011  11.394  18.421  0.00  0.00    +0.000 C 
ATOM     10 CL   UNL     1      -2.135  10.741  17.209  0.00  0.00    +0.000 Cl
ENDBRANCH   3   9
BRANCH   6  11
ATOM     11  O   UNL     1       2.690   7.291  19.802  0.00  0.00    +0.000 OA
BRANCH  11  12
ATOM     12  C   UNL     1       2.288   5.990  19.627  0.00  0.00    +0.000 A 
ATOM     13  C   UNL     1       1.505   5.310  20.566  0.00  0.00    +0.000 A 
ATOM     14  C   UNL     1       1.037   4.023  20.291  0.00  0.00    +0.000 A 
ATOM     15  C   UNL     1       1.427   3.384  19.115  0.00  0.00    +0.000 A 
ATOM     16 CL   UNL     1       0.804   1.822  18.753  0.00  0.00    +0.000 Cl
ATOM     17  C   UNL     1       2.308   4.002  18.229  0.00  0.00    +0.000 A 
ATOM     18  C   UNL     1       2.743   5.303  18.493  0.00  0.00    +0.000 A 
ATOM     19 CL   UNL     1       3.865   6.022  17.391  0.00  0.00    +0.000 Cl
ENDBRANCH  11  12
ENDBRANCH   6  11
TORSDOF 4
ENDMDL
MODEL 5
REMARK VINA RESULT:      -6.4      2.467      6.258
REMARK  Name = 
REMARK  5 active torsions:
REMARK  status: ('A' for Active; 'I' for Inactive)
REMARK    1  A    between atoms: C_1  and  O_2
REMARK    2  A    between atoms: O_2  and  C_3
REMARK    3  A    between atoms: C_5  and  C_6
REMARK    4  A    between atoms: C_10  and  O_11
REMARK    5  A    between atoms: O_11  and  C_12
REMARK                            x       y       z     vdW  Elec       q    Type
REMARK                         _______ _______ _______ _____ _____    ______ ____
ROOT
ATOM      1  C   UNL     1       3.128   5.481  19.606  0.00  0.00    +0.000 A 
ATOM      2  C   UNL     1       2.313   6.600  19.824  0.00  0.00    +0.000 A 
ATOM      3  C   UNL     1       2.327   7.707  18.961  0.00  0.00    +0.000 A 
ATOM      4  C   UNL     1       3.181   7.683  17.856  0.00  0.00    +0.000 A 
ATOM      5  C   UNL     1       3.990   6.569  17.619  0.00  0.00    +0.000 A 
ATOM      6  C   UNL     1       3.975   5.464  18.485  0.00  0.00    +0.000 A 
ENDROOT
BRANCH   1   8
ATOM      7  C   UNL     1       1.755   4.047  20.897  0.00  0.00    +0.000 C 
ATOM      8  O   UNL     1       3.061   4.380  20.423  0.00  0.00    +0.000 OA
ENDBRANCH   1   8
BRANCH   3   9
ATOM      9  C   UNL     1       1.382   8.854  19.190  0.00  0.00    +0.000 C 
ATOM     10 CL   UNL     1       1.626  10.147  17.995  0.00  0.00    +0.000 Cl
ENDBRANCH   3   9
BRANCH   6  11
ATOM     11  O   UNL     1       4.782   4.430  18.048  0.00  0.00    +0.000 OA
BRANCH  11  12
ATOM     12  C   UNL     1       5.454   4.498  16.853  0.00  0.00    +0.000 A 
ATOM     13  C   UNL     1       4.871   4.119  15.638  0.00  0.00    +0.000 A 
ATOM     14  C   UNL     1       5.563   4.306  14.439  0.00  0.00    +0.000 A 
ATOM     15  C   UNL     1       6.870   4.790  14.465  0.00  0.00    +0.000 A 
ATOM     16 CL   UNL     1       7.698   5.073  12.984  0.00  0.00    +0.000 Cl
ATOM     17  C   UNL     1       7.507   5.053  15.677  0.00  0.00    +0.000 A 
ATOM     18  C   UNL     1       6.797   4.898  16.869  0.00  0.00    +0.000 A 
ATOM     19 CL   UNL     1       7.631   5.198  18.354  0.00  0.00    +0.000 Cl
ENDBRANCH  11  12
ENDBRANCH   6  11
TORSDOF 4
ENDMDL
MODEL 6
REMARK VINA RESULT:      -6.3      3.681      5.849
REMARK  Name = 
REMARK  5 active torsions:
REMARK  status: ('A' for Active; 'I' for Inactive)
REMARK    1  A    between atoms: C_1  and  O_2
REMARK    2  A    between atoms: O_2  and  C_3
REMARK    3  A    between atoms: C_5  and  C_6
REMARK    4  A    between atoms: C_10  and  O_11
REMARK    5  A    between atoms: O_11  and  C_12
REMARK                            x       y       z     vdW  Elec       q    Type
REMARK                         _______ _______ _______ _____ _____    ______ ____
ROOT
ATOM      1  C   UNL     1       3.039   6.115  18.303  0.00  0.00    +0.000 A 
ATOM      2  C   UNL     1       2.856   4.768  17.957  0.00  0.00    +0.000 A 
ATOM      3  C   UNL     1       2.105   3.893  18.758  0.00  0.00    +0.000 A 
ATOM      4  C   UNL     1       1.529   4.388  19.931  0.00  0.00    +0.000 A 
ATOM      5  C   UNL     1       1.693   5.730  20.281  0.00  0.00    +0.000 A 
ATOM      6  C   UNL     1       2.445   6.603  19.480  0.00  0.00    +0.000 A 
ENDROOT
BRANCH   1   8
ATOM      7  C   UNL     1       5.078   6.610  17.205  0.00  0.00    +0.000 C 
ATOM      8  O   UNL     1       3.724   6.975  17.482  0.00  0.00    +0.000 OA
ENDBRANCH   1   8
BRANCH   3   9
ATOM      9  C   UNL     1       1.871   2.477  18.312  0.00  0.00    +0.000 C 
ATOM     10 CL   UNL     1       3.391   1.559  18.229  0.00  0.00    +0.000 Cl
ENDBRANCH   3   9
BRANCH   6  11
ATOM     11  O   UNL     1       2.433   7.904  19.944  0.00  0.00    +0.000 OA
BRANCH  11  12
ATOM     12  C   UNL     1       1.414   8.770  19.628  0.00  0.00    +0.000 A 
ATOM     13  C   UNL     1       1.157   9.184  18.316  0.00  0.00    +0.000 A 
ATOM     14  C   UNL     1       0.045   9.982  18.036  0.00  0.00    +0.000 A 
ATOM     15  C   UNL     1      -0.756  10.438  19.082  0.00  0.00    +0.000 A 
ATOM     16 CL   UNL     1      -2.157  11.373  18.729  0.00  0.00    +0.000 Cl
ATOM     17  C   UNL     1      -0.439  10.136  20.405  0.00  0.00    +0.000 A 
ATOM     18  C   UNL     1       0.652   9.308  20.674  0.00  0.00    +0.000 A 
ATOM     19 CL   UNL     1       1.038   8.986  22.329  0.00  0.00    +0.000 Cl
ENDBRANCH  11  12
ENDBRANCH   6  11
TORSDOF 4
ENDMDL
MODEL 7
REMARK VINA RESULT:      -6.2      2.391      3.330
REMARK  Name = 
REMARK  5 active torsions:
REMARK  status: ('A' for Active; 'I' for Inactive)
REMARK    1  A    between atoms: C_1  and  O_2
REMARK    2  A    between atoms: O_2  and  C_3
REMARK    3  A    between atoms: C_5  and  C_6
REMARK    4  A    between atoms: C_10  and  O_11
REMARK    5  A    between atoms: O_11  and  C_12
REMARK                            x       y       z     vdW  Elec       q    Type
REMARK                         _______ _______ _______ _____ _____    ______ ____
ROOT
ATOM      1  C   UNL     1       5.752   5.166  16.522  0.00  0.00    +0.000 A 
ATOM      2  C   UNL     1       6.749   6.123  16.759  0.00  0.00    +0.000 A 
ATOM      3  C   UNL     1       7.173   6.447  18.057  0.00  0.00    +0.000 A 
ATOM      4  C   UNL     1       6.577   5.790  19.138  0.00  0.00    +0.000 A 
ATOM      5  C   UNL     1       5.591   4.827  18.916  0.00  0.00    +0.000 A 
ATOM      6  C   UNL     1       5.168   4.507  17.617  0.00  0.00    +0.000 A 
ENDROOT
BRANCH   1   8
ATOM      7  C   UNL     1       6.307   3.963  14.559  0.00  0.00    +0.000 C 
ATOM      8  O   UNL     1       5.389   4.816  15.246  0.00  0.00    +0.000 OA
ENDBRANCH   1   8
BRANCH   3   9
ATOM      9  C   UNL     1       8.297   7.423  18.263  0.00  0.00    +0.000 C 
ATOM     10 CL   UNL     1       7.828   9.068  17.781  0.00  0.00    +0.000 Cl
ENDBRANCH   3   9
BRANCH   6  11
ATOM     11  O   UNL     1       4.243   3.479  17.591  0.00  0.00    +0.000 OA
BRANCH  11  12
ATOM     12  C   UNL     1       3.499   3.155  18.698  0.00  0.00    +0.000 A 
ATOM     13  C   UNL     1       3.994   2.349  19.729  0.00  0.00    +0.000 A 
ATOM     14  C   UNL     1       3.233   2.135  20.881  0.00  0.00    +0.000 A 
ATOM     15  C   UNL     1       1.942   2.657  20.961  0.00  0.00    +0.000 A 
ATOM     16 CL   UNL     1       1.029   2.440  22.404  0.00  0.00    +0.000 Cl
ATOM     17  C   UNL     1       1.390   3.356  19.889  0.00  0.00    +0.000 A 
ATOM     18  C   UNL     1       2.170   3.596  18.756  0.00  0.00    +0.000 A 
ATOM     19 CL   UNL     1       1.439   4.435  17.432  0.00  0.00    +0.000 Cl
ENDBRANCH  11  12
ENDBRANCH   6  11
TORSDOF 4
ENDMDL
MODEL 8
REMARK VINA RESULT:      -6.2      1.841      6.451
REMARK  Name = 
REMARK  5 active torsions:
REMARK  status: ('A' for Active; 'I' for Inactive)
REMARK    1  A    between atoms: C_1  and  O_2
REMARK    2  A    between atoms: O_2  and  C_3
REMARK    3  A    between atoms: C_5  and  C_6
REMARK    4  A    between atoms: C_10  and  O_11
REMARK    5  A    between atoms: O_11  and  C_12
REMARK                            x       y       z     vdW  Elec       q    Type
REMARK                         _______ _______ _______ _____ _____    ______ ____
ROOT
ATOM      1  C   UNL     1       3.506   5.437  18.561  0.00  0.00    +0.000 A 
ATOM      2  C   UNL     1       2.300   5.058  19.169  0.00  0.00    +0.000 A 
ATOM      3  C   UNL     1       2.160   3.829  19.834  0.00  0.00    +0.000 A 
ATOM      4  C   UNL     1       3.260   2.968  19.886  0.00  0.00    +0.000 A 
ATOM      5  C   UNL     1       4.469   3.339  19.296  0.00  0.00    +0.000 A 
ATOM      6  C   UNL     1       4.606   4.566  18.630  0.00  0.00    +0.000 A 
ENDROOT
BRANCH   1   8
ATOM      7  C   UNL     1       2.552   7.565  18.148  0.00  0.00    +0.000 C 
ATOM      8  O   UNL     1       3.648   6.666  17.967  0.00  0.00    +0.000 OA
ENDBRANCH   1   8
BRANCH   3   9
ATOM      9  C   UNL     1       0.874   3.494  20.537  0.00  0.00    +0.000 C 
ATOM     10 CL   UNL     1       1.160   2.488  21.974  0.00  0.00    +0.000 Cl
ENDBRANCH   3   9
BRANCH   6  11
ATOM     11  O   UNL     1       5.893   4.792  18.178  0.00  0.00    +0.000 OA
BRANCH  11  12
ATOM     12  C   UNL     1       6.214   4.690  16.847  0.00  0.00    +0.000 A 
ATOM     13  C   UNL     1       5.842   3.591  16.064  0.00  0.00    +0.000 A 
ATOM     14  C   UNL     1       6.104   3.585  14.691  0.00  0.00    +0.000 A 
ATOM     15  C   UNL     1       6.816   4.640  14.121  0.00  0.00    +0.000 A 
ATOM     16 CL   UNL     1       7.087   4.657  12.422  0.00  0.00    +0.000 Cl
ATOM     17  C   UNL     1       7.301   5.680  14.911  0.00  0.00    +0.000 A 
ATOM     18  C   UNL     1       7.005   5.697  16.276  0.00  0.00    +0.000 A 
ATOM     19 CL   UNL     1       7.655   6.983  17.232  0.00  0.00    +0.000 Cl
ENDBRANCH  11  12
ENDBRANCH   6  11
TORSDOF 4
ENDMDL
MODEL 9
REMARK VINA RESULT:      -6.2      4.265      7.503
REMARK  Name = 
REMARK  5 active torsions:
REMARK  status: ('A' for Active; 'I' for Inactive)
REMARK    1  A    between atoms: C_1  and  O_2
REMARK    2  A    between atoms: O_2  and  C_3
REMARK    3  A    between atoms: C_5  and  C_6
REMARK    4  A    between atoms: C_10  and  O_11
REMARK    5  A    between atoms: O_11  and  C_12
REMARK                            x       y       z     vdW  Elec       q    Type
REMARK                         _______ _______ _______ _____ _____    ______ ____
ROOT
ATOM      1  C   UNL     1       0.794   9.393  19.506  0.00  0.00    +0.000 A 
ATOM      2  C   UNL     1      -0.124  10.370  19.920  0.00  0.00    +0.000 A 
ATOM      3  C   UNL     1      -0.463  10.543  21.270  0.00  0.00    +0.000 A 
ATOM      4  C   UNL     1       0.136   9.713  22.223  0.00  0.00    +0.000 A 
ATOM      5  C   UNL     1       1.060   8.745  21.826  0.00  0.00    +0.000 A 
ATOM      6  C   UNL     1       1.397   8.572  20.475  0.00  0.00    +0.000 A 
ENDROOT
BRANCH   1   8
ATOM      7  C   UNL     1       2.205  10.154  17.763  0.00  0.00    +0.000 C 
ATOM      8  O   UNL     1       1.162   9.274  18.190  0.00  0.00    +0.000 OA
ENDBRANCH   1   8
BRANCH   3   9
ATOM      9  C   UNL     1      -1.394  11.651  21.678  0.00  0.00    +0.000 C 
ATOM     10 CL   UNL     1      -2.008  11.412  23.329  0.00  0.00    +0.000 Cl
ENDBRANCH   3   9
BRANCH   6  11
ATOM     11  O   UNL     1       2.382   7.622  20.283  0.00  0.00    +0.000 OA
BRANCH  11  12
ATOM     12  C   UNL     1       2.074   6.326  19.947  0.00  0.00    +0.000 A 
ATOM     13  C   UNL     1       1.435   5.450  20.832  0.00  0.00    +0.000 A 
ATOM     14  C   UNL     1       1.052   4.176  20.405  0.00  0.00    +0.000 A 
ATOM     15  C   UNL     1       1.387   3.750  19.120  0.00  0.00    +0.000 A 
ATOM     16 CL   UNL     1       0.864   2.203  18.578  0.00  0.00    +0.000 Cl
ATOM     17  C   UNL     1       2.133   4.566  18.272  0.00  0.00    +0.000 A 
ATOM     18  C   UNL     1       2.481   5.852  18.693  0.00  0.00    +0.000 A 
ATOM     19 CL   UNL     1       3.439   6.822  17.629  0.00  0.00    +0.000 Cl
ENDBRANCH  11  12
ENDBRANCH   6  11
TORSDOF 4
ENDMDL
