MODEL 1
REMARK VINA RESULT:      -7.9      0.000      0.000
REMARK  Name = 
REMARK  7 active torsions:
REMARK  status: ('A' for Active; 'I' for Inactive)
REMARK    1  A    between atoms: C_1  and  C_2
REMARK    2  A    between atoms: C_2  and  C_3
REMARK    3  A    between atoms: C_2  and  N_19
REMARK    4  A    between atoms: C_3  and  C_4
REMARK    5  A    between atoms: C_4  and  C_5
REMARK    6  A    between atoms: N_7  and  C_8
REMARK    7  A    between atoms: C_8  and  C_9
REMARK                            x       y       z     vdW  Elec       q    Type
REMARK                         _______ _______ _______ _____ _____    ______ ____
ROOT
ATOM      1  C   UNL     1       4.228   3.396  17.180  0.00  0.00    +0.000 C 
ATOM      2  O   UNL     1       3.666   2.366  17.555  0.00  0.00    +0.000 OA
ATOM      3  N   UNL     1       5.451   3.316  16.574  0.00  0.00    +0.000 N 
ATOM      4  H   UNL     1       5.801   2.369  16.478  0.00  0.00    +0.000 HD
ENDROOT
BRANCH   3   5
ATOM      5  C   UNL     1       6.159   4.383  15.932  0.00  0.00    +0.000 C 
ATOM      6  C   UNL     1       6.731   4.140  14.541  0.00  0.00    +0.000 C 
ATOM      7  C   UNL     1       5.534   5.020  14.702  0.00  0.00    +0.000 C 
BRANCH   5   8
ATOM      8  C   UNL     1       6.875   5.326  16.896  0.00  0.00    +0.000 A 
ATOM      9  C   UNL     1       6.938   6.716  16.681  0.00  0.00    +0.000 A 
ATOM     10  C   UNL     1       7.557   7.566  17.595  0.00  0.00    +0.000 A 
ATOM     11  F   UNL     1       7.572   8.884  17.355  0.00  0.00    +0.000 F 
ATOM     12  C   UNL     1       8.142   7.070  18.746  0.00  0.00    +0.000 A 
ATOM     13  C   UNL     1       8.121   5.702  18.959  0.00  0.00    +0.000 A 
ATOM     14  F   UNL     1       8.693   5.200  20.061  0.00  0.00    +0.000 F 
ATOM     15  C   UNL     1       7.509   4.837  18.052  0.00  0.00    +0.000 A 
ENDBRANCH   5   8
ENDBRANCH   3   5
BRANCH   1  16
ATOM     16  C   UNL     1       3.615   4.765  17.388  0.00  0.00    +0.000 C 
BRANCH  16  17
ATOM     17  C   UNL     1       2.194   4.688  17.938  0.00  0.00    +0.000 C 
BRANCH  17  19
ATOM     18  C   UNL     1       3.313   6.004  19.804  0.00  0.00    +0.000 C 
ATOM     19  C   UNL     1       1.999   5.396  19.297  0.00  0.00    +0.000 C 
BRANCH  19  20
ATOM     20  N   UNL     1       1.304   4.496  20.241  0.00  0.00    +0.000 NA
ATOM     21  C   UNL     1       2.119   4.125  21.403  0.00  0.00    +0.000 C 
ATOM     22  C   UNL     1       2.705   2.766  21.078  0.00  0.00    +0.000 C 
ATOM     23  C   UNL     1       1.659   2.109  20.200  0.00  0.00    +0.000 C 
ATOM     24  C   UNL     1       0.773   3.243  19.697  0.00  0.00    +0.000 C 
ENDBRANCH  19  20
ENDBRANCH  17  19
ENDBRANCH  16  17
ENDBRANCH   1  16
TORSDOF 6
ENDMDL
MODEL 2
REMARK VINA RESULT:      -7.9      0.075      1.709
REMARK  Name = 
REMARK  7 active torsions:
REMARK  status: ('A' for Active; 'I' for Inactive)
REMARK    1  A    between atoms: C_1  and  C_2
REMARK    2  A    between atoms: C_2  and  C_3
REMARK    3  A    between atoms: C_2  and  N_19
REMARK    4  A    between atoms: C_3  and  C_4
REMARK    5  A    between atoms: C_4  and  C_5
REMARK    6  A    between atoms: N_7  and  C_8
REMARK    7  A    between atoms: C_8  and  C_9
REMARK                            x       y       z     vdW  Elec       q    Type
REMARK                         _______ _______ _______ _____ _____    ______ ____
ROOT
ATOM      1  C   UNL     1       4.134   3.385  17.161  0.00  0.00    +0.000 C 
ATOM      2  O   UNL     1       3.566   2.353  17.519  0.00  0.00    +0.000 OA
ATOM      3  N   UNL     1       5.382   3.312  16.605  0.00  0.00    +0.000 N 
ATOM      4  H   UNL     1       5.743   2.367  16.529  0.00  0.00    +0.000 HD
ENDROOT
BRANCH   3   5
ATOM      5  C   UNL     1       6.107   4.380  15.986  0.00  0.00    +0.000 C 
ATOM      6  C   UNL     1       6.707   4.146  14.605  0.00  0.00    +0.000 C 
ATOM      7  C   UNL     1       5.510   5.029  14.747  0.00  0.00    +0.000 C 
BRANCH   5   8
ATOM      8  C   UNL     1       6.806   5.315  16.971  0.00  0.00    +0.000 A 
ATOM      9  C   UNL     1       7.444   4.843  18.133  0.00  0.00    +0.000 A 
ATOM     10  C   UNL     1       8.115   5.706  18.995  0.00  0.00    +0.000 A 
ATOM     11  F   UNL     1       8.726   5.205  20.077  0.00  0.00    +0.000 F 
ATOM     12  C   UNL     1       8.170   7.065  18.744  0.00  0.00    +0.000 A 
ATOM     13  C   UNL     1       7.519   7.554  17.624  0.00  0.00    +0.000 A 
ATOM     14  F   UNL     1       7.549   8.868  17.368  0.00  0.00    +0.000 F 
ATOM     15  C   UNL     1       6.839   6.704  16.752  0.00  0.00    +0.000 A 
ENDBRANCH   5   8
ENDBRANCH   3   5
BRANCH   1  16
ATOM     16  C   UNL     1       3.504   4.750  17.335  0.00  0.00    +0.000 C 
BRANCH  16  17
ATOM     17  C   UNL     1       2.103   4.670  17.936  0.00  0.00    +0.000 C 
BRANCH  17  19
ATOM     18  C   UNL     1       3.278   6.012  19.748  0.00  0.00    +0.000 C 
ATOM     19  C   UNL     1       1.951   5.389  19.295  0.00  0.00    +0.000 C 
BRANCH  19  20
ATOM     20  N   UNL     1       1.299   4.492  20.271  0.00  0.00    +0.000 NA
ATOM     21  C   UNL     1       2.152   4.151  21.414  0.00  0.00    +0.000 C 
ATOM     22  C   UNL     1       2.750   2.796  21.091  0.00  0.00    +0.000 C 
ATOM     23  C   UNL     1       1.688   2.111  20.254  0.00  0.00    +0.000 C 
ATOM     24  C   UNL     1       0.771   3.224  19.761  0.00  0.00    +0.000 C 
ENDBRANCH  19  20
ENDBRANCH  17  19
ENDBRANCH  16  17
ENDBRANCH   1  16
TORSDOF 6
ENDMDL
MODEL 3
REMARK VINA RESULT:      -7.5      2.865      4.465
REMARK  Name = 
REMARK  7 active torsions:
REMARK  status: ('A' for Active; 'I' for Inactive)
REMARK    1  A    between atoms: C_1  and  C_2
REMARK    2  A    between atoms: C_2  and  C_3
REMARK    3  A    between atoms: C_2  and  N_19
REMARK    4  A    between atoms: C_3  and  C_4
REMARK    5  A    between atoms: C_4  and  C_5
REMARK    6  A    between atoms: N_7  and  C_8
REMARK    7  A    between atoms: C_8  and  C_9
REMARK                            x       y       z     vdW  Elec       q    Type
REMARK                         _______ _______ _______ _____ _____    ______ ____
ROOT
ATOM      1  C   UNL     1       2.376   3.619  20.889  0.00  0.00    +0.000 C 
ATOM      2  O   UNL     1       2.151   3.430  22.085  0.00  0.00    +0.000 OA
ATOM      3  N   UNL     1       3.281   2.827  20.237  0.00  0.00    +0.000 N 
ATOM      4  H   UNL     1       3.704   2.118  20.826  0.00  0.00    +0.000 HD
ENDROOT
BRANCH   3   5
ATOM      5  C   UNL     1       3.534   2.797  18.828  0.00  0.00    +0.000 C 
ATOM      6  C   UNL     1       3.518   1.450  18.117  0.00  0.00    +0.000 C 
ATOM      7  C   UNL     1       2.392   2.409  17.903  0.00  0.00    +0.000 C 
BRANCH   5   8
ATOM      8  C   UNL     1       4.460   3.908  18.336  0.00  0.00    +0.000 A 
ATOM      9  C   UNL     1       5.446   4.485  19.157  0.00  0.00    +0.000 A 
ATOM     10  C   UNL     1       6.311   5.465  18.676  0.00  0.00    +0.000 A 
ATOM     11  F   UNL     1       7.247   5.969  19.491  0.00  0.00    +0.000 F 
ATOM     12  C   UNL     1       6.225   5.913  17.370  0.00  0.00    +0.000 A 
ATOM     13  C   UNL     1       5.238   5.382  16.556  0.00  0.00    +0.000 A 
ATOM     14  F   UNL     1       5.129   5.811  15.292  0.00  0.00    +0.000 F 
ATOM     15  C   UNL     1       4.361   4.403  17.023  0.00  0.00    +0.000 A 
ENDBRANCH   5   8
ENDBRANCH   3   5
BRANCH   1  16
ATOM     16  C   UNL     1       1.692   4.722  20.108  0.00  0.00    +0.000 C 
BRANCH  16  17
ATOM     17  C   UNL     1       2.113   6.111  20.579  0.00  0.00    +0.000 C 
BRANCH  17  19
ATOM     18  C   UNL     1       2.704   7.219  18.369  0.00  0.00    +0.000 C 
ATOM     19  C   UNL     1       1.775   7.248  19.589  0.00  0.00    +0.000 C 
BRANCH  19  20
ATOM     20  N   UNL     1       1.700   8.537  20.306  0.00  0.00    +0.000 NA
ATOM     21  C   UNL     1       1.181   8.418  21.672  0.00  0.00    +0.000 C 
ATOM     22  C   UNL     1      -0.290   8.775  21.586  0.00  0.00    +0.000 C 
ATOM     23  C   UNL     1      -0.363   9.780  20.453  0.00  0.00    +0.000 C 
ATOM     24  C   UNL     1       0.931   9.610  19.668  0.00  0.00    +0.000 C 
ENDBRANCH  19  20
ENDBRANCH  17  19
ENDBRANCH  16  17
ENDBRANCH   1  16
TORSDOF 6
ENDMDL
MODEL 4
REMARK VINA RESULT:      -7.2      2.534      5.845
REMARK  Name = 
REMARK  7 active torsions:
REMARK  status: ('A' for Active; 'I' for Inactive)
REMARK    1  A    between atoms: C_1  and  C_2
REMARK    2  A    between atoms: C_2  and  C_3
REMARK    3  A    between atoms: C_2  and  N_19
REMARK    4  A    between atoms: C_3  and  C_4
REMARK    5  A    between atoms: C_4  and  C_5
REMARK    6  A    between atoms: N_7  and  C_8
REMARK    7  A    between atoms: C_8  and  C_9
REMARK                            x       y       z     vdW  Elec       q    Type
REMARK                         _______ _______ _______ _____ _____    ______ ____
ROOT
ATOM      1  C   UNL     1       4.064   3.375  18.245  0.00  0.00    +0.000 C 
ATOM      2  O   UNL     1       4.494   2.726  17.291  0.00  0.00    +0.000 OA
ATOM      3  N   UNL     1       2.718   3.584  18.370  0.00  0.00    +0.000 N 
ATOM      4  H   UNL     1       2.167   3.160  17.631  0.00  0.00    +0.000 HD
ENDROOT
BRANCH   3   5
ATOM      5  C   UNL     1       2.041   4.161  19.491  0.00  0.00    +0.000 C 
ATOM      6  C   UNL     1       0.896   3.384  20.127  0.00  0.00    +0.000 C 
ATOM      7  C   UNL     1       2.201   3.493  20.847  0.00  0.00    +0.000 C 
BRANCH   5   8
ATOM      8  C   UNL     1       2.015   5.689  19.487  0.00  0.00    +0.000 A 
ATOM      9  C   UNL     1       2.289   6.443  18.331  0.00  0.00    +0.000 A 
ATOM     10  C   UNL     1       2.215   7.834  18.336  0.00  0.00    +0.000 A 
ATOM     11  F   UNL     1       2.465   8.505  17.204  0.00  0.00    +0.000 F 
ATOM     12  C   UNL     1       1.877   8.525  19.484  0.00  0.00    +0.000 A 
ATOM     13  C   UNL     1       1.637   7.804  20.642  0.00  0.00    +0.000 A 
ATOM     14  F   UNL     1       1.320   8.455  21.768  0.00  0.00    +0.000 F 
ATOM     15  C   UNL     1       1.711   6.411  20.655  0.00  0.00    +0.000 A 
ENDBRANCH   5   8
ENDBRANCH   3   5
BRANCH   1  16
ATOM     16  C   UNL     1       4.984   3.975  19.287  0.00  0.00    +0.000 C 
BRANCH  16  17
ATOM     17  C   UNL     1       5.613   5.285  18.820  0.00  0.00    +0.000 C 
BRANCH  17  19
ATOM     18  C   UNL     1       8.059   5.673  19.396  0.00  0.00    +0.000 C 
ATOM     19  C   UNL     1       7.076   5.152  18.340  0.00  0.00    +0.000 C 
BRANCH  19  20
ATOM     20  N   UNL     1       7.219   5.733  16.990  0.00  0.00    +0.000 NA
ATOM     21  C   UNL     1       6.322   6.867  16.742  0.00  0.00    +0.000 C 
ATOM     22  C   UNL     1       5.135   6.295  15.993  0.00  0.00    +0.000 C 
ATOM     23  C   UNL     1       5.716   5.143  15.197  0.00  0.00    +0.000 C 
ATOM     24  C   UNL     1       7.053   4.823  15.853  0.00  0.00    +0.000 C 
ENDBRANCH  19  20
ENDBRANCH  17  19
ENDBRANCH  16  17
ENDBRANCH   1  16
TORSDOF 6
ENDMDL
MODEL 5
REMARK VINA RESULT:      -7.2      0.754      2.007
REMARK  Name = 
REMARK  7 active torsions:
REMARK  status: ('A' for Active; 'I' for Inactive)
REMARK    1  A    between atoms: C_1  and  C_2
REMARK    2  A    between atoms: C_2  and  C_3
REMARK    3  A    between atoms: C_2  and  N_19
REMARK    4  A    between atoms: C_3  and  C_4
REMARK    5  A    between atoms: C_4  and  C_5
REMARK    6  A    between atoms: N_7  and  C_8
REMARK    7  A    between atoms: C_8  and  C_9
REMARK                            x       y       z     vdW  Elec       q    Type
REMARK                         _______ _______ _______ _____ _____    ______ ____
ROOT
ATOM      1  C   UNL     1       4.434   3.409  16.913  0.00  0.00    +0.000 C 
ATOM      2  O   UNL     1       3.925   2.321  17.184  0.00  0.00    +0.000 OA
ATOM      3  N   UNL     1       5.685   3.451  16.360  0.00  0.00    +0.000 N 
ATOM      4  H   UNL     1       6.099   2.538  16.212  0.00  0.00    +0.000 HD
ENDROOT
BRANCH   3   5
ATOM      5  C   UNL     1       6.349   4.605  15.833  0.00  0.00    +0.000 C 
ATOM      6  C   UNL     1       6.975   4.511  14.447  0.00  0.00    +0.000 C 
ATOM      7  C   UNL     1       5.725   5.308  14.638  0.00  0.00    +0.000 C 
BRANCH   5   8
ATOM      8  C   UNL     1       6.981   5.503  16.895  0.00  0.00    +0.000 A 
ATOM      9  C   UNL     1       7.547   4.988  18.076  0.00  0.00    +0.000 A 
ATOM     10  C   UNL     1       8.159   5.819  19.011  0.00  0.00    +0.000 A 
ATOM     11  F   UNL     1       8.702   5.278  20.110  0.00  0.00    +0.000 F 
ATOM     12  C   UNL     1       8.224   7.186  18.815  0.00  0.00    +0.000 A 
ATOM     13  C   UNL     1       7.643   7.717  17.675  0.00  0.00    +0.000 A 
ATOM     14  F   UNL     1       7.684   9.039  17.472  0.00  0.00    +0.000 F 
ATOM     15  C   UNL     1       7.022   6.899  16.731  0.00  0.00    +0.000 A 
ENDBRANCH   5   8
ENDBRANCH   3   5
BRANCH   1  16
ATOM     16  C   UNL     1       3.727   4.718  17.191  0.00  0.00    +0.000 C 
BRANCH  16  17
ATOM     17  C   UNL     1       3.614   5.011  18.684  0.00  0.00    +0.000 C 
BRANCH  17  19
ATOM     18  C   UNL     1       1.912   5.716  20.437  0.00  0.00    +0.000 C 
ATOM     19  C   UNL     1       2.211   4.756  19.279  0.00  0.00    +0.000 C 
BRANCH  19  20
ATOM     20  N   UNL     1       2.043   3.319  19.579  0.00  0.00    +0.000 NA
ATOM     21  C   UNL     1       0.813   3.015  20.318  0.00  0.00    +0.000 C 
ATOM     22  C   UNL     1       1.222   2.918  21.774  0.00  0.00    +0.000 C 
ATOM     23  C   UNL     1       2.646   2.400  21.727  0.00  0.00    +0.000 C 
ATOM     24  C   UNL     1       3.131   2.659  20.306  0.00  0.00    +0.000 C 
ENDBRANCH  19  20
ENDBRANCH  17  19
ENDBRANCH  16  17
ENDBRANCH   1  16
TORSDOF 6
ENDMDL
MODEL 6
REMARK VINA RESULT:      -7.2      0.740      1.069
REMARK  Name = 
REMARK  7 active torsions:
REMARK  status: ('A' for Active; 'I' for Inactive)
REMARK    1  A    between atoms: C_1  and  C_2
REMARK    2  A    between atoms: C_2  and  C_3
REMARK    3  A    between atoms: C_2  and  N_19
REMARK    4  A    between atoms: C_3  and  C_4
REMARK    5  A    between atoms: C_4  and  C_5
REMARK    6  A    between atoms: N_7  and  C_8
REMARK    7  A    between atoms: C_8  and  C_9
REMARK                            x       y       z     vdW  Elec       q    Type
REMARK                         _______ _______ _______ _____ _____    ______ ____
ROOT
ATOM      1  C   UNL     1       4.362   3.529  16.934  0.00  0.00    +0.000 C 
ATOM      2  O   UNL     1       3.781   2.481  17.219  0.00  0.00    +0.000 OA
ATOM      3  N   UNL     1       5.585   3.481  16.324  0.00  0.00    +0.000 N 
ATOM      4  H   UNL     1       5.918   2.539  16.148  0.00  0.00    +0.000 HD
ENDROOT
BRANCH   3   5
ATOM      5  C   UNL     1       6.313   4.585  15.776  0.00  0.00    +0.000 C 
ATOM      6  C   UNL     1       6.951   4.424  14.402  0.00  0.00    +0.000 C 
ATOM      7  C   UNL     1       5.741   5.287  14.555  0.00  0.00    +0.000 C 
BRANCH   5   8
ATOM      8  C   UNL     1       6.975   5.478  16.823  0.00  0.00    +0.000 A 
ATOM      9  C   UNL     1       7.085   6.872  16.663  0.00  0.00    +0.000 A 
ATOM     10  C   UNL     1       7.652   7.675  17.650  0.00  0.00    +0.000 A 
ATOM     11  F   UNL     1       7.714   9.000  17.459  0.00  0.00    +0.000 F 
ATOM     12  C   UNL     1       8.138   7.127  18.823  0.00  0.00    +0.000 A 
ATOM     13  C   UNL     1       8.071   5.753  18.985  0.00  0.00    +0.000 A 
ATOM     14  F   UNL     1       8.547   5.201  20.108  0.00  0.00    +0.000 F 
ATOM     15  C   UNL     1       7.510   4.934  18.005  0.00  0.00    +0.000 A 
ENDBRANCH   5   8
ENDBRANCH   3   5
BRANCH   1  16
ATOM     16  C   UNL     1       3.773   4.886  17.257  0.00  0.00    +0.000 C 
BRANCH  16  17
ATOM     17  C   UNL     1       3.633   5.116  18.759  0.00  0.00    +0.000 C 
BRANCH  17  19
ATOM     18  C   UNL     1       1.878   5.724  20.495  0.00  0.00    +0.000 C 
ATOM     19  C   UNL     1       2.231   4.798  19.324  0.00  0.00    +0.000 C 
BRANCH  19  20
ATOM     20  N   UNL     1       2.112   3.350  19.594  0.00  0.00    +0.000 NA
ATOM     21  C   UNL     1       0.861   2.981  20.265  0.00  0.00    +0.000 C 
ATOM     22  C   UNL     1       1.201   2.877  21.739  0.00  0.00    +0.000 C 
ATOM     23  C   UNL     1       2.647   2.422  21.756  0.00  0.00    +0.000 C 
ATOM     24  C   UNL     1       3.190   2.726  20.365  0.00  0.00    +0.000 C 
ENDBRANCH  19  20
ENDBRANCH  17  19
ENDBRANCH  16  17
ENDBRANCH   1  16
TORSDOF 6
ENDMDL
MODEL 7
REMARK VINA RESULT:      -7.1      2.962      4.241
REMARK  Name = 
REMARK  7 active torsions:
REMARK  status: ('A' for Active; 'I' for Inactive)
REMARK    1  A    between atoms: C_1  and  C_2
REMARK    2  A    between atoms: C_2  and  C_3
REMARK    3  A    between atoms: C_2  and  N_19
REMARK    4  A    between atoms: C_3  and  C_4
REMARK    5  A    between atoms: C_4  and  C_5
REMARK    6  A    between atoms: N_7  and  C_8
REMARK    7  A    between atoms: C_8  and  C_9
REMARK                            x       y       z     vdW  Elec       q    Type
REMARK                         _______ _______ _______ _____ _____    ______ ____
ROOT
ATOM      1  C   UNL     1       2.461   4.719  20.047  0.00  0.00    +0.000 C 
ATOM      2  O   UNL     1       2.050   4.880  21.197  0.00  0.00    +0.000 OA
ATOM      3  N   UNL     1       3.252   3.642  19.755  0.00  0.00    +0.000 N 
ATOM      4  H   UNL     1       3.434   3.039  20.551  0.00  0.00    +0.000 HD
ENDROOT
BRANCH   3   5
ATOM      5  C   UNL     1       3.671   3.215  18.455  0.00  0.00    +0.000 C 
ATOM      6  C   UNL     1       3.577   1.733  18.112  0.00  0.00    +0.000 C 
ATOM      7  C   UNL     1       2.613   2.694  17.495  0.00  0.00    +0.000 C 
BRANCH   5   8
ATOM      8  C   UNL     1       4.780   4.068  17.843  0.00  0.00    +0.000 A 
ATOM      9  C   UNL     1       4.720   4.545  16.521  0.00  0.00    +0.000 A 
ATOM     10  C   UNL     1       5.721   5.361  15.996  0.00  0.00    +0.000 A 
ATOM     11  F   UNL     1       5.607   5.807  14.738  0.00  0.00    +0.000 F 
ATOM     12  C   UNL     1       6.817   5.723  16.757  0.00  0.00    +0.000 A 
ATOM     13  C   UNL     1       6.912   5.236  18.050  0.00  0.00    +0.000 A 
ATOM     14  F   UNL     1       7.971   5.565  18.800  0.00  0.00    +0.000 F 
ATOM     15  C   UNL     1       5.921   4.415  18.589  0.00  0.00    +0.000 A 
ENDBRANCH   5   8
ENDBRANCH   3   5
BRANCH   1  16
ATOM     16  C   UNL     1       2.135   5.694  18.935  0.00  0.00    +0.000 C 
BRANCH  16  17
ATOM     17  C   UNL     1       2.726   7.078  19.185  0.00  0.00    +0.000 C 
BRANCH  17  19
ATOM     18  C   UNL     1       2.011   9.009  17.694  0.00  0.00    +0.000 C 
ATOM     19  C   UNL     1       1.728   8.241  18.991  0.00  0.00    +0.000 C 
BRANCH  19  20
ATOM     20  N   UNL     1       1.661   9.060  20.219  0.00  0.00    +0.000 NA
ATOM     21  C   UNL     1       1.201   8.314  21.396  0.00  0.00    +0.000 C 
ATOM     22  C   UNL     1      -0.278   8.622  21.524  0.00  0.00    +0.000 C 
ATOM     23  C   UNL     1      -0.415  10.028  20.977  0.00  0.00    +0.000 C 
ATOM     24  C   UNL     1       0.848  10.278  20.163  0.00  0.00    +0.000 C 
ENDBRANCH  19  20
ENDBRANCH  17  19
ENDBRANCH  16  17
ENDBRANCH   1  16
TORSDOF 6
ENDMDL
MODEL 8
REMARK VINA RESULT:      -6.9      2.800      4.033
REMARK  Name = 
REMARK  7 active torsions:
REMARK  status: ('A' for Active; 'I' for Inactive)
REMARK    1  A    between atoms: C_1  and  C_2
REMARK    2  A    between atoms: C_2  and  C_3
REMARK    3  A    between atoms: C_2  and  N_19
REMARK    4  A    between atoms: C_3  and  C_4
REMARK    5  A    between atoms: C_4  and  C_5
REMARK    6  A    between atoms: N_7  and  C_8
REMARK    7  A    between atoms: C_8  and  C_9
REMARK                            x       y       z     vdW  Elec       q    Type
REMARK                         _______ _______ _______ _____ _____    ______ ____
ROOT
ATOM      1  C   UNL     1       4.879   3.899  18.719  0.00  0.00    +0.000 C 
ATOM      2  O   UNL     1       5.381   3.095  19.506  0.00  0.00    +0.000 OA
ATOM      3  N   UNL     1       5.147   5.233  18.853  0.00  0.00    +0.000 N 
ATOM      4  H   UNL     1       5.769   5.452  19.623  0.00  0.00    +0.000 HD
ENDROOT
BRANCH   3   5
ATOM      5  C   UNL     1       4.789   6.274  17.936  0.00  0.00    +0.000 C 
ATOM      6  C   UNL     1       5.884   6.885  17.070  0.00  0.00    +0.000 C 
ATOM      7  C   UNL     1       4.872   5.978  16.447  0.00  0.00    +0.000 C 
BRANCH   5   8
ATOM      8  C   UNL     1       3.612   7.133  18.393  0.00  0.00    +0.000 A 
ATOM      9  C   UNL     1       3.081   8.166  17.599  0.00  0.00    +0.000 A 
ATOM     10  C   UNL     1       1.977   8.908  18.013  0.00  0.00    +0.000 A 
ATOM     11  F   UNL     1       1.496   9.867  17.212  0.00  0.00    +0.000 F 
ATOM     12  C   UNL     1       1.368   8.660  19.230  0.00  0.00    +0.000 A 
ATOM     13  C   UNL     1       1.897   7.671  20.042  0.00  0.00    +0.000 A 
ATOM     14  F   UNL     1       1.330   7.423  21.230  0.00  0.00    +0.000 F 
ATOM     15  C   UNL     1       3.004   6.921  19.644  0.00  0.00    +0.000 A 
ENDBRANCH   5   8
ENDBRANCH   3   5
BRANCH   1  16
ATOM     16  C   UNL     1       3.949   3.460  17.607  0.00  0.00    +0.000 C 
BRANCH  16  17
ATOM     17  C   UNL     1       2.939   2.416  18.075  0.00  0.00    +0.000 C 
BRANCH  17  19
ATOM     18  C   UNL     1       1.369   4.374  17.669  0.00  0.00    +0.000 C 
ATOM     19  C   UNL     1       1.495   2.946  18.217  0.00  0.00    +0.000 C 
BRANCH  19  20
ATOM     20  N   UNL     1       1.018   2.747  19.601  0.00  0.00    +0.000 NA
ATOM     21  C   UNL     1       0.831   3.999  20.342  0.00  0.00    +0.000 C 
ATOM     22  C   UNL     1       2.088   4.179  21.169  0.00  0.00    +0.000 C 
ATOM     23  C   UNL     1       2.538   2.764  21.475  0.00  0.00    +0.000 C 
ATOM     24  C   UNL     1       1.822   1.877  20.464  0.00  0.00    +0.000 C 
ENDBRANCH  19  20
ENDBRANCH  17  19
ENDBRANCH  16  17
ENDBRANCH   1  16
TORSDOF 6
ENDMDL
MODEL 9
REMARK VINA RESULT:      -6.8      3.238      4.846
REMARK  Name = 
REMARK  7 active torsions:
REMARK  status: ('A' for Active; 'I' for Inactive)
REMARK    1  A    between atoms: C_1  and  C_2
REMARK    2  A    between atoms: C_2  and  C_3
REMARK    3  A    between atoms: C_2  and  N_19
REMARK    4  A    between atoms: C_3  and  C_4
REMARK    5  A    between atoms: C_4  and  C_5
REMARK    6  A    between atoms: N_7  and  C_8
REMARK    7  A    between atoms: C_8  and  C_9
REMARK                            x       y       z     vdW  Elec       q    Type
REMARK                         _______ _______ _______ _____ _____    ______ ____
ROOT
ATOM      1  C   UNL     1       2.675   4.810  20.235  0.00  0.00    +0.000 C 
ATOM      2  O   UNL     1       2.306   4.913  21.405  0.00  0.00    +0.000 OA
ATOM      3  N   UNL     1       3.331   3.680  19.830  0.00  0.00    +0.000 N 
ATOM      4  H   UNL     1       3.458   2.993  20.565  0.00  0.00    +0.000 HD
ENDROOT
BRANCH   3   5
ATOM      5  C   UNL     1       3.675   3.325  18.486  0.00  0.00    +0.000 C 
ATOM      6  C   UNL     1       3.526   1.870  18.059  0.00  0.00    +0.000 C 
ATOM      7  C   UNL     1       2.558   2.889  17.551  0.00  0.00    +0.000 C 
BRANCH   5   8
ATOM      8  C   UNL     1       4.774   4.189  17.872  0.00  0.00    +0.000 A 
ATOM      9  C   UNL     1       5.946   4.527  18.575  0.00  0.00    +0.000 A 
ATOM     10  C   UNL     1       6.958   5.279  17.982  0.00  0.00    +0.000 A 
ATOM     11  F   UNL     1       8.064   5.556  18.685  0.00  0.00    +0.000 F 
ATOM     12  C   UNL     1       6.842   5.729  16.679  0.00  0.00    +0.000 A 
ATOM     13  C   UNL     1       5.681   5.437  15.983  0.00  0.00    +0.000 A 
ATOM     14  F   UNL     1       5.543   5.874  14.724  0.00  0.00    +0.000 F 
ATOM     15  C   UNL     1       4.656   4.689  16.563  0.00  0.00    +0.000 A 
ENDBRANCH   5   8
ENDBRANCH   3   5
BRANCH   1  16
ATOM     16  C   UNL     1       2.443   5.909  19.220  0.00  0.00    +0.000 C 
BRANCH  16  17
ATOM     17  C   UNL     1       2.115   7.246  19.878  0.00  0.00    +0.000 C 
BRANCH  17  19
ATOM     18  C   UNL     1       2.572   8.466  17.695  0.00  0.00    +0.000 C 
ATOM     19  C   UNL     1       1.629   8.336  18.898  0.00  0.00    +0.000 C 
BRANCH  19  20
ATOM     20  N   UNL     1       1.351   9.588  19.631  0.00  0.00    +0.000 NA
ATOM     21  C   UNL     1       0.076   9.571  20.357  0.00  0.00    +0.000 C 
ATOM     22  C   UNL     1      -0.917  10.282  19.460  0.00  0.00    +0.000 C 
ATOM     23  C   UNL     1      -0.081  11.298  18.709  0.00  0.00    +0.000 C 
ATOM     24  C   UNL     1       1.362  10.831  18.854  0.00  0.00    +0.000 C 
ENDBRANCH  19  20
ENDBRANCH  17  19
ENDBRANCH  16  17
ENDBRANCH   1  16
TORSDOF 6
ENDMDL
