MODEL 1
REMARK VINA RESULT:      -7.0      0.000      0.000
REMARK  Name = 
REMARK  7 active torsions:
REMARK  status: ('A' for Active; 'I' for Inactive)
REMARK    1  A    between atoms: C_1  and  O_2
REMARK    2  A    between atoms: O_2  and  C_3
REMARK    3  A    between atoms: C_6  and  N_7
REMARK    4  A    between atoms: C_10  and  O_11
REMARK    5  A    between atoms: C_13  and  O_14
REMARK    6  A    between atoms: O_14  and  C_15
REMARK    7  A    between atoms: C_16  and  C_17
REMARK                            x       y       z     vdW  Elec       q    Type
REMARK                         _______ _______ _______ _____ _____    ______ ____
ROOT
ATOM      1  N   UNL     1       2.451   7.272  18.861  0.00  0.00    +0.000 N 
ATOM      2  C   UNL     1       3.343   7.848  17.890  0.00  0.00    +0.000 C 
ATOM      3  C   UNL     1       4.230   6.722  17.553  0.00  0.00    +0.000 A 
ATOM      4  C   UNL     1       5.449   6.753  16.939  0.00  0.00    +0.000 A 
ATOM      5  C   UNL     1       5.938   5.577  16.410  0.00  0.00    +0.000 A 
ATOM      6  C   UNL     1       5.176   4.382  16.437  0.00  0.00    +0.000 A 
ATOM      7  C   UNL     1       3.935   4.346  17.136  0.00  0.00    +0.000 A 
ATOM      8  C   UNL     1       2.865   3.303  16.942  0.00  0.00    +0.000 C 
ATOM      9  C   UNL     1       3.567   5.522  17.799  0.00  0.00    +0.000 A 
ATOM     10  C   UNL     1       2.496   5.866  18.804  0.00  0.00    +0.000 C 
ATOM     11  O   UNL     1       1.876   5.053  19.463  0.00  0.00    +0.000 OA
ENDROOT
BRANCH   1  15
ATOM     12  C   UNL     1       0.540  10.124  21.372  0.00  0.00    +0.000 A 
ATOM     13  C   UNL     1       0.993   8.911  21.913  0.00  0.00    +0.000 A 
ATOM     14  C   UNL     1       1.586   7.917  21.102  0.00  0.00    +0.000 A 
ATOM     15  C   UNL     1       1.753   8.144  19.737  0.00  0.00    +0.000 A 
ATOM     16  C   UNL     1       1.280   9.362  19.213  0.00  0.00    +0.000 A 
ATOM     17  C   UNL     1       0.678  10.334  20.010  0.00  0.00    +0.000 A 
BRANCH  12  19
ATOM     18  C   UNL     1      -0.964  10.467  23.179  0.00  0.00    +0.000 C 
ATOM     19  O   UNL     1      -0.033  11.011  22.242  0.00  0.00    +0.000 OA
ENDBRANCH  12  19
ENDBRANCH   1  15
BRANCH   4  20
ATOM     20  O   UNL     1       6.177   7.896  16.829  0.00  0.00    +0.000 OA
ATOM     21  H   UNL     1       5.575   8.616  16.569  0.00  0.00    +0.000 HD
ENDBRANCH   4  20
BRANCH   6  22
ATOM     22  O   UNL     1       5.832   3.439  15.698  0.00  0.00    +0.000 OA
ATOM     23  C   UNL     1       6.227   3.637  14.358  0.00  0.00    +0.000 C 
ENDBRANCH   6  22
TORSDOF 4
ENDMDL
MODEL 2
REMARK VINA RESULT:      -6.9      1.776      3.421
REMARK  Name = 
REMARK  7 active torsions:
REMARK  status: ('A' for Active; 'I' for Inactive)
REMARK    1  A    between atoms: C_1  and  O_2
REMARK    2  A    between atoms: O_2  and  C_3
REMARK    3  A    between atoms: C_6  and  N_7
REMARK    4  A    between atoms: C_10  and  O_11
REMARK    5  A    between atoms: C_13  and  O_14
REMARK    6  A    between atoms: O_14  and  C_15
REMARK    7  A    between atoms: C_16  and  C_17
REMARK                            x       y       z     vdW  Elec       q    Type
REMARK                         _______ _______ _______ _____ _____    ______ ____
ROOT
ATOM      1  N   UNL     1       1.760   7.562  20.121  0.00  0.00    +0.000 N 
ATOM      2  C   UNL     1       1.577   6.340  20.858  0.00  0.00    +0.000 C 
ATOM      3  C   UNL     1       1.866   5.304  19.852  0.00  0.00    +0.000 A 
ATOM      4  C   UNL     1       1.547   3.977  19.881  0.00  0.00    +0.000 A 
ATOM      5  C   UNL     1       2.210   3.133  19.016  0.00  0.00    +0.000 A 
ATOM      6  C   UNL     1       3.242   3.607  18.168  0.00  0.00    +0.000 A 
ATOM      7  C   UNL     1       3.521   5.003  18.099  0.00  0.00    +0.000 A 
ATOM      8  C   UNL     1       4.792   5.603  17.556  0.00  0.00    +0.000 C 
ATOM      9  C   UNL     1       2.703   5.833  18.872  0.00  0.00    +0.000 A 
ATOM     10  C   UNL     1       2.493   7.325  18.942  0.00  0.00    +0.000 C 
ATOM     11  O   UNL     1       2.842   8.116  18.086  0.00  0.00    +0.000 OA
ENDROOT
BRANCH   1  15
ATOM     12  C   UNL     1      -0.262  10.920  21.771  0.00  0.00    +0.000 A 
ATOM     13  C   UNL     1      -0.053  10.843  20.386  0.00  0.00    +0.000 A 
ATOM     14  C   UNL     1       0.658   9.769  19.805  0.00  0.00    +0.000 A 
ATOM     15  C   UNL     1       1.150   8.745  20.612  0.00  0.00    +0.000 A 
ATOM     16  C   UNL     1       0.941   8.848  22.001  0.00  0.00    +0.000 A 
ATOM     17  C   UNL     1       0.255   9.917  22.575  0.00  0.00    +0.000 A 
BRANCH  12  19
ATOM     18  C   UNL     1      -2.043  11.743  23.111  0.00  0.00    +0.000 C 
ATOM     19  O   UNL     1      -0.950  12.009  22.231  0.00  0.00    +0.000 OA
ENDBRANCH  12  19
ENDBRANCH   1  15
BRANCH   4  20
ATOM     20  O   UNL     1       0.616   3.474  20.733  0.00  0.00    +0.000 OA
ATOM     21  H   UNL     1       0.581   4.047  21.520  0.00  0.00    +0.000 HD
ENDBRANCH   4  20
BRANCH   6  22
ATOM     22  O   UNL     1       3.825   2.531  17.560  0.00  0.00    +0.000 OA
ATOM     23  C   UNL     1       3.861   1.240  18.131  0.00  0.00    +0.000 C 
ENDBRANCH   6  22
TORSDOF 4
ENDMDL
MODEL 3
REMARK VINA RESULT:      -6.7      1.562      3.187
REMARK  Name = 
REMARK  7 active torsions:
REMARK  status: ('A' for Active; 'I' for Inactive)
REMARK    1  A    between atoms: C_1  and  O_2
REMARK    2  A    between atoms: O_2  and  C_3
REMARK    3  A    between atoms: C_6  and  N_7
REMARK    4  A    between atoms: C_10  and  O_11
REMARK    5  A    between atoms: C_13  and  O_14
REMARK    6  A    between atoms: O_14  and  C_15
REMARK    7  A    between atoms: C_16  and  C_17
REMARK                            x       y       z     vdW  Elec       q    Type
REMARK                         _______ _______ _______ _____ _____    ______ ____
ROOT
ATOM      1  N   UNL     1       1.643   8.019  20.132  0.00  0.00    +0.000 N 
ATOM      2  C   UNL     1       1.777   6.704  20.702  0.00  0.00    +0.000 C 
ATOM      3  C   UNL     1       2.101   5.871  19.530  0.00  0.00    +0.000 A 
ATOM      4  C   UNL     1       2.024   4.514  19.403  0.00  0.00    +0.000 A 
ATOM      5  C   UNL     1       2.699   3.923  18.357  0.00  0.00    +0.000 A 
ATOM      6  C   UNL     1       3.508   4.684  17.476  0.00  0.00    +0.000 A 
ATOM      7  C   UNL     1       3.528   6.105  17.578  0.00  0.00    +0.000 A 
ATOM      8  C   UNL     1       4.590   6.997  16.989  0.00  0.00    +0.000 C 
ATOM      9  C   UNL     1       2.692   6.664  18.549  0.00  0.00    +0.000 A 
ATOM     10  C   UNL     1       2.238   8.070  18.858  0.00  0.00    +0.000 C 
ATOM     11  O   UNL     1       2.325   9.010  18.090  0.00  0.00    +0.000 OA
ENDROOT
BRANCH   1  15
ATOM     12  C   UNL     1      -0.700  10.705  22.451  0.00  0.00    +0.000 A 
ATOM     13  C   UNL     1      -0.606  10.882  21.063  0.00  0.00    +0.000 A 
ATOM     14  C   UNL     1       0.203  10.042  20.265  0.00  0.00    +0.000 A 
ATOM     15  C   UNL     1       0.910   8.995  20.854  0.00  0.00    +0.000 A 
ATOM     16  C   UNL     1       0.811   8.844  22.251  0.00  0.00    +0.000 A 
ATOM     17  C   UNL     1       0.028   9.684  23.040  0.00  0.00    +0.000 A 
BRANCH  12  19
ATOM     18  C   UNL     1      -2.421  12.340  22.344  0.00  0.00    +0.000 C 
ATOM     19  O   UNL     1      -1.499  11.584  23.131  0.00  0.00    +0.000 OA
ENDBRANCH  12  19
ENDBRANCH   1  15
BRANCH   4  20
ATOM     20  O   UNL     1       1.319   3.744  20.273  0.00  0.00    +0.000 OA
ATOM     21  H   UNL     1       1.235   4.230  21.113  0.00  0.00    +0.000 HD
ENDBRANCH   4  20
BRANCH   6  22
ATOM     22  O   UNL     1       4.180   3.820  16.658  0.00  0.00    +0.000 OA
ATOM     23  C   UNL     1       5.567   3.903  16.411  0.00  0.00    +0.000 C 
ENDBRANCH   6  22
TORSDOF 4
ENDMDL
MODEL 4
REMARK VINA RESULT:      -6.7      2.333      3.420
REMARK  Name = 
REMARK  7 active torsions:
REMARK  status: ('A' for Active; 'I' for Inactive)
REMARK    1  A    between atoms: C_1  and  O_2
REMARK    2  A    between atoms: O_2  and  C_3
REMARK    3  A    between atoms: C_6  and  N_7
REMARK    4  A    between atoms: C_10  and  O_11
REMARK    5  A    between atoms: C_13  and  O_14
REMARK    6  A    between atoms: O_14  and  C_15
REMARK    7  A    between atoms: C_16  and  C_17
REMARK                            x       y       z     vdW  Elec       q    Type
REMARK                         _______ _______ _______ _____ _____    ______ ____
ROOT
ATOM      1  N   UNL     1       1.592   8.810  18.954  0.00  0.00    +0.000 N 
ATOM      2  C   UNL     1       2.168   8.275  17.748  0.00  0.00    +0.000 C 
ATOM      3  C   UNL     1       3.015   7.178  18.248  0.00  0.00    +0.000 A 
ATOM      4  C   UNL     1       4.034   6.531  17.610  0.00  0.00    +0.000 A 
ATOM      5  C   UNL     1       4.451   5.320  18.120  0.00  0.00    +0.000 A 
ATOM      6  C   UNL     1       3.803   4.725  19.231  0.00  0.00    +0.000 A 
ATOM      7  C   UNL     1       2.786   5.438  19.928  0.00  0.00    +0.000 A 
ATOM      8  C   UNL     1       1.775   4.814  20.854  0.00  0.00    +0.000 C 
ATOM      9  C   UNL     1       2.519   6.733  19.471  0.00  0.00    +0.000 A 
ATOM     10  C   UNL     1       1.717   7.890  20.012  0.00  0.00    +0.000 C 
ATOM     11  O   UNL     1       1.341   7.994  21.165  0.00  0.00    +0.000 OA
ENDROOT
BRANCH   1  15
ATOM     12  C   UNL     1      -0.164  12.673  18.677  0.00  0.00    +0.000 A 
ATOM     13  C   UNL     1       1.224  12.526  18.537  0.00  0.00    +0.000 A 
ATOM     14  C   UNL     1       1.851  11.267  18.673  0.00  0.00    +0.000 A 
ATOM     15  C   UNL     1       1.082  10.133  18.929  0.00  0.00    +0.000 A 
ATOM     16  C   UNL     1      -0.307  10.305  19.079  0.00  0.00    +0.000 A 
ATOM     17  C   UNL     1      -0.923  11.550  18.963  0.00  0.00    +0.000 A 
BRANCH  12  19
ATOM     18  C   UNL     1       0.213  15.009  18.890  0.00  0.00    +0.000 C 
ATOM     19  O   UNL     1      -0.666  13.938  18.541  0.00  0.00    +0.000 OA
ENDBRANCH  12  19
ENDBRANCH   1  15
BRANCH   4  20
ATOM     20  O   UNL     1       4.630   7.036  16.499  0.00  0.00    +0.000 OA
ATOM     21  H   UNL     1       5.323   6.414  16.214  0.00  0.00    +0.000 HD
ENDBRANCH   4  20
BRANCH   6  22
ATOM     22  O   UNL     1       4.313   3.468  19.401  0.00  0.00    +0.000 OA
ATOM     23  C   UNL     1       3.708   2.305  18.878  0.00  0.00    +0.000 C 
ENDBRANCH   6  22
TORSDOF 4
ENDMDL
MODEL 5
REMARK VINA RESULT:      -6.7      1.061      2.422
REMARK  Name = 
REMARK  7 active torsions:
REMARK  status: ('A' for Active; 'I' for Inactive)
REMARK    1  A    between atoms: C_1  and  O_2
REMARK    2  A    between atoms: O_2  and  C_3
REMARK    3  A    between atoms: C_6  and  N_7
REMARK    4  A    between atoms: C_10  and  O_11
REMARK    5  A    between atoms: C_13  and  O_14
REMARK    6  A    between atoms: O_14  and  C_15
REMARK    7  A    between atoms: C_16  and  C_17
REMARK                            x       y       z     vdW  Elec       q    Type
REMARK                         _______ _______ _______ _____ _____    ______ ____
ROOT
ATOM      1  N   UNL     1       2.347   7.371  19.184  0.00  0.00    +0.000 N 
ATOM      2  C   UNL     1       2.508   6.034  19.692  0.00  0.00    +0.000 C 
ATOM      3  C   UNL     1       3.060   5.309  18.535  0.00  0.00    +0.000 A 
ATOM      4  C   UNL     1       3.114   3.962  18.321  0.00  0.00    +0.000 A 
ATOM      5  C   UNL     1       3.976   3.494  17.353  0.00  0.00    +0.000 A 
ATOM      6  C   UNL     1       4.835   4.370  16.642  0.00  0.00    +0.000 A 
ATOM      7  C   UNL     1       4.723   5.778  16.827  0.00  0.00    +0.000 A 
ATOM      8  C   UNL     1       5.780   6.784  16.449  0.00  0.00    +0.000 C 
ATOM      9  C   UNL     1       3.716   6.208  17.696  0.00  0.00    +0.000 A 
ATOM     10  C   UNL     1       3.109   7.552  18.014  0.00  0.00    +0.000 C 
ATOM     11  O   UNL     1       3.224   8.546  17.322  0.00  0.00    +0.000 OA
ENDROOT
BRANCH   1  15
ATOM     12  C   UNL     1      -0.196  10.221  21.054  0.00  0.00    +0.000 A 
ATOM     13  C   UNL     1       0.286   9.128  21.789  0.00  0.00    +0.000 A 
ATOM     14  C   UNL     1       1.091   8.132  21.191  0.00  0.00    +0.000 A 
ATOM     15  C   UNL     1       1.442   8.240  19.846  0.00  0.00    +0.000 A 
ATOM     16  C   UNL     1       0.937   9.337  19.123  0.00  0.00    +0.000 A 
ATOM     17  C   UNL     1       0.127  10.309  19.710  0.00  0.00    +0.000 A 
BRANCH  12  19
ATOM     18  C   UNL     1      -1.171  10.872  23.121  0.00  0.00    +0.000 C 
ATOM     19  O   UNL     1      -0.980  11.118  21.727  0.00  0.00    +0.000 OA
ENDBRANCH  12  19
ENDBRANCH   1  15
BRANCH   4  20
ATOM     20  O   UNL     1       2.361   3.084  19.034  0.00  0.00    +0.000 OA
ATOM     21  H   UNL     1       2.667   2.182  18.830  0.00  0.00    +0.000 HD
ENDBRANCH   4  20
BRANCH   6  22
ATOM     22  O   UNL     1       5.684   3.616  15.883  0.00  0.00    +0.000 OA
ATOM     23  C   UNL     1       5.960   3.883  14.525  0.00  0.00    +0.000 C 
ENDBRANCH   6  22
TORSDOF 4
ENDMDL
MODEL 6
REMARK VINA RESULT:      -6.7      1.988      7.738
REMARK  Name = 
REMARK  7 active torsions:
REMARK  status: ('A' for Active; 'I' for Inactive)
REMARK    1  A    between atoms: C_1  and  O_2
REMARK    2  A    between atoms: O_2  and  C_3
REMARK    3  A    between atoms: C_6  and  N_7
REMARK    4  A    between atoms: C_10  and  O_11
REMARK    5  A    between atoms: C_13  and  O_14
REMARK    6  A    between atoms: O_14  and  C_15
REMARK    7  A    between atoms: C_16  and  C_17
REMARK                            x       y       z     vdW  Elec       q    Type
REMARK                         _______ _______ _______ _____ _____    ______ ____
ROOT
ATOM      1  N   UNL     1       2.206   7.785  19.094  0.00  0.00    +0.000 N 
ATOM      2  C   UNL     1       1.738   7.726  20.454  0.00  0.00    +0.000 C 
ATOM      3  C   UNL     1       1.108   9.044  20.641  0.00  0.00    +0.000 A 
ATOM      4  C   UNL     1       0.781   9.674  21.807  0.00  0.00    +0.000 A 
ATOM      5  C   UNL     1      -0.106  10.726  21.748  0.00  0.00    +0.000 A 
ATOM      6  C   UNL     1      -0.720  11.107  20.528  0.00  0.00    +0.000 A 
ATOM      7  C   UNL     1      -0.323  10.487  19.309  0.00  0.00    +0.000 A 
ATOM      8  C   UNL     1      -1.120  10.508  18.030  0.00  0.00    +0.000 C 
ATOM      9  C   UNL     1       0.704   9.542  19.404  0.00  0.00    +0.000 A 
ATOM     10  C   UNL     1       1.564   8.824  18.394  0.00  0.00    +0.000 C 
ATOM     11  O   UNL     1       1.700   9.162  17.233  0.00  0.00    +0.000 OA
ENDROOT
BRANCH   1  15
ATOM     12  C   UNL     1       5.414   5.140  18.201  0.00  0.00    +0.000 A 
ATOM     13  C   UNL     1       5.128   6.207  17.336  0.00  0.00    +0.000 A 
ATOM     14  C   UNL     1       4.040   7.077  17.571  0.00  0.00    +0.000 A 
ATOM     15  C   UNL     1       3.238   6.896  18.697  0.00  0.00    +0.000 A 
ATOM     16  C   UNL     1       3.534   5.811  19.544  0.00  0.00    +0.000 A 
ATOM     17  C   UNL     1       4.597   4.943  19.302  0.00  0.00    +0.000 A 
BRANCH  12  19
ATOM     18  C   UNL     1       7.027   4.534  16.565  0.00  0.00    +0.000 C 
ATOM     19  O   UNL     1       6.481   4.350  17.872  0.00  0.00    +0.000 OA
ENDBRANCH  12  19
ENDBRANCH   1  15
BRANCH   4  20
ATOM     20  O   UNL     1       1.292   9.289  23.006  0.00  0.00    +0.000 OA
ATOM     21  H   UNL     1       2.080   9.831  23.190  0.00  0.00    +0.000 HD
ENDBRANCH   4  20
BRANCH   6  22
ATOM     22  O   UNL     1      -1.668  12.052  20.802  0.00  0.00    +0.000 OA
ATOM     23  C   UNL     1      -1.545  13.408  20.429  0.00  0.00    +0.000 C 
ENDBRANCH   6  22
TORSDOF 4
ENDMDL
MODEL 7
REMARK VINA RESULT:      -6.7      1.536      7.691
REMARK  Name = 
REMARK  7 active torsions:
REMARK  status: ('A' for Active; 'I' for Inactive)
REMARK    1  A    between atoms: C_1  and  O_2
REMARK    2  A    between atoms: O_2  and  C_3
REMARK    3  A    between atoms: C_6  and  N_7
REMARK    4  A    between atoms: C_10  and  O_11
REMARK    5  A    between atoms: C_13  and  O_14
REMARK    6  A    between atoms: O_14  and  C_15
REMARK    7  A    between atoms: C_16  and  C_17
REMARK                            x       y       z     vdW  Elec       q    Type
REMARK                         _______ _______ _______ _____ _____    ______ ____
ROOT
ATOM      1  N   UNL     1       2.311   7.683  18.853  0.00  0.00    +0.000 N 
ATOM      2  C   UNL     1       1.895   8.902  18.212  0.00  0.00    +0.000 C 
ATOM      3  C   UNL     1       0.803   9.373  19.081  0.00  0.00    +0.000 A 
ATOM      4  C   UNL     1      -0.168  10.292  18.806  0.00  0.00    +0.000 A 
ATOM      5  C   UNL     1      -0.865  10.835  19.864  0.00  0.00    +0.000 A 
ATOM      6  C   UNL     1      -0.544  10.506  21.205  0.00  0.00    +0.000 A 
ATOM      7  C   UNL     1       0.425   9.498  21.478  0.00  0.00    +0.000 A 
ATOM      8  C   UNL     1       1.128   9.311  22.797  0.00  0.00    +0.000 C 
ATOM      9  C   UNL     1       0.979   8.859  20.364  0.00  0.00    +0.000 A 
ATOM     10  C   UNL     1       1.841   7.635  20.179  0.00  0.00    +0.000 C 
ATOM     11  O   UNL     1       2.003   6.768  21.018  0.00  0.00    +0.000 OA
ENDROOT
BRANCH   1  15
ATOM     12  C   UNL     1       4.435   4.619  16.806  0.00  0.00    +0.000 A 
ATOM     13  C   UNL     1       4.915   5.937  16.781  0.00  0.00    +0.000 A 
ATOM     14  C   UNL     1       4.212   6.991  17.406  0.00  0.00    +0.000 A 
ATOM     15  C   UNL     1       3.024   6.726  18.086  0.00  0.00    +0.000 A 
ATOM     16  C   UNL     1       2.553   5.399  18.087  0.00  0.00    +0.000 A 
ATOM     17  C   UNL     1       3.238   4.363  17.455  0.00  0.00    +0.000 A 
BRANCH  12  19
ATOM     18  C   UNL     1       6.152   4.169  15.228  0.00  0.00    +0.000 C 
ATOM     19  O   UNL     1       5.186   3.677  16.158  0.00  0.00    +0.000 OA
ENDBRANCH  12  19
ENDBRANCH   1  15
BRANCH   4  20
ATOM     20  O   UNL     1      -0.453  10.688  17.537  0.00  0.00    +0.000 OA
ATOM     21  H   UNL     1      -0.048  10.051  16.921  0.00  0.00    +0.000 HD
ENDBRANCH   4  20
BRANCH   6  22
ATOM     22  O   UNL     1      -1.273  11.315  22.030  0.00  0.00    +0.000 OA
ATOM     23  C   UNL     1      -0.818  12.568  22.494  0.00  0.00    +0.000 C 
ENDBRANCH   6  22
TORSDOF 4
ENDMDL
MODEL 8
REMARK VINA RESULT:      -6.7      2.338      3.366
REMARK  Name = 
REMARK  7 active torsions:
REMARK  status: ('A' for Active; 'I' for Inactive)
REMARK    1  A    between atoms: C_1  and  O_2
REMARK    2  A    between atoms: O_2  and  C_3
REMARK    3  A    between atoms: C_6  and  N_7
REMARK    4  A    between atoms: C_10  and  O_11
REMARK    5  A    between atoms: C_13  and  O_14
REMARK    6  A    between atoms: O_14  and  C_15
REMARK    7  A    between atoms: C_16  and  C_17
REMARK                            x       y       z     vdW  Elec       q    Type
REMARK                         _______ _______ _______ _____ _____    ______ ____
ROOT
ATOM      1  N   UNL     1       1.756   8.727  18.773  0.00  0.00    +0.000 N 
ATOM      2  C   UNL     1       2.354   8.139  17.603  0.00  0.00    +0.000 C 
ATOM      3  C   UNL     1       3.180   7.057  18.167  0.00  0.00    +0.000 A 
ATOM      4  C   UNL     1       4.207   6.376  17.580  0.00  0.00    +0.000 A 
ATOM      5  C   UNL     1       4.602   5.184  18.149  0.00  0.00    +0.000 A 
ATOM      6  C   UNL     1       3.924   4.640  19.268  0.00  0.00    +0.000 A 
ATOM      7  C   UNL     1       2.897   5.389  19.911  0.00  0.00    +0.000 A 
ATOM      8  C   UNL     1       1.860   4.812  20.839  0.00  0.00    +0.000 C 
ATOM      9  C   UNL     1       2.652   6.666  19.396  0.00  0.00    +0.000 A 
ATOM     10  C   UNL     1       1.848   7.851  19.871  0.00  0.00    +0.000 C 
ATOM     11  O   UNL     1       1.447   8.006  21.009  0.00  0.00    +0.000 OA
ENDROOT
BRANCH   1  15
ATOM     12  C   UNL     1       0.515  12.794  18.675  0.00  0.00    +0.000 A 
ATOM     13  C   UNL     1      -0.410  11.790  18.998  0.00  0.00    +0.000 A 
ATOM     14  C   UNL     1      -0.050  10.423  18.991  0.00  0.00    +0.000 A 
ATOM     15  C   UNL     1       1.258  10.052  18.682  0.00  0.00    +0.000 A 
ATOM     16  C   UNL     1       2.167  11.074  18.348  0.00  0.00    +0.000 A 
ATOM     17  C   UNL     1       1.806  12.421  18.337  0.00  0.00    +0.000 A 
BRANCH  12  19
ATOM     18  C   UNL     1       0.998  15.081  19.098  0.00  0.00    +0.000 C 
ATOM     19  O   UNL     1       0.058  14.083  18.697  0.00  0.00    +0.000 OA
ENDBRANCH  12  19
ENDBRANCH   1  15
BRANCH   4  20
ATOM     20  O   UNL     1       4.833   6.831  16.463  0.00  0.00    +0.000 OA
ATOM     21  H   UNL     1       4.958   7.792  16.553  0.00  0.00    +0.000 HD
ENDBRANCH   4  20
BRANCH   6  22
ATOM     22  O   UNL     1       4.419   3.388  19.501  0.00  0.00    +0.000 OA
ATOM     23  C   UNL     1       3.810   2.208  19.021  0.00  0.00    +0.000 C 
ENDBRANCH   6  22
TORSDOF 4
ENDMDL
MODEL 9
REMARK VINA RESULT:      -6.7      1.933      3.374
REMARK  Name = 
REMARK  7 active torsions:
REMARK  status: ('A' for Active; 'I' for Inactive)
REMARK    1  A    between atoms: C_1  and  O_2
REMARK    2  A    between atoms: O_2  and  C_3
REMARK    3  A    between atoms: C_6  and  N_7
REMARK    4  A    between atoms: C_10  and  O_11
REMARK    5  A    between atoms: C_13  and  O_14
REMARK    6  A    between atoms: O_14  and  C_15
REMARK    7  A    between atoms: C_16  and  C_17
REMARK                            x       y       z     vdW  Elec       q    Type
REMARK                         _______ _______ _______ _____ _____    ______ ____
ROOT
ATOM      1  N   UNL     1       1.544   8.688  19.499  0.00  0.00    +0.000 N 
ATOM      2  C   UNL     1       1.806   7.672  20.485  0.00  0.00    +0.000 C 
ATOM      3  C   UNL     1       2.312   6.551  19.674  0.00  0.00    +0.000 A 
ATOM      4  C   UNL     1       2.417   5.234  20.016  0.00  0.00    +0.000 A 
ATOM      5  C   UNL     1       3.232   4.430  19.248  0.00  0.00    +0.000 A 
ATOM      6  C   UNL     1       3.994   4.959  18.176  0.00  0.00    +0.000 A 
ATOM      7  C   UNL     1       3.826   6.320  17.788  0.00  0.00    +0.000 A 
ATOM      8  C   UNL     1       4.802   7.105  16.951  0.00  0.00    +0.000 C 
ATOM      9  C   UNL     1       2.861   7.046  18.494  0.00  0.00    +0.000 A 
ATOM     10  C   UNL     1       2.212   8.394  18.295  0.00  0.00    +0.000 C 
ATOM     11  O   UNL     1       2.229   9.025  17.255  0.00  0.00    +0.000 OA
ENDROOT
BRANCH   1  15
ATOM     12  C   UNL     1      -1.218  11.665  20.762  0.00  0.00    +0.000 A 
ATOM     13  C   UNL     1      -1.281  11.166  19.453  0.00  0.00    +0.000 A 
ATOM     14  C   UNL     1      -0.350  10.213  18.980  0.00  0.00    +0.000 A 
ATOM     15  C   UNL     1       0.645   9.734  19.830  0.00  0.00    +0.000 A 
ATOM     16  C   UNL     1       0.698  10.258  21.136  0.00  0.00    +0.000 A 
ATOM     17  C   UNL     1      -0.209  11.211  21.596  0.00  0.00    +0.000 A 
BRANCH  12  19
ATOM     18  C   UNL     1      -3.296  12.700  20.256  0.00  0.00    +0.000 C 
ATOM     19  O   UNL     1      -2.158  12.594  21.113  0.00  0.00    +0.000 OA
ENDBRANCH  12  19
ENDBRANCH   1  15
BRANCH   4  20
ATOM     20  O   UNL     1       1.760   4.707  21.082  0.00  0.00    +0.000 OA
ATOM     21  H   UNL     1       2.374   4.120  21.559  0.00  0.00    +0.000 HD
ENDBRANCH   4  20
BRANCH   6  22
ATOM     22  O   UNL     1       4.824   3.977  17.715  0.00  0.00    +0.000 OA
ATOM     23  C   UNL     1       5.062   3.739  16.344  0.00  0.00    +0.000 C 
ENDBRANCH   6  22
TORSDOF 4
ENDMDL
