MODEL 1
REMARK VINA RESULT:      -7.9      0.000      0.000
REMARK  Name = 
REMARK  6 active torsions:
REMARK  status: ('A' for Active; 'I' for Inactive)
REMARK    1  A    between atoms: C_1  and  N_2
REMARK    2  A    between atoms: C_3  and  S_4
REMARK    3  A    between atoms: S_4  and  C_5
REMARK    4  A    between atoms: C_8  and  C_9
REMARK    5  A    between atoms: C_14  and  N_15
REMARK    6  A    between atoms: C_20  and  C_21
REMARK                            x       y       z     vdW  Elec       q    Type
REMARK                         _______ _______ _______ _____ _____    ______ ____
ROOT
ATOM      1  S   UNL     1       2.615   6.535  19.392  0.00  0.00    +0.000 S 
ENDROOT
BRANCH   1   4
ATOM      2  C   UNL     1       0.984   8.864  20.892  0.00  0.00    +0.000 C 
ATOM      3  N   UNL     1       1.394   8.987  19.515  0.00  0.00    +0.000 N 
ATOM      4  C   UNL     1       2.068   8.054  18.769  0.00  0.00    +0.000 A 
ATOM      5  N   UNL     1       2.322   8.536  17.578  0.00  0.00    +0.000 NA
ATOM      6  N   UNL     1       1.810   9.812  17.534  0.00  0.00    +0.000 NA
ATOM      7  C   UNL     1       1.227  10.088  18.692  0.00  0.00    +0.000 A 
BRANCH   7   8
ATOM      8  C   UNL     1       0.577  11.368  19.022  0.00  0.00    +0.000 A 
ATOM      9  C   UNL     1       1.293  12.503  19.431  0.00  0.00    +0.000 A 
ATOM     10  C   UNL     1       0.643  13.713  19.698  0.00  0.00    +0.000 A 
ATOM     11  C   UNL     1      -0.742  13.798  19.601  0.00  0.00    +0.000 A 
ATOM     12  C   UNL     1      -1.477  12.672  19.242  0.00  0.00    +0.000 A 
ATOM     13  C   UNL     1      -0.822  11.468  18.954  0.00  0.00    +0.000 A 
ENDBRANCH   7   8
ENDBRANCH   1   4
BRANCH   1  14
ATOM     14  C   UNL     1       3.575   5.947  18.001  0.00  0.00    +0.000 A 
ATOM     15  C   UNL     1       4.612   6.763  17.528  0.00  0.00    +0.000 A 
ATOM     16  C   UNL     1       5.534   6.291  16.581  0.00  0.00    +0.000 A 
ATOM     17  C   UNL     1       5.454   4.984  16.084  0.00  0.00    +0.000 A 
ATOM     18  C   UNL     1       4.402   4.163  16.523  0.00  0.00    +0.000 A 
ATOM     19  C   UNL     1       3.481   4.651  17.468  0.00  0.00    +0.000 A 
BRANCH  17  20
ATOM     20  C   UNL     1       6.487   4.441  15.121  0.00  0.00    +0.000 C 
ATOM     21  F   UNL     1       6.142   3.247  14.569  0.00  0.00    +0.000 F 
ATOM     22  F   UNL     1       6.706   5.287  14.077  0.00  0.00    +0.000 F 
ATOM     23  F   UNL     1       7.697   4.252  15.711  0.00  0.00    +0.000 F 
ENDBRANCH  17  20
BRANCH  19  24
ATOM     24  N   UNL     1       2.441   3.739  17.910  0.00  0.00    +0.000 N 
ATOM     25  O   UNL     1       2.712   2.961  18.837  0.00  0.00    +0.000 OA
ATOM     26  O   UNL     1       1.341   3.827  17.348  0.00  0.00    +0.000 OA
ENDBRANCH  19  24
ENDBRANCH   1  14
TORSDOF 5
ENDMDL
MODEL 2
REMARK VINA RESULT:      -7.9      0.110      1.127
REMARK  Name = 
REMARK  6 active torsions:
REMARK  status: ('A' for Active; 'I' for Inactive)
REMARK    1  A    between atoms: C_1  and  N_2
REMARK    2  A    between atoms: C_3  and  S_4
REMARK    3  A    between atoms: S_4  and  C_5
REMARK    4  A    between atoms: C_8  and  C_9
REMARK    5  A    between atoms: C_14  and  N_15
REMARK    6  A    between atoms: C_20  and  C_21
REMARK                            x       y       z     vdW  Elec       q    Type
REMARK                         _______ _______ _______ _____ _____    ______ ____
ROOT
ATOM      1  S   UNL     1       2.618   6.541  19.353  0.00  0.00    +0.000 S 
ENDROOT
BRANCH   1   4
ATOM      2  C   UNL     1       0.985   8.873  20.846  0.00  0.00    +0.000 C 
ATOM      3  N   UNL     1       1.416   9.002  19.476  0.00  0.00    +0.000 N 
ATOM      4  C   UNL     1       2.092   8.069  18.733  0.00  0.00    +0.000 A 
ATOM      5  N   UNL     1       2.368   8.557  17.550  0.00  0.00    +0.000 NA
ATOM      6  N   UNL     1       1.868   9.838  17.507  0.00  0.00    +0.000 NA
ATOM      7  C   UNL     1       1.269  10.110  18.658  0.00  0.00    +0.000 A 
BRANCH   7   8
ATOM      8  C   UNL     1       0.626  11.394  18.988  0.00  0.00    +0.000 A 
ATOM      9  C   UNL     1      -0.763  11.580  18.964  0.00  0.00    +0.000 A 
ATOM     10  C   UNL     1      -1.338  12.804  19.322  0.00  0.00    +0.000 A 
ATOM     11  C   UNL     1      -0.528  13.879  19.672  0.00  0.00    +0.000 A 
ATOM     12  C   UNL     1       0.855  13.732  19.659  0.00  0.00    +0.000 A 
ATOM     13  C   UNL     1       1.427  12.499  19.321  0.00  0.00    +0.000 A 
ENDBRANCH   7   8
ENDBRANCH   1   4
BRANCH   1  14
ATOM     14  C   UNL     1       3.572   5.943  17.963  0.00  0.00    +0.000 A 
ATOM     15  C   UNL     1       4.580   6.774  17.454  0.00  0.00    +0.000 A 
ATOM     16  C   UNL     1       5.500   6.303  16.505  0.00  0.00    +0.000 A 
ATOM     17  C   UNL     1       5.448   4.982  16.041  0.00  0.00    +0.000 A 
ATOM     18  C   UNL     1       4.424   4.145  16.517  0.00  0.00    +0.000 A 
ATOM     19  C   UNL     1       3.505   4.633  17.464  0.00  0.00    +0.000 A 
BRANCH  17  20
ATOM     20  C   UNL     1       6.480   4.442  15.076  0.00  0.00    +0.000 C 
ATOM     21  F   UNL     1       6.092   3.301  14.446  0.00  0.00    +0.000 F 
ATOM     22  F   UNL     1       6.773   5.334  14.091  0.00  0.00    +0.000 F 
ATOM     23  F   UNL     1       7.661   4.157  15.687  0.00  0.00    +0.000 F 
ENDBRANCH  17  20
BRANCH  19  24
ATOM     24  N   UNL     1       2.496   3.704  17.944  0.00  0.00    +0.000 N 
ATOM     25  O   UNL     1       1.373   3.751  17.420  0.00  0.00    +0.000 OA
ATOM     26  O   UNL     1       2.842   2.905  18.824  0.00  0.00    +0.000 OA
ENDBRANCH  19  24
ENDBRANCH   1  14
TORSDOF 5
ENDMDL
MODEL 3
REMARK VINA RESULT:      -7.9      0.460      1.068
REMARK  Name = 
REMARK  6 active torsions:
REMARK  status: ('A' for Active; 'I' for Inactive)
REMARK    1  A    between atoms: C_1  and  N_2
REMARK    2  A    between atoms: C_3  and  S_4
REMARK    3  A    between atoms: S_4  and  C_5
REMARK    4  A    between atoms: C_8  and  C_9
REMARK    5  A    between atoms: C_14  and  N_15
REMARK    6  A    between atoms: C_20  and  C_21
REMARK                            x       y       z     vdW  Elec       q    Type
REMARK                         _______ _______ _______ _____ _____    ______ ____
ROOT
ATOM      1  S   UNL     1       2.753   6.264  19.593  0.00  0.00    +0.000 S 
ENDROOT
BRANCH   1   4
ATOM      2  C   UNL     1       1.145   8.473  21.286  0.00  0.00    +0.000 C 
ATOM      3  N   UNL     1       1.404   8.634  19.877  0.00  0.00    +0.000 N 
ATOM      4  C   UNL     1       2.054   7.752  19.052  0.00  0.00    +0.000 A 
ATOM      5  N   UNL     1       2.155   8.259  17.850  0.00  0.00    +0.000 NA
ATOM      6  N   UNL     1       1.565   9.501  17.877  0.00  0.00    +0.000 NA
ATOM      7  C   UNL     1       1.086   9.729  19.092  0.00  0.00    +0.000 A 
BRANCH   7   8
ATOM      8  C   UNL     1       0.398  10.964  19.506  0.00  0.00    +0.000 A 
ATOM      9  C   UNL     1       1.062  12.044  20.105  0.00  0.00    +0.000 A 
ATOM     10  C   UNL     1       0.379  13.215  20.449  0.00  0.00    +0.000 A 
ATOM     11  C   UNL     1      -0.992  13.312  20.235  0.00  0.00    +0.000 A 
ATOM     12  C   UNL     1      -1.680  12.236  19.684  0.00  0.00    +0.000 A 
ATOM     13  C   UNL     1      -0.991  11.072  19.322  0.00  0.00    +0.000 A 
ENDBRANCH   7   8
ENDBRANCH   1   4
BRANCH   1  14
ATOM     14  C   UNL     1       3.658   5.784  18.126  0.00  0.00    +0.000 A 
ATOM     15  C   UNL     1       4.687   6.627  17.684  0.00  0.00    +0.000 A 
ATOM     16  C   UNL     1       5.570   6.227  16.670  0.00  0.00    +0.000 A 
ATOM     17  C   UNL     1       5.458   4.966  16.070  0.00  0.00    +0.000 A 
ATOM     18  C   UNL     1       4.412   4.121  16.478  0.00  0.00    +0.000 A 
ATOM     19  C   UNL     1       3.531   4.538  17.492  0.00  0.00    +0.000 A 
BRANCH  17  20
ATOM     20  C   UNL     1       6.451   4.496  15.030  0.00  0.00    +0.000 C 
ATOM     21  F   UNL     1       7.714   4.347  15.511  0.00  0.00    +0.000 F 
ATOM     22  F   UNL     1       6.106   3.289  14.504  0.00  0.00    +0.000 F 
ATOM     23  F   UNL     1       6.543   5.351  13.977  0.00  0.00    +0.000 F 
ENDBRANCH  17  20
BRANCH  19  24
ATOM     24  N   UNL     1       2.496   3.601  17.894  0.00  0.00    +0.000 N 
ATOM     25  O   UNL     1       1.368   3.740  17.399  0.00  0.00    +0.000 OA
ATOM     26  O   UNL     1       2.825   2.704  18.681  0.00  0.00    +0.000 OA
ENDBRANCH  19  24
ENDBRANCH   1  14
TORSDOF 5
ENDMDL
MODEL 4
REMARK VINA RESULT:      -7.8      4.114      5.486
REMARK  Name = 
REMARK  6 active torsions:
REMARK  status: ('A' for Active; 'I' for Inactive)
REMARK    1  A    between atoms: C_1  and  N_2
REMARK    2  A    between atoms: C_3  and  S_4
REMARK    3  A    between atoms: S_4  and  C_5
REMARK    4  A    between atoms: C_8  and  C_9
REMARK    5  A    between atoms: C_14  and  N_15
REMARK    6  A    between atoms: C_20  and  C_21
REMARK                            x       y       z     vdW  Elec       q    Type
REMARK                         _______ _______ _______ _____ _____    ______ ____
ROOT
ATOM      1  S   UNL     1       0.567  10.874  18.957  0.00  0.00    +0.000 S 
ENDROOT
BRANCH   1   4
ATOM      2  C   UNL     1      -2.234  12.255  19.719  0.00  0.00    +0.000 C 
ATOM      3  N   UNL     1      -2.143  11.217  18.722  0.00  0.00    +0.000 N 
ATOM      4  C   UNL     1      -1.014  10.542  18.335  0.00  0.00    +0.000 A 
ATOM      5  N   UNL     1      -1.302   9.712  17.365  0.00  0.00    +0.000 NA
ATOM      6  N   UNL     1      -2.646   9.839  17.101  0.00  0.00    +0.000 NA
ATOM      7  C   UNL     1      -3.170  10.729  17.931  0.00  0.00    +0.000 A 
BRANCH   7   8
ATOM      8  C   UNL     1      -4.585  11.140  17.939  0.00  0.00    +0.000 A 
ATOM      9  C   UNL     1      -5.565  10.489  18.702  0.00  0.00    +0.000 A 
ATOM     10  C   UNL     1      -6.891  10.934  18.712  0.00  0.00    +0.000 A 
ATOM     11  C   UNL     1      -7.270  12.016  17.926  0.00  0.00    +0.000 A 
ATOM     12  C   UNL     1      -6.325  12.650  17.125  0.00  0.00    +0.000 A 
ATOM     13  C   UNL     1      -4.994  12.216  17.133  0.00  0.00    +0.000 A 
ENDBRANCH   7   8
ENDBRANCH   1   4
BRANCH   1  14
ATOM     14  C   UNL     1       1.220   9.213  19.076  0.00  0.00    +0.000 A 
ATOM     15  C   UNL     1       1.858   8.677  17.949  0.00  0.00    +0.000 A 
ATOM     16  C   UNL     1       2.569   7.469  18.021  0.00  0.00    +0.000 A 
ATOM     17  C   UNL     1       2.673   6.764  19.227  0.00  0.00    +0.000 A 
ATOM     18  C   UNL     1       2.012   7.270  20.358  0.00  0.00    +0.000 A 
ATOM     19  C   UNL     1       1.298   8.478  20.269  0.00  0.00    +0.000 A 
BRANCH  17  20
ATOM     20  C   UNL     1       3.500   5.501  19.334  0.00  0.00    +0.000 C 
ATOM     21  F   UNL     1       4.789   5.725  19.706  0.00  0.00    +0.000 F 
ATOM     22  F   UNL     1       2.991   4.633  20.250  0.00  0.00    +0.000 F 
ATOM     23  F   UNL     1       3.557   4.817  18.160  0.00  0.00    +0.000 F 
ENDBRANCH  17  20
BRANCH  19  24
ATOM     24  N   UNL     1       0.670   8.966  21.486  0.00  0.00    +0.000 N 
ATOM     25  O   UNL     1       1.351   9.675  22.241  0.00  0.00    +0.000 OA
ATOM     26  O   UNL     1      -0.517   8.666  21.665  0.00  0.00    +0.000 OA
ENDBRANCH  19  24
ENDBRANCH   1  14
TORSDOF 5
ENDMDL
MODEL 5
REMARK VINA RESULT:      -7.7      2.750      3.742
REMARK  Name = 
REMARK  6 active torsions:
REMARK  status: ('A' for Active; 'I' for Inactive)
REMARK    1  A    between atoms: C_1  and  N_2
REMARK    2  A    between atoms: C_3  and  S_4
REMARK    3  A    between atoms: S_4  and  C_5
REMARK    4  A    between atoms: C_8  and  C_9
REMARK    5  A    between atoms: C_14  and  N_15
REMARK    6  A    between atoms: C_20  and  C_21
REMARK                            x       y       z     vdW  Elec       q    Type
REMARK                         _______ _______ _______ _____ _____    ______ ____
ROOT
ATOM      1  S   UNL     1       4.559   4.223  17.887  0.00  0.00    +0.000 S 
ENDROOT
BRANCH   1   4
ATOM      2  C   UNL     1       2.202   5.415  19.719  0.00  0.00    +0.000 C 
ATOM      3  N   UNL     1       2.857   6.209  18.709  0.00  0.00    +0.000 N 
ATOM      4  C   UNL     1       3.851   5.802  17.856  0.00  0.00    +0.000 A 
ATOM      5  N   UNL     1       4.243   6.809  17.117  0.00  0.00    +0.000 NA
ATOM      6  N   UNL     1       3.498   7.904  17.487  0.00  0.00    +0.000 NA
ATOM      7  C   UNL     1       2.640   7.549  18.432  0.00  0.00    +0.000 A 
BRANCH   7   8
ATOM      8  C   UNL     1       1.684   8.460  19.086  0.00  0.00    +0.000 A 
ATOM      9  C   UNL     1       1.413   8.422  20.461  0.00  0.00    +0.000 A 
ATOM     10  C   UNL     1       0.527   9.330  21.051  0.00  0.00    +0.000 A 
ATOM     11  C   UNL     1      -0.135  10.268  20.267  0.00  0.00    +0.000 A 
ATOM     12  C   UNL     1       0.083  10.295  18.893  0.00  0.00    +0.000 A 
ATOM     13  C   UNL     1       0.986   9.398  18.308  0.00  0.00    +0.000 A 
ENDBRANCH   7   8
ENDBRANCH   1   4
BRANCH   1  14
ATOM     14  C   UNL     1       5.631   4.326  16.458  0.00  0.00    +0.000 A 
ATOM     15  C   UNL     1       5.094   3.983  15.210  0.00  0.00    +0.000 A 
ATOM     16  C   UNL     1       5.800   4.228  14.022  0.00  0.00    +0.000 A 
ATOM     17  C   UNL     1       7.063   4.833  14.045  0.00  0.00    +0.000 A 
ATOM     18  C   UNL     1       7.630   5.153  15.290  0.00  0.00    +0.000 A 
ATOM     19  C   UNL     1       6.914   4.896  16.472  0.00  0.00    +0.000 A 
BRANCH  17  20
ATOM     20  C   UNL     1       7.800   5.171  12.767  0.00  0.00    +0.000 C 
ATOM     21  F   UNL     1       9.146   5.280  12.928  0.00  0.00    +0.000 F 
ATOM     22  F   UNL     1       7.613   4.227  11.805  0.00  0.00    +0.000 F 
ATOM     23  F   UNL     1       7.386   6.347  12.225  0.00  0.00    +0.000 F 
ENDBRANCH  17  20
BRANCH  19  24
ATOM     24  N   UNL     1       7.540   5.287  17.723  0.00  0.00    +0.000 N 
ATOM     25  O   UNL     1       8.078   4.400  18.401  0.00  0.00    +0.000 OA
ATOM     26  O   UNL     1       7.521   6.492  18.008  0.00  0.00    +0.000 OA
ENDBRANCH  19  24
ENDBRANCH   1  14
TORSDOF 5
ENDMDL
MODEL 6
REMARK VINA RESULT:      -7.7      2.660      3.477
REMARK  Name = 
REMARK  6 active torsions:
REMARK  status: ('A' for Active; 'I' for Inactive)
REMARK    1  A    between atoms: C_1  and  N_2
REMARK    2  A    between atoms: C_3  and  S_4
REMARK    3  A    between atoms: S_4  and  C_5
REMARK    4  A    between atoms: C_8  and  C_9
REMARK    5  A    between atoms: C_14  and  N_15
REMARK    6  A    between atoms: C_20  and  C_21
REMARK                            x       y       z     vdW  Elec       q    Type
REMARK                         _______ _______ _______ _____ _____    ______ ____
ROOT
ATOM      1  S   UNL     1       4.691   4.726  18.677  0.00  0.00    +0.000 S 
ENDROOT
BRANCH   1   4
ATOM      2  C   UNL     1       2.125   5.994  20.142  0.00  0.00    +0.000 C 
ATOM      3  N   UNL     1       2.769   6.649  19.030  0.00  0.00    +0.000 N 
ATOM      4  C   UNL     1       3.847   6.194  18.316  0.00  0.00    +0.000 A 
ATOM      5  N   UNL     1       4.193   7.082  17.419  0.00  0.00    +0.000 NA
ATOM      6  N   UNL     1       3.332   8.147  17.540  0.00  0.00    +0.000 NA
ATOM      7  C   UNL     1       2.451   7.887  18.496  0.00  0.00    +0.000 A 
BRANCH   7   8
ATOM      8  C   UNL     1       1.378   8.803  18.922  0.00  0.00    +0.000 A 
ATOM      9  C   UNL     1       0.584   9.522  18.017  0.00  0.00    +0.000 A 
ATOM     10  C   UNL     1      -0.451  10.352  18.460  0.00  0.00    +0.000 A 
ATOM     11  C   UNL     1      -0.685  10.509  19.822  0.00  0.00    +0.000 A 
ATOM     12  C   UNL     1       0.119   9.841  20.740  0.00  0.00    +0.000 A 
ATOM     13  C   UNL     1       1.141   8.995  20.294  0.00  0.00    +0.000 A 
ENDBRANCH   7   8
ENDBRANCH   1   4
BRANCH   1  14
ATOM     14  C   UNL     1       5.335   4.322  17.057  0.00  0.00    +0.000 A 
ATOM     15  C   UNL     1       4.446   3.797  16.110  0.00  0.00    +0.000 A 
ATOM     16  C   UNL     1       4.821   3.645  14.766  0.00  0.00    +0.000 A 
ATOM     17  C   UNL     1       6.096   4.022  14.325  0.00  0.00    +0.000 A 
ATOM     18  C   UNL     1       7.011   4.520  15.267  0.00  0.00    +0.000 A 
ATOM     19  C   UNL     1       6.623   4.661  16.612  0.00  0.00    +0.000 A 
BRANCH  17  20
ATOM     20  C   UNL     1       6.484   3.933  12.865  0.00  0.00    +0.000 C 
ATOM     21  F   UNL     1       6.989   2.722  12.510  0.00  0.00    +0.000 F 
ATOM     22  F   UNL     1       5.425   4.156  12.040  0.00  0.00    +0.000 F 
ATOM     23  F   UNL     1       7.426   4.853  12.523  0.00  0.00    +0.000 F 
ENDBRANCH  17  20
BRANCH  19  24
ATOM     24  N   UNL     1       7.603   5.219  17.528  0.00  0.00    +0.000 N 
ATOM     25  O   UNL     1       7.793   6.444  17.493  0.00  0.00    +0.000 OA
ATOM     26  O   UNL     1       8.158   4.431  18.305  0.00  0.00    +0.000 OA
ENDBRANCH  19  24
ENDBRANCH   1  14
TORSDOF 5
ENDMDL
MODEL 7
REMARK VINA RESULT:      -7.7      2.653      3.438
REMARK  Name = 
REMARK  6 active torsions:
REMARK  status: ('A' for Active; 'I' for Inactive)
REMARK    1  A    between atoms: C_1  and  N_2
REMARK    2  A    between atoms: C_3  and  S_4
REMARK    3  A    between atoms: S_4  and  C_5
REMARK    4  A    between atoms: C_8  and  C_9
REMARK    5  A    between atoms: C_14  and  N_15
REMARK    6  A    between atoms: C_20  and  C_21
REMARK                            x       y       z     vdW  Elec       q    Type
REMARK                         _______ _______ _______ _____ _____    ______ ____
ROOT
ATOM      1  S   UNL     1       4.665   4.602  18.603  0.00  0.00    +0.000 S 
ENDROOT
BRANCH   1   4
ATOM      2  C   UNL     1       2.157   5.893  20.144  0.00  0.00    +0.000 C 
ATOM      3  N   UNL     1       2.791   6.557  19.032  0.00  0.00    +0.000 N 
ATOM      4  C   UNL     1       3.845   6.093  18.288  0.00  0.00    +0.000 A 
ATOM      5  N   UNL     1       4.191   6.990  17.399  0.00  0.00    +0.000 NA
ATOM      6  N   UNL     1       3.354   8.070  17.559  0.00  0.00    +0.000 NA
ATOM      7  C   UNL     1       2.488   7.810  18.528  0.00  0.00    +0.000 A 
BRANCH   7   8
ATOM      8  C   UNL     1       1.443   8.739  18.993  0.00  0.00    +0.000 A 
ATOM      9  C   UNL     1       1.124   8.913  20.347  0.00  0.00    +0.000 A 
ATOM     10  C   UNL     1       0.151   9.833  20.752  0.00  0.00    +0.000 A 
ATOM     11  C   UNL     1      -0.550  10.570  19.803  0.00  0.00    +0.000 A 
ATOM     12  C   UNL     1      -0.282  10.381  18.450  0.00  0.00    +0.000 A 
ATOM     13  C   UNL     1       0.706   9.474  18.049  0.00  0.00    +0.000 A 
ENDBRANCH   7   8
ENDBRANCH   1   4
BRANCH   1  14
ATOM     14  C   UNL     1       5.363   4.273  16.989  0.00  0.00    +0.000 A 
ATOM     15  C   UNL     1       4.515   3.754  16.001  0.00  0.00    +0.000 A 
ATOM     16  C   UNL     1       4.929   3.659  14.664  0.00  0.00    +0.000 A 
ATOM     17  C   UNL     1       6.202   4.090  14.269  0.00  0.00    +0.000 A 
ATOM     18  C   UNL     1       7.076   4.583  15.252  0.00  0.00    +0.000 A 
ATOM     19  C   UNL     1       6.650   4.666  16.590  0.00  0.00    +0.000 A 
BRANCH  17  20
ATOM     20  C   UNL     1       6.630   4.062  12.819  0.00  0.00    +0.000 C 
ATOM     21  F   UNL     1       7.179   2.879  12.436  0.00  0.00    +0.000 F 
ATOM     22  F   UNL     1       5.586   4.282  11.974  0.00  0.00    +0.000 F 
ATOM     23  F   UNL     1       7.553   5.020  12.532  0.00  0.00    +0.000 F 
ENDBRANCH  17  20
BRANCH  19  24
ATOM     24  N   UNL     1       7.589   5.222  17.549  0.00  0.00    +0.000 N 
ATOM     25  O   UNL     1       8.160   4.436  18.319  0.00  0.00    +0.000 OA
ATOM     26  O   UNL     1       7.778   6.445  17.506  0.00  0.00    +0.000 OA
ENDBRANCH  19  24
ENDBRANCH   1  14
TORSDOF 5
ENDMDL
MODEL 8
REMARK VINA RESULT:      -7.7      4.159      5.577
REMARK  Name = 
REMARK  6 active torsions:
REMARK  status: ('A' for Active; 'I' for Inactive)
REMARK    1  A    between atoms: C_1  and  N_2
REMARK    2  A    between atoms: C_3  and  S_4
REMARK    3  A    between atoms: S_4  and  C_5
REMARK    4  A    between atoms: C_8  and  C_9
REMARK    5  A    between atoms: C_14  and  N_15
REMARK    6  A    between atoms: C_20  and  C_21
REMARK                            x       y       z     vdW  Elec       q    Type
REMARK                         _______ _______ _______ _____ _____    ______ ____
ROOT
ATOM      1  S   UNL     1       0.636  11.135  18.884  0.00  0.00    +0.000 S 
ENDROOT
BRANCH   1   4
ATOM      2  C   UNL     1      -1.984  12.774  19.770  0.00  0.00    +0.000 C 
ATOM      3  N   UNL     1      -2.055  11.663  18.853  0.00  0.00    +0.000 N 
ATOM      4  C   UNL     1      -1.014  10.879  18.426  0.00  0.00    +0.000 A 
ATOM      5  N   UNL     1      -1.444  10.006  17.551  0.00  0.00    +0.000 NA
ATOM      6  N   UNL     1      -2.794  10.215  17.392  0.00  0.00    +0.000 NA
ATOM      7  C   UNL     1      -3.179  11.199  18.192  0.00  0.00    +0.000 A 
BRANCH   7   8
ATOM      8  C   UNL     1      -4.556  11.715  18.287  0.00  0.00    +0.000 A 
ATOM      9  C   UNL     1      -5.237  11.853  19.505  0.00  0.00    +0.000 A 
ATOM     10  C   UNL     1      -6.530  12.384  19.558  0.00  0.00    +0.000 A 
ATOM     11  C   UNL     1      -7.183  12.750  18.385  0.00  0.00    +0.000 A 
ATOM     12  C   UNL     1      -6.545  12.579  17.161  0.00  0.00    +0.000 A 
ATOM     13  C   UNL     1      -5.242  12.067  17.112  0.00  0.00    +0.000 A 
ENDBRANCH   7   8
ENDBRANCH   1   4
BRANCH   1  14
ATOM     14  C   UNL     1       1.178   9.441  19.082  0.00  0.00    +0.000 A 
ATOM     15  C   UNL     1       1.793   8.817  17.988  0.00  0.00    +0.000 A 
ATOM     16  C   UNL     1       2.424   7.571  18.121  0.00  0.00    +0.000 A 
ATOM     17  C   UNL     1       2.469   6.913  19.357  0.00  0.00    +0.000 A 
ATOM     18  C   UNL     1       1.830   7.509  20.457  0.00  0.00    +0.000 A 
ATOM     19  C   UNL     1       1.196   8.755  20.307  0.00  0.00    +0.000 A 
BRANCH  17  20
ATOM     20  C   UNL     1       3.212   5.606  19.529  0.00  0.00    +0.000 C 
ATOM     21  F   UNL     1       3.102   4.773  18.460  0.00  0.00    +0.000 F 
ATOM     22  F   UNL     1       4.546   5.798  19.719  0.00  0.00    +0.000 F 
ATOM     23  F   UNL     1       2.777   4.901  20.607  0.00  0.00    +0.000 F 
ENDBRANCH  17  20
BRANCH  19  24
ATOM     24  N   UNL     1       0.588   9.335  21.493  0.00  0.00    +0.000 N 
ATOM     25  O   UNL     1      -0.587   9.032  21.745  0.00  0.00    +0.000 OA
ATOM     26  O   UNL     1       1.303  10.068  22.189  0.00  0.00    +0.000 OA
ENDBRANCH  19  24
ENDBRANCH   1  14
TORSDOF 5
ENDMDL
MODEL 9
REMARK VINA RESULT:      -7.6      4.141      5.608
REMARK  Name = 
REMARK  6 active torsions:
REMARK  status: ('A' for Active; 'I' for Inactive)
REMARK    1  A    between atoms: C_1  and  N_2
REMARK    2  A    between atoms: C_3  and  S_4
REMARK    3  A    between atoms: S_4  and  C_5
REMARK    4  A    between atoms: C_8  and  C_9
REMARK    5  A    between atoms: C_14  and  N_15
REMARK    6  A    between atoms: C_20  and  C_21
REMARK                            x       y       z     vdW  Elec       q    Type
REMARK                         _______ _______ _______ _____ _____    ______ ____
ROOT
ATOM      1  S   UNL     1       0.625  11.121  19.028  0.00  0.00    +0.000 S 
ENDROOT
BRANCH   1   4
ATOM      2  C   UNL     1      -2.047  12.709  19.849  0.00  0.00    +0.000 C 
ATOM      3  N   UNL     1      -2.066  11.630  18.893  0.00  0.00    +0.000 N 
ATOM      4  C   UNL     1      -1.000  10.869  18.488  0.00  0.00    +0.000 A 
ATOM      5  N   UNL     1      -1.383  10.022  17.566  0.00  0.00    +0.000 NA
ATOM      6  N   UNL     1      -2.726  10.226  17.353  0.00  0.00    +0.000 NA
ATOM      7  C   UNL     1      -3.156  11.180  18.167  0.00  0.00    +0.000 A 
BRANCH   7   8
ATOM      8  C   UNL     1      -4.540  11.681  18.217  0.00  0.00    +0.000 A 
ATOM      9  C   UNL     1      -5.260  12.052  17.072  0.00  0.00    +0.000 A 
ATOM     10  C   UNL     1      -6.586  12.488  17.157  0.00  0.00    +0.000 A 
ATOM     11  C   UNL     1      -7.206  12.599  18.397  0.00  0.00    +0.000 A 
ATOM     12  C   UNL     1      -6.497  12.281  19.552  0.00  0.00    +0.000 A 
ATOM     13  C   UNL     1      -5.176  11.825  19.462  0.00  0.00    +0.000 A 
ENDBRANCH   7   8
ENDBRANCH   1   4
BRANCH   1  14
ATOM     14  C   UNL     1       1.181   9.427  19.171  0.00  0.00    +0.000 A 
ATOM     15  C   UNL     1       1.805   8.845  18.059  0.00  0.00    +0.000 A 
ATOM     16  C   UNL     1       2.446   7.600  18.153  0.00  0.00    +0.000 A 
ATOM     17  C   UNL     1       2.492   6.902  19.366  0.00  0.00    +0.000 A 
ATOM     18  C   UNL     1       1.844   7.455  20.483  0.00  0.00    +0.000 A 
ATOM     19  C   UNL     1       1.200   8.700  20.373  0.00  0.00    +0.000 A 
BRANCH  17  20
ATOM     20  C   UNL     1       3.246   5.596  19.497  0.00  0.00    +0.000 C 
ATOM     21  F   UNL     1       4.594   5.752  19.582  0.00  0.00    +0.000 F 
ATOM     22  F   UNL     1       2.877   4.903  20.609  0.00  0.00    +0.000 F 
ATOM     23  F   UNL     1       3.025   4.762  18.446  0.00  0.00    +0.000 F 
ENDBRANCH  17  20
BRANCH  19  24
ATOM     24  N   UNL     1       0.584   9.235  21.575  0.00  0.00    +0.000 N 
ATOM     25  O   UNL     1      -0.611   8.973  21.775  0.00  0.00    +0.000 OA
ATOM     26  O   UNL     1       1.310   9.889  22.335  0.00  0.00    +0.000 OA
ENDBRANCH  19  24
ENDBRANCH   1  14
TORSDOF 5
ENDMDL
