MODEL 1
REMARK VINA RESULT:      -7.6      0.000      0.000
REMARK  Name = 
REMARK  3 active torsions:
REMARK  status: ('A' for Active; 'I' for Inactive)
REMARK    1  A    between atoms: C_1  and  C_2
REMARK    2  A    between atoms: C_2  and  N_3
REMARK    3  A    between atoms: C_7  and  C_8
REMARK                            x       y       z     vdW  Elec       q    Type
REMARK                         _______ _______ _______ _____ _____    ______ ____
ROOT
ATOM      1  N   UNL     1       7.855   7.420  17.047  0.00  0.00    +0.000 N 
ATOM      2  C   UNL     1       6.703   6.673  17.252  0.00  0.00    +0.000 A 
ATOM      3  N   UNL     1       5.918   6.493  16.185  0.00  0.00    +0.000 NA
ATOM      4  C   UNL     1       4.705   5.937  16.407  0.00  0.00    +0.000 A 
ATOM      5  C   UNL     1       4.259   5.537  17.639  0.00  0.00    +0.000 A 
ATOM      6  C   UNL     1       5.206   5.616  18.634  0.00  0.00    +0.000 A 
ATOM      7  N   UNL     1       6.413   6.200  18.471  0.00  0.00    +0.000 NA
ATOM      8  H   UNL     1       8.496   6.825  16.535  0.00  0.00    +0.000 HD
ENDROOT
BRANCH   5   9
ATOM      9  C   UNL     1       2.921   5.030  17.988  0.00  0.00    +0.000 C 
ATOM     10  O   UNL     1       2.054   5.883  18.167  0.00  0.00    +0.000 OA
ATOM     11  N   UNL     1       2.634   3.651  17.992  0.00  0.00    +0.000 N 
ATOM     12  C   UNL     1       1.224   3.271  18.064  0.00  0.00    +0.000 C 
ATOM     13  C   UNL     1       0.747   2.757  19.424  0.00  0.00    +0.000 C 
ATOM     14  C   UNL     1       1.362   3.441  20.645  0.00  0.00    +0.000 C 
ATOM     15  C   UNL     1       2.528   2.676  21.277  0.00  0.00    +0.000 C 
ATOM     16  C   UNL     1       3.825   2.587  20.469  0.00  0.00    +0.000 C 
ATOM     17  C   UNL     1       3.743   1.747  19.189  0.00  0.00    +0.000 C 
ATOM     18  C   UNL     1       3.592   2.548  17.890  0.00  0.00    +0.000 C 
ENDBRANCH   5   9
BRANCH   1  20
ATOM     19  C   UNL     1       8.405   9.514  18.136  0.00  0.00    +0.000 C 
ATOM     20  C   UNL     1       8.411   7.999  18.257  0.00  0.00    +0.000 C 
ENDBRANCH   1  20
TORSDOF 2
ENDMDL
MODEL 2
REMARK VINA RESULT:      -7.3      2.408      3.606
REMARK  Name = 
REMARK  3 active torsions:
REMARK  status: ('A' for Active; 'I' for Inactive)
REMARK    1  A    between atoms: C_1  and  C_2
REMARK    2  A    between atoms: C_2  and  N_3
REMARK    3  A    between atoms: C_7  and  C_8
REMARK                            x       y       z     vdW  Elec       q    Type
REMARK                         _______ _______ _______ _____ _____    ______ ____
ROOT
ATOM      1  N   UNL     1       7.480   5.135  14.506  0.00  0.00    +0.000 N 
ATOM      2  C   UNL     1       6.718   4.988  15.657  0.00  0.00    +0.000 A 
ATOM      3  N   UNL     1       7.322   5.299  16.809  0.00  0.00    +0.000 NA
ATOM      4  C   UNL     1       6.665   4.981  17.946  0.00  0.00    +0.000 A 
ATOM      5  C   UNL     1       5.429   4.391  17.979  0.00  0.00    +0.000 A 
ATOM      6  C   UNL     1       4.832   4.268  16.746  0.00  0.00    +0.000 A 
ATOM      7  N   UNL     1       5.462   4.532  15.581  0.00  0.00    +0.000 NA
ATOM      8  H   UNL     1       7.550   6.131  14.332  0.00  0.00    +0.000 HD
ENDROOT
BRANCH   5   9
ATOM      9  C   UNL     1       4.694   3.912  19.162  0.00  0.00    +0.000 C 
ATOM     10  O   UNL     1       5.219   2.989  19.782  0.00  0.00    +0.000 OA
ATOM     11  N   UNL     1       3.527   4.558  19.616  0.00  0.00    +0.000 N 
ATOM     12  C   UNL     1       3.046   4.189  20.946  0.00  0.00    +0.000 C 
ATOM     13  C   UNL     1       1.820   3.274  20.975  0.00  0.00    +0.000 C 
ATOM     14  C   UNL     1       1.759   2.211  19.877  0.00  0.00    +0.000 C 
ATOM     15  C   UNL     1       0.882   2.588  18.680  0.00  0.00    +0.000 C 
ATOM     16  C   UNL     1       1.377   3.723  17.781  0.00  0.00    +0.000 C 
ATOM     17  C   UNL     1       1.390   5.113  18.428  0.00  0.00    +0.000 C 
ATOM     18  C   UNL     1       2.762   5.593  18.919  0.00  0.00    +0.000 C 
ENDBRANCH   5   9
BRANCH   1  20
ATOM     19  C   UNL     1       7.427   5.044  12.084  0.00  0.00    +0.000 C 
ATOM     20  C   UNL     1       7.003   4.360  13.375  0.00  0.00    +0.000 C 
ENDBRANCH   1  20
TORSDOF 2
ENDMDL
MODEL 3
REMARK VINA RESULT:      -7.2      2.042      2.893
REMARK  Name = 
REMARK  3 active torsions:
REMARK  status: ('A' for Active; 'I' for Inactive)
REMARK    1  A    between atoms: C_1  and  C_2
REMARK    2  A    between atoms: C_2  and  N_3
REMARK    3  A    between atoms: C_7  and  C_8
REMARK                            x       y       z     vdW  Elec       q    Type
REMARK                         _______ _______ _______ _____ _____    ______ ____
ROOT
ATOM      1  N   UNL     1       7.840   4.933  14.533  0.00  0.00    +0.000 N 
ATOM      2  C   UNL     1       6.866   5.186  15.490  0.00  0.00    +0.000 A 
ATOM      3  N   UNL     1       7.057   4.626  16.690  0.00  0.00    +0.000 NA
ATOM      4  C   UNL     1       6.031   4.701  17.567  0.00  0.00    +0.000 A 
ATOM      5  C   UNL     1       4.841   5.328  17.304  0.00  0.00    +0.000 A 
ATOM      6  C   UNL     1       4.815   6.008  16.108  0.00  0.00    +0.000 A 
ATOM      7  N   UNL     1       5.796   5.930  15.183  0.00  0.00    +0.000 NA
ATOM      8  H   UNL     1       8.647   5.489  14.791  0.00  0.00    +0.000 HD
ENDROOT
BRANCH   5   9
ATOM      9  C   UNL     1       3.638   5.361  18.152  0.00  0.00    +0.000 C 
ATOM     10  O   UNL     1       3.454   6.401  18.782  0.00  0.00    +0.000 OA
ATOM     11  N   UNL     1       2.698   4.312  18.140  0.00  0.00    +0.000 N 
ATOM     12  C   UNL     1       1.413   4.570  18.786  0.00  0.00    +0.000 C 
ATOM     13  C   UNL     1       1.219   3.917  20.156  0.00  0.00    +0.000 C 
ATOM     14  C   UNL     1       2.461   3.856  21.045  0.00  0.00    +0.000 C 
ATOM     15  C   UNL     1       3.194   2.512  21.016  0.00  0.00    +0.000 C 
ATOM     16  C   UNL     1       3.905   2.132  19.714  0.00  0.00    +0.000 C 
ATOM     17  C   UNL     1       2.983   1.850  18.523  0.00  0.00    +0.000 C 
ATOM     18  C   UNL     1       2.850   2.998  17.513  0.00  0.00    +0.000 C 
ENDBRANCH   5   9
BRANCH   1  20
ATOM     19  C   UNL     1       6.773   3.830  12.658  0.00  0.00    +0.000 C 
ATOM     20  C   UNL     1       7.392   5.122  13.165  0.00  0.00    +0.000 C 
ENDBRANCH   1  20
TORSDOF 2
ENDMDL
MODEL 4
REMARK VINA RESULT:      -7.1      2.850      4.176
REMARK  Name = 
REMARK  3 active torsions:
REMARK  status: ('A' for Active; 'I' for Inactive)
REMARK    1  A    between atoms: C_1  and  C_2
REMARK    2  A    between atoms: C_2  and  N_3
REMARK    3  A    between atoms: C_7  and  C_8
REMARK                            x       y       z     vdW  Elec       q    Type
REMARK                         _______ _______ _______ _____ _____    ______ ____
ROOT
ATOM      1  N   UNL     1       7.055   4.357  13.048  0.00  0.00    +0.000 N 
ATOM      2  C   UNL     1       6.538   4.556  14.321  0.00  0.00    +0.000 A 
ATOM      3  N   UNL     1       7.378   5.064  15.228  0.00  0.00    +0.000 NA
ATOM      4  C   UNL     1       6.951   5.084  16.511  0.00  0.00    +0.000 A 
ATOM      5  C   UNL     1       5.720   4.642  16.916  0.00  0.00    +0.000 A 
ATOM      6  C   UNL     1       4.878   4.295  15.884  0.00  0.00    +0.000 A 
ATOM      7  N   UNL     1       5.270   4.220  14.594  0.00  0.00    +0.000 NA
ATOM      8  H   UNL     1       7.138   5.274  12.625  0.00  0.00    +0.000 HD
ENDROOT
BRANCH   5   9
ATOM      9  C   UNL     1       5.218   4.524  18.296  0.00  0.00    +0.000 C 
ATOM     10  O   UNL     1       6.026   4.115  19.127  0.00  0.00    +0.000 OA
ATOM     11  N   UNL     1       3.930   4.970  18.652  0.00  0.00    +0.000 N 
ATOM     12  C   UNL     1       3.641   5.076  20.081  0.00  0.00    +0.000 C 
ATOM     13  C   UNL     1       2.757   3.970  20.660  0.00  0.00    +0.000 C 
ATOM     14  C   UNL     1       2.978   2.572  20.081  0.00  0.00    +0.000 C 
ATOM     15  C   UNL     1       1.977   2.173  18.993  0.00  0.00    +0.000 C 
ATOM     16  C   UNL     1       2.062   2.917  17.659  0.00  0.00    +0.000 C 
ATOM     17  C   UNL     1       1.677   4.400  17.711  0.00  0.00    +0.000 C 
ATOM     18  C   UNL     1       2.856   5.382  17.747  0.00  0.00    +0.000 C 
ENDBRANCH   5   9
BRANCH   1  20
ATOM     19  C   UNL     1       7.302   2.536  11.468  0.00  0.00    +0.000 C 
ATOM     20  C   UNL     1       6.320   3.392  12.252  0.00  0.00    +0.000 C 
ENDBRANCH   1  20
TORSDOF 2
ENDMDL
MODEL 5
REMARK VINA RESULT:      -7.1      2.183      3.429
REMARK  Name = 
REMARK  3 active torsions:
REMARK  status: ('A' for Active; 'I' for Inactive)
REMARK    1  A    between atoms: C_1  and  C_2
REMARK    2  A    between atoms: C_2  and  N_3
REMARK    3  A    between atoms: C_7  and  C_8
REMARK                            x       y       z     vdW  Elec       q    Type
REMARK                         _______ _______ _______ _____ _____    ______ ____
ROOT
ATOM      1  N   UNL     1       6.508   5.386  13.891  0.00  0.00    +0.000 N 
ATOM      2  C   UNL     1       5.749   5.369  15.053  0.00  0.00    +0.000 A 
ATOM      3  N   UNL     1       5.563   6.549  15.655  0.00  0.00    +0.000 NA
ATOM      4  C   UNL     1       4.994   6.524  16.881  0.00  0.00    +0.000 A 
ATOM      5  C   UNL     1       4.585   5.380  17.515  0.00  0.00    +0.000 A 
ATOM      6  C   UNL     1       4.673   4.246  16.740  0.00  0.00    +0.000 A 
ATOM      7  N   UNL     1       5.270   4.213  15.529  0.00  0.00    +0.000 NA
ATOM      8  H   UNL     1       5.922   5.790  13.170  0.00  0.00    +0.000 HD
ENDROOT
BRANCH   5   9
ATOM      9  C   UNL     1       4.063   5.250  18.885  0.00  0.00    +0.000 C 
ATOM     10  O   UNL     1       4.888   5.381  19.788  0.00  0.00    +0.000 OA
ATOM     11  N   UNL     1       2.684   5.110  19.138  0.00  0.00    +0.000 N 
ATOM     12  C   UNL     1       2.247   5.281  20.522  0.00  0.00    +0.000 C 
ATOM     13  C   UNL     1       1.898   3.993  21.270  0.00  0.00    +0.000 C 
ATOM     14  C   UNL     1       2.771   2.780  20.945  0.00  0.00    +0.000 C 
ATOM     15  C   UNL     1       2.158   1.815  19.927  0.00  0.00    +0.000 C 
ATOM     16  C   UNL     1       2.027   2.312  18.485  0.00  0.00    +0.000 C 
ATOM     17  C   UNL     1       1.019   3.447  18.273  0.00  0.00    +0.000 C 
ATOM     18  C   UNL     1       1.628   4.850  18.158  0.00  0.00    +0.000 C 
ENDBRANCH   5   9
BRANCH   1  20
ATOM     19  C   UNL     1       6.463   3.602  12.252  0.00  0.00    +0.000 C 
ATOM     20  C   UNL     1       7.090   4.103  13.543  0.00  0.00    +0.000 C 
ENDBRANCH   1  20
TORSDOF 2
ENDMDL
MODEL 6
REMARK VINA RESULT:      -7.1      1.950      2.888
REMARK  Name = 
REMARK  3 active torsions:
REMARK  status: ('A' for Active; 'I' for Inactive)
REMARK    1  A    between atoms: C_1  and  C_2
REMARK    2  A    between atoms: C_2  and  N_3
REMARK    3  A    between atoms: C_7  and  C_8
REMARK                            x       y       z     vdW  Elec       q    Type
REMARK                         _______ _______ _______ _____ _____    ______ ____
ROOT
ATOM      1  N   UNL     1       8.246   9.310  17.862  0.00  0.00    +0.000 N 
ATOM      2  C   UNL     1       7.700   8.040  17.738  0.00  0.00    +0.000 A 
ATOM      3  N   UNL     1       6.697   7.911  16.863  0.00  0.00    +0.000 NA
ATOM      4  C   UNL     1       6.031   6.734  16.870  0.00  0.00    +0.000 A 
ATOM      5  C   UNL     1       6.338   5.683  17.692  0.00  0.00    +0.000 A 
ATOM      6  C   UNL     1       7.485   5.863  18.431  0.00  0.00    +0.000 A 
ATOM      7  N   UNL     1       8.160   7.032  18.490  0.00  0.00    +0.000 NA
ATOM      8  H   UNL     1       8.801   9.468  17.029  0.00  0.00    +0.000 HD
ENDROOT
BRANCH   5   9
ATOM      9  C   UNL     1       5.602   4.416  17.844  0.00  0.00    +0.000 C 
ATOM     10  O   UNL     1       5.910   3.520  17.060  0.00  0.00    +0.000 OA
ATOM     11  N   UNL     1       4.695   4.214  18.902  0.00  0.00    +0.000 N 
ATOM     12  C   UNL     1       4.243   2.843  19.130  0.00  0.00    +0.000 C 
ATOM     13  C   UNL     1       2.824   2.527  18.656  0.00  0.00    +0.000 C 
ATOM     14  C   UNL     1       2.388   3.212  17.361  0.00  0.00    +0.000 C 
ATOM     15  C   UNL     1       1.548   4.476  17.565  0.00  0.00    +0.000 C 
ATOM     16  C   UNL     1       2.255   5.694  18.164  0.00  0.00    +0.000 C 
ATOM     17  C   UNL     1       2.695   5.543  19.625  0.00  0.00    +0.000 C 
ATOM     18  C   UNL     1       4.181   5.223  19.831  0.00  0.00    +0.000 C 
ENDBRANCH   5   9
BRANCH   1  20
ATOM     19  C   UNL     1       9.630  10.895  19.065  0.00  0.00    +0.000 C 
ATOM     20  C   UNL     1       8.956   9.533  19.109  0.00  0.00    +0.000 C 
ENDBRANCH   1  20
TORSDOF 2
ENDMDL
MODEL 7
REMARK VINA RESULT:      -6.9      1.679      2.580
REMARK  Name = 
REMARK  3 active torsions:
REMARK  status: ('A' for Active; 'I' for Inactive)
REMARK    1  A    between atoms: C_1  and  C_2
REMARK    2  A    between atoms: C_2  and  N_3
REMARK    3  A    between atoms: C_7  and  C_8
REMARK                            x       y       z     vdW  Elec       q    Type
REMARK                         _______ _______ _______ _____ _____    ______ ____
ROOT
ATOM      1  N   UNL     1       7.820   8.119  17.335  0.00  0.00    +0.000 N 
ATOM      2  C   UNL     1       7.172   6.973  17.775  0.00  0.00    +0.000 A 
ATOM      3  N   UNL     1       6.126   6.569  17.047  0.00  0.00    +0.000 NA
ATOM      4  C   UNL     1       5.371   5.574  17.564  0.00  0.00    +0.000 A 
ATOM      5  C   UNL     1       5.631   4.956  18.759  0.00  0.00    +0.000 A 
ATOM      6  C   UNL     1       6.818   5.335  19.342  0.00  0.00    +0.000 A 
ATOM      7  N   UNL     1       7.584   6.350  18.887  0.00  0.00    +0.000 NA
ATOM      8  H   UNL     1       8.350   7.853  16.514  0.00  0.00    +0.000 HD
ENDROOT
BRANCH   5   9
ATOM      9  C   UNL     1       4.806   3.948  19.447  0.00  0.00    +0.000 C 
ATOM     10  O   UNL     1       5.308   2.832  19.562  0.00  0.00    +0.000 OA
ATOM     11  N   UNL     1       3.574   4.286  20.041  0.00  0.00    +0.000 N 
ATOM     12  C   UNL     1       2.981   3.296  20.938  0.00  0.00    +0.000 C 
ATOM     13  C   UNL     1       1.799   2.511  20.367  0.00  0.00    +0.000 C 
ATOM     14  C   UNL     1       1.891   2.159  18.882  0.00  0.00    +0.000 C 
ATOM     15  C   UNL     1       1.119   3.106  17.959  0.00  0.00    +0.000 C 
ATOM     16  C   UNL     1       1.650   4.535  17.822  0.00  0.00    +0.000 C 
ATOM     17  C   UNL     1       1.541   5.398  19.084  0.00  0.00    +0.000 C 
ATOM     18  C   UNL     1       2.836   5.542  19.893  0.00  0.00    +0.000 C 
ENDBRANCH   5   9
BRANCH   1  20
ATOM     19  C   UNL     1       8.683  10.275  18.031  0.00  0.00    +0.000 C 
ATOM     20  C   UNL     1       8.597   8.793  18.360  0.00  0.00    +0.000 C 
ENDBRANCH   1  20
TORSDOF 2
ENDMDL
MODEL 8
REMARK VINA RESULT:      -6.8      1.364      1.744
REMARK  Name = 
REMARK  3 active torsions:
REMARK  status: ('A' for Active; 'I' for Inactive)
REMARK    1  A    between atoms: C_1  and  C_2
REMARK    2  A    between atoms: C_2  and  N_3
REMARK    3  A    between atoms: C_7  and  C_8
REMARK                            x       y       z     vdW  Elec       q    Type
REMARK                         _______ _______ _______ _____ _____    ______ ____
ROOT
ATOM      1  N   UNL     1       8.144   7.367  17.468  0.00  0.00    +0.000 N 
ATOM      2  C   UNL     1       7.168   6.390  17.612  0.00  0.00    +0.000 A 
ATOM      3  N   UNL     1       7.432   5.204  17.053  0.00  0.00    +0.000 NA
ATOM      4  C   UNL     1       6.419   4.309  17.015  0.00  0.00    +0.000 A 
ATOM      5  C   UNL     1       5.171   4.541  17.531  0.00  0.00    +0.000 A 
ATOM      6  C   UNL     1       5.060   5.723  18.225  0.00  0.00    +0.000 A 
ATOM      7  N   UNL     1       6.026   6.666  18.256  0.00  0.00    +0.000 NA
ATOM      8  H   UNL     1       8.899   7.113  18.094  0.00  0.00    +0.000 HD
ENDROOT
BRANCH   5   9
ATOM      9  C   UNL     1       3.986   3.672  17.436  0.00  0.00    +0.000 C 
ATOM     10  O   UNL     1       3.350   3.746  16.385  0.00  0.00    +0.000 OA
ATOM     11  N   UNL     1       3.679   2.732  18.438  0.00  0.00    +0.000 N 
ATOM     12  C   UNL     1       2.663   1.732  18.115  0.00  0.00    +0.000 C 
ATOM     13  C   UNL     1       1.291   1.954  18.753  0.00  0.00    +0.000 C 
ATOM     14  C   UNL     1       0.842   3.411  18.871  0.00  0.00    +0.000 C 
ATOM     15  C   UNL     1       1.076   4.035  20.250  0.00  0.00    +0.000 C 
ATOM     16  C   UNL     1       2.528   4.277  20.668  0.00  0.00    +0.000 C 
ATOM     17  C   UNL     1       3.360   3.012  20.909  0.00  0.00    +0.000 C 
ATOM     18  C   UNL     1       4.297   2.616  19.760  0.00  0.00    +0.000 C 
ENDBRANCH   5   9
BRANCH   1  20
ATOM     19  C   UNL     1       8.690   9.538  18.397  0.00  0.00    +0.000 C 
ATOM     20  C   UNL     1       7.655   8.724  17.637  0.00  0.00    +0.000 C 
ENDBRANCH   1  20
TORSDOF 2
ENDMDL
MODEL 9
REMARK VINA RESULT:      -6.7      2.649      3.511
REMARK  Name = 
REMARK  3 active torsions:
REMARK  status: ('A' for Active; 'I' for Inactive)
REMARK    1  A    between atoms: C_1  and  C_2
REMARK    2  A    between atoms: C_2  and  N_3
REMARK    3  A    between atoms: C_7  and  C_8
REMARK                            x       y       z     vdW  Elec       q    Type
REMARK                         _______ _______ _______ _____ _____    ______ ____
ROOT
ATOM      1  N   UNL     1       7.168   4.541  13.395  0.00  0.00    +0.000 N 
ATOM      2  C   UNL     1       6.718   4.393  14.700  0.00  0.00    +0.000 A 
ATOM      3  N   UNL     1       5.553   3.755  14.854  0.00  0.00    +0.000 NA
ATOM      4  C   UNL     1       5.009   3.771  16.092  0.00  0.00    +0.000 A 
ATOM      5  C   UNL     1       5.588   4.373  17.177  0.00  0.00    +0.000 A 
ATOM      6  C   UNL     1       6.856   4.854  16.943  0.00  0.00    +0.000 A 
ATOM      7  N   UNL     1       7.425   4.898  15.719  0.00  0.00    +0.000 NA
ATOM      8  H   UNL     1       7.498   3.630  13.099  0.00  0.00    +0.000 HD
ENDROOT
BRANCH   5   9
ATOM      9  C   UNL     1       5.018   4.535  18.525  0.00  0.00    +0.000 C 
ATOM     10  O   UNL     1       5.787   4.323  19.461  0.00  0.00    +0.000 OA
ATOM     11  N   UNL     1       3.711   5.022  18.719  0.00  0.00    +0.000 N 
ATOM     12  C   UNL     1       3.349   5.417  20.079  0.00  0.00    +0.000 C 
ATOM     13  C   UNL     1       2.446   4.439  20.833  0.00  0.00    +0.000 C 
ATOM     14  C   UNL     1       2.707   2.956  20.569  0.00  0.00    +0.000 C 
ATOM     15  C   UNL     1       1.766   2.321  19.542  0.00  0.00    +0.000 C 
ATOM     16  C   UNL     1       1.913   2.773  18.087  0.00  0.00    +0.000 C 
ATOM     17  C   UNL     1       1.513   4.227  17.810  0.00  0.00    +0.000 C 
ATOM     18  C   UNL     1       2.680   5.216  17.698  0.00  0.00    +0.000 C 
ENDBRANCH   5   9
BRANCH   1  20
ATOM     19  C   UNL     1       8.019   6.155  11.799  0.00  0.00    +0.000 C 
ATOM     20  C   UNL     1       8.128   5.615  13.216  0.00  0.00    +0.000 C 
ENDBRANCH   1  20
TORSDOF 2
ENDMDL
