MODEL 1
REMARK VINA RESULT:      -8.2      0.000      0.000
REMARK  Name = 
REMARK  7 active torsions:
REMARK  status: ('A' for Active; 'I' for Inactive)
REMARK    1  A    between atoms: C_1  and  C_2
REMARK    2  A    between atoms: C_4  and  C_5
REMARK    3  A    between atoms: C_11  and  C_12
REMARK    4  A    between atoms: C_17  and  C_18
REMARK    5  A    between atoms: C_18  and  C_19
REMARK    6  A    between atoms: C_19  and  N_20
REMARK    7  A    between atoms: C_24  and  C_25
REMARK                            x       y       z     vdW  Elec       q    Type
REMARK                         _______ _______ _______ _____ _____    ______ ____
ROOT
ATOM      1  C   UNL     1       0.752   9.719  19.575  0.00  0.00    +0.000 A 
ATOM      2  C   UNL     1       0.606   8.976  20.741  0.00  0.00    +0.000 A 
ATOM      3  C   UNL     1       1.323   7.791  20.873  0.00  0.00    +0.000 A 
ATOM      4  C   UNL     1       2.172   7.378  19.843  0.00  0.00    +0.000 A 
ATOM      5  C   UNL     1       2.959   6.217  19.951  0.00  0.00    +0.000 A 
ATOM      6  C   UNL     1       3.826   5.840  18.920  0.00  0.00    +0.000 A 
ATOM      7  C   UNL     1       3.852   6.611  17.754  0.00  0.00    +0.000 A 
ATOM      8  C   UNL     1       3.066   7.763  17.652  0.00  0.00    +0.000 A 
ATOM      9  C   UNL     1       2.236   8.174  18.685  0.00  0.00    +0.000 A 
ATOM     10  N   UNL     1       1.538   9.312  18.550  0.00  0.00    +0.000 NA
ENDROOT
BRANCH   1  16
ATOM     11  C   UNL     1      -1.882  10.392  17.832  0.00  0.00    +0.000 C 
ATOM     12  C   UNL     1      -1.025  11.336  18.601  0.00  0.00    +0.000 A 
ATOM     13  N   UNL     1      -1.363  12.687  18.593  0.00  0.00    +0.000 NA
ATOM     14  C   UNL     1      -0.496  13.383  19.303  0.00  0.00    +0.000 A 
ATOM     15  S   UNL     1       0.751  12.454  20.021  0.00  0.00    +0.000 S 
ATOM     16  C   UNL     1       0.099  11.013  19.354  0.00  0.00    +0.000 A 
BRANCH  14  17
ATOM     17  C   UNL     1      -0.608  14.819  19.451  0.00  0.00    +0.000 A 
ATOM     18  C   UNL     1       0.031  15.773  18.680  0.00  0.00    +0.000 A 
ATOM     19  C   UNL     1      -0.282  17.112  19.073  0.00  0.00    +0.000 A 
ATOM     20  C   UNL     1      -1.147  17.141  20.139  0.00  0.00    +0.000 A 
ATOM     21  S   UNL     1      -1.579  15.574  20.654  0.00  0.00    +0.000 S 
ENDBRANCH  14  17
ENDBRANCH   1  16
BRANCH   6  22
ATOM     22  C   UNL     1       4.721   4.632  19.075  0.00  0.00    +0.000 C 
BRANCH  22  23
ATOM     23  C   UNL     1       4.329   3.485  18.121  0.00  0.00    +0.000 C 
BRANCH  23  24
ATOM     24  N   UNL     1       3.351   2.580  18.721  0.00  0.00    +0.000 NA
ATOM     25  C   UNL     1       3.239   2.677  20.179  0.00  0.00    +0.000 C 
ATOM     26  C   UNL     1       1.753   2.635  20.494  0.00  0.00    +0.000 C 
ATOM     27  C   UNL     1       1.134   2.026  19.253  0.00  0.00    +0.000 C 
ATOM     28  C   UNL     1       2.009   2.562  18.122  0.00  0.00    +0.000 C 
ATOM     29  C   UNL     1       1.463   3.891  17.589  0.00  0.00    +0.000 C 
ENDBRANCH  23  24
ENDBRANCH  22  23
ENDBRANCH   6  22
TORSDOF 5
ENDMDL
MODEL 2
REMARK VINA RESULT:      -8.1      2.356      3.580
REMARK  Name = 
REMARK  7 active torsions:
REMARK  status: ('A' for Active; 'I' for Inactive)
REMARK    1  A    between atoms: C_1  and  C_2
REMARK    2  A    between atoms: C_4  and  C_5
REMARK    3  A    between atoms: C_11  and  C_12
REMARK    4  A    between atoms: C_17  and  C_18
REMARK    5  A    between atoms: C_18  and  C_19
REMARK    6  A    between atoms: C_19  and  N_20
REMARK    7  A    between atoms: C_24  and  C_25
REMARK                            x       y       z     vdW  Elec       q    Type
REMARK                         _______ _______ _______ _____ _____    ______ ____
ROOT
ATOM      1  C   UNL     1       0.924   9.553  19.355  0.00  0.00    +0.000 A 
ATOM      2  C   UNL     1       1.622   9.660  18.157  0.00  0.00    +0.000 A 
ATOM      3  C   UNL     1       2.451   8.612  17.771  0.00  0.00    +0.000 A 
ATOM      4  C   UNL     1       2.561   7.481  18.584  0.00  0.00    +0.000 A 
ATOM      5  C   UNL     1       3.343   6.373  18.213  0.00  0.00    +0.000 A 
ATOM      6  C   UNL     1       3.413   5.238  19.028  0.00  0.00    +0.000 A 
ATOM      7  C   UNL     1       2.733   5.251  20.250  0.00  0.00    +0.000 A 
ATOM      8  C   UNL     1       1.959   6.357  20.615  0.00  0.00    +0.000 A 
ATOM      9  C   UNL     1       1.844   7.470  19.795  0.00  0.00    +0.000 A 
ATOM     10  N   UNL     1       1.051   8.483  20.175  0.00  0.00    +0.000 NA
ENDROOT
BRANCH   1  16
ATOM     11  C   UNL     1      -1.857  10.511  18.020  0.00  0.00    +0.000 C 
ATOM     12  C   UNL     1      -1.221  11.007  19.272  0.00  0.00    +0.000 A 
ATOM     13  N   UNL     1      -1.871  12.010  19.987  0.00  0.00    +0.000 NA
ATOM     14  C   UNL     1      -1.169  12.347  21.051  0.00  0.00    +0.000 A 
ATOM     15  S   UNL     1       0.289  11.470  21.253  0.00  0.00    +0.000 S 
ATOM     16  C   UNL     1      -0.026  10.564  19.829  0.00  0.00    +0.000 A 
BRANCH  14  17
ATOM     17  C   UNL     1      -1.614  13.377  21.966  0.00  0.00    +0.000 A 
ATOM     18  C   UNL     1      -0.985  13.755  23.139  0.00  0.00    +0.000 A 
ATOM     19  C   UNL     1      -1.670  14.805  23.827  0.00  0.00    +0.000 A 
ATOM     20  C   UNL     1      -2.807  15.194  23.162  0.00  0.00    +0.000 A 
ATOM     21  S   UNL     1      -3.040  14.307  21.724  0.00  0.00    +0.000 S 
ENDBRANCH  14  17
ENDBRANCH   1  16
BRANCH   6  22
ATOM     22  C   UNL     1       4.197   4.023  18.586  0.00  0.00    +0.000 C 
BRANCH  22  23
ATOM     23  C   UNL     1       5.709   4.309  18.480  0.00  0.00    +0.000 C 
BRANCH  23  24
ATOM     24  N   UNL     1       6.209   4.129  17.118  0.00  0.00    +0.000 NA
ATOM     25  C   UNL     1       5.169   3.927  16.105  0.00  0.00    +0.000 C 
ATOM     26  C   UNL     1       5.575   4.770  14.907  0.00  0.00    +0.000 C 
ATOM     27  C   UNL     1       7.055   5.012  15.116  0.00  0.00    +0.000 C 
ATOM     28  C   UNL     1       7.187   5.114  16.635  0.00  0.00    +0.000 C 
ATOM     29  C   UNL     1       7.012   6.561  17.106  0.00  0.00    +0.000 C 
ENDBRANCH  23  24
ENDBRANCH  22  23
ENDBRANCH   6  22
TORSDOF 5
ENDMDL
MODEL 3
REMARK VINA RESULT:      -8.0      2.747      4.021
REMARK  Name = 
REMARK  7 active torsions:
REMARK  status: ('A' for Active; 'I' for Inactive)
REMARK    1  A    between atoms: C_1  and  C_2
REMARK    2  A    between atoms: C_4  and  C_5
REMARK    3  A    between atoms: C_11  and  C_12
REMARK    4  A    between atoms: C_17  and  C_18
REMARK    5  A    between atoms: C_18  and  C_19
REMARK    6  A    between atoms: C_19  and  N_20
REMARK    7  A    between atoms: C_24  and  C_25
REMARK                            x       y       z     vdW  Elec       q    Type
REMARK                         _______ _______ _______ _____ _____    ______ ____
ROOT
ATOM      1  C   UNL     1       1.066   9.920  19.588  0.00  0.00    +0.000 A 
ATOM      2  C   UNL     1       1.502  10.001  18.271  0.00  0.00    +0.000 A 
ATOM      3  C   UNL     1       2.113   8.889  17.699  0.00  0.00    +0.000 A 
ATOM      4  C   UNL     1       2.270   7.722  18.452  0.00  0.00    +0.000 A 
ATOM      5  C   UNL     1       2.831   6.555  17.903  0.00  0.00    +0.000 A 
ATOM      6  C   UNL     1       2.949   5.389  18.667  0.00  0.00    +0.000 A 
ATOM      7  C   UNL     1       2.548   5.424  20.006  0.00  0.00    +0.000 A 
ATOM      8  C   UNL     1       1.992   6.588  20.546  0.00  0.00    +0.000 A 
ATOM      9  C   UNL     1       1.828   7.738  19.788  0.00  0.00    +0.000 A 
ATOM     10  N   UNL     1       1.247   8.811  20.344  0.00  0.00    +0.000 NA
ENDROOT
BRANCH   1  16
ATOM     11  C   UNL     1       1.088  13.085  18.948  0.00  0.00    +0.000 C 
ATOM     12  C   UNL     1       0.351  12.373  20.028  0.00  0.00    +0.000 A 
ATOM     13  N   UNL     1      -0.436  13.126  20.895  0.00  0.00    +0.000 NA
ATOM     14  C   UNL     1      -1.000  12.349  21.799  0.00  0.00    +0.000 A 
ATOM     15  S   UNL     1      -0.628  10.684  21.644  0.00  0.00    +0.000 S 
ATOM     16  C   UNL     1       0.352  11.003  20.271  0.00  0.00    +0.000 A 
BRANCH  14  17
ATOM     17  C   UNL     1      -1.865  12.881  22.831  0.00  0.00    +0.000 A 
ATOM     18  C   UNL     1      -3.049  12.318  23.275  0.00  0.00    +0.000 A 
ATOM     19  C   UNL     1      -3.678  13.082  24.308  0.00  0.00    +0.000 A 
ATOM     20  C   UNL     1      -2.959  14.210  24.618  0.00  0.00    +0.000 A 
ATOM     21  S   UNL     1      -1.542  14.341  23.679  0.00  0.00    +0.000 S 
ENDBRANCH  14  17
ENDBRANCH   1  16
BRANCH   6  22
ATOM     22  C   UNL     1       3.486   4.119  18.047  0.00  0.00    +0.000 C 
BRANCH  22  23
ATOM     23  C   UNL     1       5.011   3.977  18.229  0.00  0.00    +0.000 C 
BRANCH  23  24
ATOM     24  N   UNL     1       5.685   5.273  18.251  0.00  0.00    +0.000 NA
ATOM     25  C   UNL     1       6.598   5.471  19.381  0.00  0.00    +0.000 C 
ATOM     26  C   UNL     1       7.843   6.130  18.809  0.00  0.00    +0.000 C 
ATOM     27  C   UNL     1       7.374   6.714  17.492  0.00  0.00    +0.000 C 
ATOM     28  C   UNL     1       6.337   5.704  17.006  0.00  0.00    +0.000 C 
ATOM     29  C   UNL     1       6.990   4.616  16.147  0.00  0.00    +0.000 C 
ENDBRANCH  23  24
ENDBRANCH  22  23
ENDBRANCH   6  22
TORSDOF 5
ENDMDL
MODEL 4
REMARK VINA RESULT:      -8.0      2.815      3.989
REMARK  Name = 
REMARK  7 active torsions:
REMARK  status: ('A' for Active; 'I' for Inactive)
REMARK    1  A    between atoms: C_1  and  C_2
REMARK    2  A    between atoms: C_4  and  C_5
REMARK    3  A    between atoms: C_11  and  C_12
REMARK    4  A    between atoms: C_17  and  C_18
REMARK    5  A    between atoms: C_18  and  C_19
REMARK    6  A    between atoms: C_19  and  N_20
REMARK    7  A    between atoms: C_24  and  C_25
REMARK                            x       y       z     vdW  Elec       q    Type
REMARK                         _______ _______ _______ _____ _____    ______ ____
ROOT
ATOM      1  C   UNL     1       0.742   9.972  19.672  0.00  0.00    +0.000 A 
ATOM      2  C   UNL     1       1.345  10.124  18.428  0.00  0.00    +0.000 A 
ATOM      3  C   UNL     1       2.110   9.078  17.923  0.00  0.00    +0.000 A 
ATOM      4  C   UNL     1       2.253   7.904  18.667  0.00  0.00    +0.000 A 
ATOM      5  C   UNL     1       2.971   6.798  18.177  0.00  0.00    +0.000 A 
ATOM      6  C   UNL     1       3.074   5.621  18.926  0.00  0.00    +0.000 A 
ATOM      7  C   UNL     1       2.496   5.586  20.198  0.00  0.00    +0.000 A 
ATOM      8  C   UNL     1       1.785   6.689  20.681  0.00  0.00    +0.000 A 
ATOM      9  C   UNL     1       1.636   7.847  19.930  0.00  0.00    +0.000 A 
ATOM     10  N   UNL     1       0.905   8.857  20.424  0.00  0.00    +0.000 NA
ENDROOT
BRANCH   1  16
ATOM     11  C   UNL     1      -0.683  12.513  18.278  0.00  0.00    +0.000 C 
ATOM     12  C   UNL     1      -0.754  12.088  19.704  0.00  0.00    +0.000 A 
ATOM     13  N   UNL     1      -1.517  12.855  20.581  0.00  0.00    +0.000 NA
ATOM     14  C   UNL     1      -1.457  12.357  21.801  0.00  0.00    +0.000 A 
ATOM     15  S   UNL     1      -0.502  10.943  21.950  0.00  0.00    +0.000 S 
ATOM     16  C   UNL     1      -0.138  10.979  20.272  0.00  0.00    +0.000 A 
BRANCH  14  17
ATOM     17  C   UNL     1      -2.155  12.970  22.912  0.00  0.00    +0.000 A 
ATOM     18  C   UNL     1      -3.342  12.533  23.473  0.00  0.00    +0.000 A 
ATOM     19  C   UNL     1      -3.781  13.351  24.560  0.00  0.00    +0.000 A 
ATOM     20  C   UNL     1      -2.919  14.394  24.794  0.00  0.00    +0.000 A 
ATOM     21  S   UNL     1      -1.595  14.381  23.719  0.00  0.00    +0.000 S 
ENDBRANCH  14  17
ENDBRANCH   1  16
BRANCH   6  22
ATOM     22  C   UNL     1       3.785   4.413  18.361  0.00  0.00    +0.000 C 
BRANCH  22  23
ATOM     23  C   UNL     1       5.318   4.519  18.494  0.00  0.00    +0.000 C 
BRANCH  23  24
ATOM     24  N   UNL     1       5.999   4.288  17.222  0.00  0.00    +0.000 NA
ATOM     25  C   UNL     1       5.108   4.009  16.091  0.00  0.00    +0.000 C 
ATOM     26  C   UNL     1       5.653   4.805  14.916  0.00  0.00    +0.000 C 
ATOM     27  C   UNL     1       7.087   5.096  15.307  0.00  0.00    +0.000 C 
ATOM     28  C   UNL     1       7.013   5.274  16.822  0.00  0.00    +0.000 C 
ATOM     29  C   UNL     1       6.748   6.737  17.191  0.00  0.00    +0.000 C 
ENDBRANCH  23  24
ENDBRANCH  22  23
ENDBRANCH   6  22
TORSDOF 5
ENDMDL
MODEL 5
REMARK VINA RESULT:      -8.0      1.813      2.850
REMARK  Name = 
REMARK  7 active torsions:
REMARK  status: ('A' for Active; 'I' for Inactive)
REMARK    1  A    between atoms: C_1  and  C_2
REMARK    2  A    between atoms: C_4  and  C_5
REMARK    3  A    between atoms: C_11  and  C_12
REMARK    4  A    between atoms: C_17  and  C_18
REMARK    5  A    between atoms: C_18  and  C_19
REMARK    6  A    between atoms: C_19  and  N_20
REMARK    7  A    between atoms: C_24  and  C_25
REMARK                            x       y       z     vdW  Elec       q    Type
REMARK                         _______ _______ _______ _____ _____    ______ ____
ROOT
ATOM      1  C   UNL     1       0.769  10.466  19.693  0.00  0.00    +0.000 A 
ATOM      2  C   UNL     1       0.555   9.767  20.875  0.00  0.00    +0.000 A 
ATOM      3  C   UNL     1       1.075   8.482  20.996  0.00  0.00    +0.000 A 
ATOM      4  C   UNL     1       1.799   7.927  19.938  0.00  0.00    +0.000 A 
ATOM      5  C   UNL     1       2.391   6.654  20.030  0.00  0.00    +0.000 A 
ATOM      6  C   UNL     1       3.139   6.132  18.970  0.00  0.00    +0.000 A 
ATOM      7  C   UNL     1       3.239   6.878  17.792  0.00  0.00    +0.000 A 
ATOM      8  C   UNL     1       2.647   8.142  17.705  0.00  0.00    +0.000 A 
ATOM      9  C   UNL     1       1.941   8.692  18.765  0.00  0.00    +0.000 A 
ATOM     10  N   UNL     1       1.433   9.927  18.643  0.00  0.00    +0.000 NA
ENDROOT
BRANCH   1  16
ATOM     11  C   UNL     1      -2.176  11.561  18.944  0.00  0.00    +0.000 C 
ATOM     12  C   UNL     1      -0.927  12.348  19.145  0.00  0.00    +0.000 A 
ATOM     13  N   UNL     1      -0.992  13.731  18.998  0.00  0.00    +0.000 NA
ATOM     14  C   UNL     1       0.197  14.271  19.188  0.00  0.00    +0.000 A 
ATOM     15  S   UNL     1       1.438  13.152  19.565  0.00  0.00    +0.000 S 
ATOM     16  C   UNL     1       0.326  11.847  19.480  0.00  0.00    +0.000 A 
BRANCH  14  17
ATOM     17  C   UNL     1       0.413  15.699  19.084  0.00  0.00    +0.000 A 
ATOM     18  C   UNL     1      -0.380  16.597  18.393  0.00  0.00    +0.000 A 
ATOM     19  C   UNL     1       0.096  17.943  18.477  0.00  0.00    +0.000 A 
ATOM     20  C   UNL     1       1.243  18.032  19.226  0.00  0.00    +0.000 A 
ATOM     21  S   UNL     1       1.735  16.512  19.823  0.00  0.00    +0.000 S 
ENDBRANCH  14  17
ENDBRANCH   1  16
BRANCH   6  22
ATOM     22  C   UNL     1       3.831   4.795  19.106  0.00  0.00    +0.000 C 
BRANCH  22  23
ATOM     23  C   UNL     1       5.368   4.929  19.119  0.00  0.00    +0.000 C 
BRANCH  23  24
ATOM     24  N   UNL     1       5.980   4.374  17.914  0.00  0.00    +0.000 NA
ATOM     25  C   UNL     1       5.028   3.947  16.884  0.00  0.00    +0.000 C 
ATOM     26  C   UNL     1       5.598   4.425  15.558  0.00  0.00    +0.000 C 
ATOM     27  C   UNL     1       7.065   4.658  15.853  0.00  0.00    +0.000 C 
ATOM     28  C   UNL     1       7.060   5.156  17.298  0.00  0.00    +0.000 C 
ATOM     29  C   UNL     1       6.936   6.683  17.351  0.00  0.00    +0.000 C 
ENDBRANCH  23  24
ENDBRANCH  22  23
ENDBRANCH   6  22
TORSDOF 5
ENDMDL
MODEL 6
REMARK VINA RESULT:      -7.9      2.903      3.701
REMARK  Name = 
REMARK  7 active torsions:
REMARK  status: ('A' for Active; 'I' for Inactive)
REMARK    1  A    between atoms: C_1  and  C_2
REMARK    2  A    between atoms: C_4  and  C_5
REMARK    3  A    between atoms: C_11  and  C_12
REMARK    4  A    between atoms: C_17  and  C_18
REMARK    5  A    between atoms: C_18  and  C_19
REMARK    6  A    between atoms: C_19  and  N_20
REMARK    7  A    between atoms: C_24  and  C_25
REMARK                            x       y       z     vdW  Elec       q    Type
REMARK                         _______ _______ _______ _____ _____    ______ ____
ROOT
ATOM      1  C   UNL     1      -0.213  11.113  21.558  0.00  0.00    +0.000 A 
ATOM      2  C   UNL     1       0.072  10.063  22.424  0.00  0.00    +0.000 A 
ATOM      3  C   UNL     1       0.745   8.951  21.928  0.00  0.00    +0.000 A 
ATOM      4  C   UNL     1       1.123   8.914  20.584  0.00  0.00    +0.000 A 
ATOM      5  C   UNL     1       1.853   7.838  20.047  0.00  0.00    +0.000 A 
ATOM      6  C   UNL     1       2.248   7.837  18.705  0.00  0.00    +0.000 A 
ATOM      7  C   UNL     1       1.854   8.904  17.892  0.00  0.00    +0.000 A 
ATOM      8  C   UNL     1       1.127   9.970  18.431  0.00  0.00    +0.000 A 
ATOM      9  C   UNL     1       0.767  10.006  19.770  0.00  0.00    +0.000 A 
ATOM     10  N   UNL     1       0.110  11.075  20.243  0.00  0.00    +0.000 NA
ENDROOT
BRANCH   1  16
ATOM     11  C   UNL     1       0.986  14.112  21.594  0.00  0.00    +0.000 C 
ATOM     12  C   UNL     1      -0.366  13.659  22.023  0.00  0.00    +0.000 A 
ATOM     13  N   UNL     1      -1.255  14.613  22.510  0.00  0.00    +0.000 NA
ATOM     14  C   UNL     1      -2.393  14.046  22.862  0.00  0.00    +0.000 A 
ATOM     15  S   UNL     1      -2.455  12.353  22.614  0.00  0.00    +0.000 S 
ATOM     16  C   UNL     1      -0.858  12.359  21.983  0.00  0.00    +0.000 A 
BRANCH  14  17
ATOM     17  C   UNL     1      -3.491  14.813  23.412  0.00  0.00    +0.000 A 
ATOM     18  C   UNL     1      -3.394  15.814  24.363  0.00  0.00    +0.000 A 
ATOM     19  C   UNL     1      -4.660  16.385  24.704  0.00  0.00    +0.000 A 
ATOM     20  C   UNL     1      -5.688  15.799  24.008  0.00  0.00    +0.000 A 
ATOM     21  S   UNL     1      -5.132  14.581  22.953  0.00  0.00    +0.000 S 
ENDBRANCH  14  17
ENDBRANCH   1  16
BRANCH   6  22
ATOM     22  C   UNL     1       3.095   6.711  18.156  0.00  0.00    +0.000 C 
BRANCH  22  23
ATOM     23  C   UNL     1       3.088   5.472  19.074  0.00  0.00    +0.000 C 
BRANCH  23  24
ATOM     24  N   UNL     1       2.279   4.385  18.526  0.00  0.00    +0.000 NA
ATOM     25  C   UNL     1       3.048   3.258  17.991  0.00  0.00    +0.000 C 
ATOM     26  C   UNL     1       2.339   1.999  18.464  0.00  0.00    +0.000 C 
ATOM     27  C   UNL     1       0.947   2.477  18.821  0.00  0.00    +0.000 C 
ATOM     28  C   UNL     1       1.184   3.883  19.368  0.00  0.00    +0.000 C 
ATOM     29  C   UNL     1       1.425   3.851  20.881  0.00  0.00    +0.000 C 
ENDBRANCH  23  24
ENDBRANCH  22  23
ENDBRANCH   6  22
TORSDOF 5
ENDMDL
MODEL 7
REMARK VINA RESULT:      -7.9      2.543      3.859
REMARK  Name = 
REMARK  7 active torsions:
REMARK  status: ('A' for Active; 'I' for Inactive)
REMARK    1  A    between atoms: C_1  and  C_2
REMARK    2  A    between atoms: C_4  and  C_5
REMARK    3  A    between atoms: C_11  and  C_12
REMARK    4  A    between atoms: C_17  and  C_18
REMARK    5  A    between atoms: C_18  and  C_19
REMARK    6  A    between atoms: C_19  and  N_20
REMARK    7  A    between atoms: C_24  and  C_25
REMARK                            x       y       z     vdW  Elec       q    Type
REMARK                         _______ _______ _______ _____ _____    ______ ____
ROOT
ATOM      1  C   UNL     1       0.942   9.938  20.282  0.00  0.00    +0.000 A 
ATOM      2  C   UNL     1       1.194  10.241  18.949  0.00  0.00    +0.000 A 
ATOM      3  C   UNL     1       1.745   9.259  18.131  0.00  0.00    +0.000 A 
ATOM      4  C   UNL     1       2.028   7.998  18.661  0.00  0.00    +0.000 A 
ATOM      5  C   UNL     1       2.534   6.955  17.864  0.00  0.00    +0.000 A 
ATOM      6  C   UNL     1       2.780   5.690  18.409  0.00  0.00    +0.000 A 
ATOM      7  C   UNL     1       2.565   5.499  19.777  0.00  0.00    +0.000 A 
ATOM      8  C   UNL     1       2.063   6.540  20.565  0.00  0.00    +0.000 A 
ATOM      9  C   UNL     1       1.771   7.786  20.028  0.00  0.00    +0.000 A 
ATOM     10  N   UNL     1       1.249   8.734  20.821  0.00  0.00    +0.000 NA
ENDROOT
BRANCH   1  16
ATOM     11  C   UNL     1      -0.359   9.340  23.177  0.00  0.00    +0.000 C 
ATOM     12  C   UNL     1      -0.275  10.643  22.459  0.00  0.00    +0.000 A 
ATOM     13  N   UNL     1      -0.814  11.769  23.076  0.00  0.00    +0.000 NA
ATOM     14  C   UNL     1      -0.674  12.829  22.303  0.00  0.00    +0.000 A 
ATOM     15  S   UNL     1       0.120  12.530  20.815  0.00  0.00    +0.000 S 
ATOM     16  C   UNL     1       0.305  10.870  21.216  0.00  0.00    +0.000 A 
BRANCH  14  17
ATOM     17  C   UNL     1      -1.158  14.134  22.702  0.00  0.00    +0.000 A 
ATOM     18  C   UNL     1      -2.405  14.416  23.231  0.00  0.00    +0.000 A 
ATOM     19  C   UNL     1      -2.587  15.804  23.525  0.00  0.00    +0.000 A 
ATOM     20  C   UNL     1      -1.475  16.543  23.204  0.00  0.00    +0.000 A 
ATOM     21  S   UNL     1      -0.227  15.573  22.562  0.00  0.00    +0.000 S 
ENDBRANCH  14  17
ENDBRANCH   1  16
BRANCH   6  22
ATOM     22  C   UNL     1       3.255   4.556  17.530  0.00  0.00    +0.000 C 
BRANCH  22  23
ATOM     23  C   UNL     1       4.747   4.230  17.748  0.00  0.00    +0.000 C 
BRANCH  23  24
ATOM     24  N   UNL     1       5.543   5.431  17.991  0.00  0.00    +0.000 NA
ATOM     25  C   UNL     1       6.410   5.364  19.171  0.00  0.00    +0.000 C 
ATOM     26  C   UNL     1       7.742   5.966  18.753  0.00  0.00    +0.000 C 
ATOM     27  C   UNL     1       7.403   6.782  17.523  0.00  0.00    +0.000 C 
ATOM     28  C   UNL     1       6.298   5.968  16.851  0.00  0.00    +0.000 C 
ATOM     29  C   UNL     1       6.886   4.956  15.862  0.00  0.00    +0.000 C 
ENDBRANCH  23  24
ENDBRANCH  22  23
ENDBRANCH   6  22
TORSDOF 5
ENDMDL
MODEL 8
REMARK VINA RESULT:      -7.8      4.082      9.873
REMARK  Name = 
REMARK  7 active torsions:
REMARK  status: ('A' for Active; 'I' for Inactive)
REMARK    1  A    between atoms: C_1  and  C_2
REMARK    2  A    between atoms: C_4  and  C_5
REMARK    3  A    between atoms: C_11  and  C_12
REMARK    4  A    between atoms: C_17  and  C_18
REMARK    5  A    between atoms: C_18  and  C_19
REMARK    6  A    between atoms: C_19  and  N_20
REMARK    7  A    between atoms: C_24  and  C_25
REMARK                            x       y       z     vdW  Elec       q    Type
REMARK                         _______ _______ _______ _____ _____    ______ ____
ROOT
ATOM      1  C   UNL     1       1.521   8.419  19.413  0.00  0.00    +0.000 A 
ATOM      2  C   UNL     1       1.109   9.461  18.590  0.00  0.00    +0.000 A 
ATOM      3  C   UNL     1       0.303  10.460  19.128  0.00  0.00    +0.000 A 
ATOM      4  C   UNL     1      -0.068  10.399  20.473  0.00  0.00    +0.000 A 
ATOM      5  C   UNL     1      -0.835  11.411  21.078  0.00  0.00    +0.000 A 
ATOM      6  C   UNL     1      -1.168  11.345  22.435  0.00  0.00    +0.000 A 
ATOM      7  C   UNL     1      -0.770  10.222  23.166  0.00  0.00    +0.000 A 
ATOM      8  C   UNL     1      -0.009   9.218  22.559  0.00  0.00    +0.000 A 
ATOM      9  C   UNL     1       0.367   9.292  21.226  0.00  0.00    +0.000 A 
ATOM     10  N   UNL     1       1.136   8.323  20.708  0.00  0.00    +0.000 NA
ENDROOT
BRANCH   1  16
ATOM     11  C   UNL     1       1.847   5.427  20.583  0.00  0.00    +0.000 C 
ATOM     12  C   UNL     1       2.595   6.060  19.462  0.00  0.00    +0.000 A 
ATOM     13  N   UNL     1       3.567   5.305  18.812  0.00  0.00    +0.000 NA
ATOM     14  C   UNL     1       4.146   6.017  17.863  0.00  0.00    +0.000 A 
ATOM     15  S   UNL     1       3.543   7.612  17.698  0.00  0.00    +0.000 S 
ATOM     16  C   UNL     1       2.422   7.350  18.973  0.00  0.00    +0.000 A 
BRANCH  14  17
ATOM     17  C   UNL     1       5.203   5.473  17.037  0.00  0.00    +0.000 A 
ATOM     18  C   UNL     1       5.211   5.416  15.655  0.00  0.00    +0.000 A 
ATOM     19  C   UNL     1       6.399   4.819  15.127  0.00  0.00    +0.000 A 
ATOM     20  C   UNL     1       7.261   4.433  16.123  0.00  0.00    +0.000 A 
ATOM     21  S   UNL     1       6.647   4.790  17.673  0.00  0.00    +0.000 S 
ENDBRANCH  14  17
ENDBRANCH   1  16
BRANCH   6  22
ATOM     22  C   UNL     1      -1.931  12.472  23.093  0.00  0.00    +0.000 C 
BRANCH  22  23
ATOM     23  C   UNL     1      -3.062  13.016  22.197  0.00  0.00    +0.000 C 
BRANCH  23  24
ATOM     24  N   UNL     1      -4.371  12.500  22.588  0.00  0.00    +0.000 NA
ATOM     25  C   UNL     1      -4.807  12.888  23.933  0.00  0.00    +0.000 C 
ATOM     26  C   UNL     1      -6.275  13.262  23.812  0.00  0.00    +0.000 C 
ATOM     27  C   UNL     1      -6.714  12.601  22.522  0.00  0.00    +0.000 C 
ATOM     28  C   UNL     1      -5.473  12.693  21.636  0.00  0.00    +0.000 C 
ATOM     29  C   UNL     1      -5.474  13.993  20.823  0.00  0.00    +0.000 C 
ENDBRANCH  23  24
ENDBRANCH  22  23
ENDBRANCH   6  22
TORSDOF 5
ENDMDL
MODEL 9
REMARK VINA RESULT:      -7.8      2.722      4.025
REMARK  Name = 
REMARK  7 active torsions:
REMARK  status: ('A' for Active; 'I' for Inactive)
REMARK    1  A    between atoms: C_1  and  C_2
REMARK    2  A    between atoms: C_4  and  C_5
REMARK    3  A    between atoms: C_11  and  C_12
REMARK    4  A    between atoms: C_17  and  C_18
REMARK    5  A    between atoms: C_18  and  C_19
REMARK    6  A    between atoms: C_19  and  N_20
REMARK    7  A    between atoms: C_24  and  C_25
REMARK                            x       y       z     vdW  Elec       q    Type
REMARK                         _______ _______ _______ _____ _____    ______ ____
ROOT
ATOM      1  C   UNL     1       0.640   9.757  20.252  0.00  0.00    +0.000 A 
ATOM      2  C   UNL     1       1.070  10.151  18.990  0.00  0.00    +0.000 A 
ATOM      3  C   UNL     1       1.779   9.241  18.211  0.00  0.00    +0.000 A 
ATOM      4  C   UNL     1       2.037   7.960  18.707  0.00  0.00    +0.000 A 
ATOM      5  C   UNL     1       2.701   6.987  17.938  0.00  0.00    +0.000 A 
ATOM      6  C   UNL     1       2.920   5.701  18.444  0.00  0.00    +0.000 A 
ATOM      7  C   UNL     1       2.515   5.420  19.752  0.00  0.00    +0.000 A 
ATOM      8  C   UNL     1       1.857   6.391  20.512  0.00  0.00    +0.000 A 
ATOM      9  C   UNL     1       1.592   7.656  20.007  0.00  0.00    +0.000 A 
ATOM     10  N   UNL     1       0.917   8.535  20.764  0.00  0.00    +0.000 NA
ENDROOT
BRANCH   1  16
ATOM     11  C   UNL     1       0.110   9.475  23.426  0.00  0.00    +0.000 C 
ATOM     12  C   UNL     1      -0.426  10.506  22.494  0.00  0.00    +0.000 A 
ATOM     13  N   UNL     1      -1.267  11.487  23.012  0.00  0.00    +0.000 NA
ATOM     14  C   UNL     1      -1.667  12.303  22.056  0.00  0.00    +0.000 A 
ATOM     15  S   UNL     1      -1.044  11.944  20.501  0.00  0.00    +0.000 S 
ATOM     16  C   UNL     1      -0.169  10.608  21.131  0.00  0.00    +0.000 A 
BRANCH  14  17
ATOM     17  C   UNL     1      -2.560  13.412  22.322  0.00  0.00    +0.000 A 
ATOM     18  C   UNL     1      -3.003  14.343  21.400  0.00  0.00    +0.000 A 
ATOM     19  C   UNL     1      -3.879  15.320  21.968  0.00  0.00    +0.000 A 
ATOM     20  C   UNL     1      -4.074  15.110  23.311  0.00  0.00    +0.000 A 
ATOM     21  S   UNL     1      -3.216  13.748  23.875  0.00  0.00    +0.000 S 
ENDBRANCH  14  17
ENDBRANCH   1  16
BRANCH   6  22
ATOM     22  C   UNL     1       3.569   4.640  17.584  0.00  0.00    +0.000 C 
BRANCH  22  23
ATOM     23  C   UNL     1       5.033   4.371  17.990  0.00  0.00    +0.000 C 
BRANCH  23  24
ATOM     24  N   UNL     1       5.779   5.608  18.212  0.00  0.00    +0.000 NA
ATOM     25  C   UNL     1       6.744   5.552  19.314  0.00  0.00    +0.000 C 
ATOM     26  C   UNL     1       8.001   6.244  18.811  0.00  0.00    +0.000 C 
ATOM     27  C   UNL     1       7.516   7.079  17.644  0.00  0.00    +0.000 C 
ATOM     28  C   UNL     1       6.406   6.224  17.034  0.00  0.00    +0.000 C 
ATOM     29  C   UNL     1       6.964   5.280  15.964  0.00  0.00    +0.000 C 
ENDBRANCH  23  24
ENDBRANCH  22  23
ENDBRANCH   6  22
TORSDOF 5
ENDMDL
