MODEL 1
REMARK VINA RESULT:      -8.3      0.000      0.000
REMARK  Name = 
REMARK  10 active torsions:
REMARK  status: ('A' for Active; 'I' for Inactive)
REMARK    1  A    between atoms: C_1  and  O_2
REMARK    2  A    between atoms: O_2  and  C_3
REMARK    3  A    between atoms: C_7  and  C_8
REMARK    4  A    between atoms: C_8  and  O_9
REMARK    5  A    between atoms: O_9  and  C_10
REMARK    6  A    between atoms: C_13  and  C_14
REMARK    7  A    between atoms: N_15  and  N_16
REMARK    8  A    between atoms: C_17  and  C_19
REMARK    9  A    between atoms: C_21  and  O_22
REMARK   10  A    between atoms: C_24  and  O_25
REMARK                            x       y       z     vdW  Elec       q    Type
REMARK                         _______ _______ _______ _____ _____    ______ ____
ROOT
ATOM      1  C   UNL     1       5.748   4.827  17.927  0.00  0.00    +0.000 A 
ATOM      2  C   UNL     1       5.195   5.853  17.157  0.00  0.00    +0.000 A 
ATOM      3  C   UNL     1       5.892   7.045  16.980  0.00  0.00    +0.000 A 
ATOM      4  C   UNL     1       7.133   7.234  17.599  0.00  0.00    +0.000 A 
ATOM      5  C   UNL     1       7.675   6.227  18.403  0.00  0.00    +0.000 A 
ATOM      6  C   UNL     1       6.973   5.029  18.567  0.00  0.00    +0.000 A 
ENDROOT
BRANCH   4   7
ATOM      7  C   UNL     1       7.855   8.505  17.389  0.00  0.00    +0.000 C 
ATOM      8  N   UNL     1       8.449   9.078  18.386  0.00  0.00    +0.000 NA
BRANCH   8   9
ATOM      9  N   UNL     1       9.096  10.247  18.150  0.00  0.00    +0.000 N 
ATOM     10  C   UNL     1       9.482  11.014  19.243  0.00  0.00    +0.000 C 
ATOM     11  O   UNL     1       9.297  10.711  20.418  0.00  0.00    +0.000 OA
ATOM     12  H   UNL     1       9.177  10.585  17.201  0.00  0.00    +0.000 HD
BRANCH  10  13
ATOM     13  C   UNL     1      10.122  12.321  18.937  0.00  0.00    +0.000 A 
ATOM     14  C   UNL     1      10.414  13.170  20.016  0.00  0.00    +0.000 A 
ATOM     15  C   UNL     1      10.988  14.414  19.776  0.00  0.00    +0.000 A 
ATOM     16  C   UNL     1      11.297  14.822  18.485  0.00  0.00    +0.000 A 
ATOM     17  C   UNL     1      11.017  13.967  17.422  0.00  0.00    +0.000 A 
ATOM     18  C   UNL     1      10.440  12.718  17.634  0.00  0.00    +0.000 A 
BRANCH  15  19
ATOM     19  O   UNL     1      11.255  15.279  20.796  0.00  0.00    +0.000 OA
ATOM     20  H   UNL     1      10.468  15.830  20.952  0.00  0.00    +0.000 HD
ENDBRANCH  15  19
BRANCH  17  21
ATOM     21  O   UNL     1      11.288  14.326  16.134  0.00  0.00    +0.000 OA
ATOM     22  H   UNL     1      12.254  14.345  16.015  0.00  0.00    +0.000 HD
ENDBRANCH  17  21
ENDBRANCH  10  13
ENDBRANCH   8   9
ENDBRANCH   4   7
BRANCH   1  23
ATOM     23  O   UNL     1       5.172   3.598  18.102  0.00  0.00    +0.000 OA
BRANCH  23  24
ATOM     24  C   UNL     1       4.898   3.261  19.465  0.00  0.00    +0.000 C 
BRANCH  24  29
ATOM     25  C   UNL     1       1.765   5.202  20.417  0.00  0.00    +0.000 A 
ATOM     26  C   UNL     1       0.818   4.177  20.452  0.00  0.00    +0.000 A 
ATOM     27  C   UNL     1       1.180   2.861  20.160  0.00  0.00    +0.000 A 
ATOM     28  C   UNL     1       2.500   2.558  19.832  0.00  0.00    +0.000 A 
ATOM     29  C   UNL     1       3.461   3.573  19.788  0.00  0.00    +0.000 A 
ATOM     30  C   UNL     1       3.082   4.897  20.076  0.00  0.00    +0.000 A 
BRANCH  25  32
ATOM     31  C   UNL     1       1.967   7.559  20.173  0.00  0.00    +0.000 C 
ATOM     32  O   UNL     1       1.291   6.443  20.742  0.00  0.00    +0.000 OA
ENDBRANCH  25  32
ENDBRANCH  24  29
ENDBRANCH  23  24
ENDBRANCH   1  23
TORSDOF 9
ENDMDL
MODEL 2
REMARK VINA RESULT:      -8.1      1.638      2.253
REMARK  Name = 
REMARK  10 active torsions:
REMARK  status: ('A' for Active; 'I' for Inactive)
REMARK    1  A    between atoms: C_1  and  O_2
REMARK    2  A    between atoms: O_2  and  C_3
REMARK    3  A    between atoms: C_7  and  C_8
REMARK    4  A    between atoms: C_8  and  O_9
REMARK    5  A    between atoms: O_9  and  C_10
REMARK    6  A    between atoms: C_13  and  C_14
REMARK    7  A    between atoms: N_15  and  N_16
REMARK    8  A    between atoms: C_17  and  C_19
REMARK    9  A    between atoms: C_21  and  O_22
REMARK   10  A    between atoms: C_24  and  O_25
REMARK                            x       y       z     vdW  Elec       q    Type
REMARK                         _______ _______ _______ _____ _____    ______ ____
ROOT
ATOM      1  C   UNL     1       6.911   5.536  18.295  0.00  0.00    +0.000 A 
ATOM      2  C   UNL     1       7.964   6.067  19.042  0.00  0.00    +0.000 A 
ATOM      3  C   UNL     1       8.393   7.372  18.811  0.00  0.00    +0.000 A 
ATOM      4  C   UNL     1       7.795   8.144  17.809  0.00  0.00    +0.000 A 
ATOM      5  C   UNL     1       6.766   7.605  17.031  0.00  0.00    +0.000 A 
ATOM      6  C   UNL     1       6.334   6.297  17.276  0.00  0.00    +0.000 A 
ENDROOT
BRANCH   4   7
ATOM      7  C   UNL     1       8.264   9.527  17.590  0.00  0.00    +0.000 C 
ATOM      8  N   UNL     1       8.771  10.196  18.575  0.00  0.00    +0.000 NA
BRANCH   8   9
ATOM      9  N   UNL     1       9.184  11.466  18.331  0.00  0.00    +0.000 N 
ATOM     10  C   UNL     1      10.484  11.809  18.682  0.00  0.00    +0.000 C 
ATOM     11  O   UNL     1      11.304  11.048  19.185  0.00  0.00    +0.000 OA
ATOM     12  H   UNL     1       8.513  12.153  18.015  0.00  0.00    +0.000 HD
BRANCH  10  13
ATOM     13  C   UNL     1      10.871  13.229  18.464  0.00  0.00    +0.000 A 
ATOM     14  C   UNL     1      11.448  13.918  19.542  0.00  0.00    +0.000 A 
ATOM     15  C   UNL     1      11.801  15.255  19.394  0.00  0.00    +0.000 A 
ATOM     16  C   UNL     1      11.611  15.915  18.186  0.00  0.00    +0.000 A 
ATOM     17  C   UNL     1      11.051  15.219  17.118  0.00  0.00    +0.000 A 
ATOM     18  C   UNL     1      10.686  13.881  17.241  0.00  0.00    +0.000 A 
BRANCH  15  19
ATOM     19  O   UNL     1      12.333  15.966  20.428  0.00  0.00    +0.000 OA
ATOM     20  H   UNL     1      13.146  15.522  20.727  0.00  0.00    +0.000 HD
ENDBRANCH  15  19
BRANCH  17  21
ATOM     21  O   UNL     1      10.830  15.825  15.916  0.00  0.00    +0.000 OA
ATOM     22  H   UNL     1      10.197  16.553  16.049  0.00  0.00    +0.000 HD
ENDBRANCH  17  21
ENDBRANCH  10  13
ENDBRANCH   8   9
ENDBRANCH   4   7
BRANCH   1  23
ATOM     23  O   UNL     1       6.375   4.292  18.494  0.00  0.00    +0.000 OA
BRANCH  23  24
ATOM     24  C   UNL     1       5.504   3.849  17.450  0.00  0.00    +0.000 C 
BRANCH  24  29
ATOM     25  C   UNL     1       2.426   2.923  19.491  0.00  0.00    +0.000 A 
ATOM     26  C   UNL     1       1.448   3.695  18.862  0.00  0.00    +0.000 A 
ATOM     27  C   UNL     1       1.775   4.524  17.787  0.00  0.00    +0.000 A 
ATOM     28  C   UNL     1       3.090   4.584  17.329  0.00  0.00    +0.000 A 
ATOM     29  C   UNL     1       4.083   3.819  17.950  0.00  0.00    +0.000 A 
ATOM     30  C   UNL     1       3.743   2.995  19.037  0.00  0.00    +0.000 A 
BRANCH  25  32
ATOM     31  C   UNL     1       1.443   2.809  21.653  0.00  0.00    +0.000 C 
ATOM     32  O   UNL     1       1.976   2.139  20.517  0.00  0.00    +0.000 OA
ENDBRANCH  25  32
ENDBRANCH  24  29
ENDBRANCH  23  24
ENDBRANCH   1  23
TORSDOF 9
ENDMDL
MODEL 3
REMARK VINA RESULT:      -8.0      0.918      2.047
REMARK  Name = 
REMARK  10 active torsions:
REMARK  status: ('A' for Active; 'I' for Inactive)
REMARK    1  A    between atoms: C_1  and  O_2
REMARK    2  A    between atoms: O_2  and  C_3
REMARK    3  A    between atoms: C_7  and  C_8
REMARK    4  A    between atoms: C_8  and  O_9
REMARK    5  A    between atoms: O_9  and  C_10
REMARK    6  A    between atoms: C_13  and  C_14
REMARK    7  A    between atoms: N_15  and  N_16
REMARK    8  A    between atoms: C_17  and  C_19
REMARK    9  A    between atoms: C_21  and  O_22
REMARK   10  A    between atoms: C_24  and  O_25
REMARK                            x       y       z     vdW  Elec       q    Type
REMARK                         _______ _______ _______ _____ _____    ______ ____
ROOT
ATOM      1  C   UNL     1       5.525   4.604  17.807  0.00  0.00    +0.000 A 
ATOM      2  C   UNL     1       6.423   5.038  18.784  0.00  0.00    +0.000 A 
ATOM      3  C   UNL     1       7.135   6.220  18.599  0.00  0.00    +0.000 A 
ATOM      4  C   UNL     1       6.981   6.960  17.422  0.00  0.00    +0.000 A 
ATOM      5  C   UNL     1       6.113   6.511  16.422  0.00  0.00    +0.000 A 
ATOM      6  C   UNL     1       5.393   5.328  16.620  0.00  0.00    +0.000 A 
ENDROOT
BRANCH   4   7
ATOM      7  C   UNL     1       7.744   8.213  17.255  0.00  0.00    +0.000 C 
ATOM      8  N   UNL     1       8.313   8.760  18.281  0.00  0.00    +0.000 NA
BRANCH   8   9
ATOM      9  N   UNL     1       8.999   9.914  18.084  0.00  0.00    +0.000 N 
ATOM     10  C   UNL     1       9.354  10.663  19.199  0.00  0.00    +0.000 C 
ATOM     11  O   UNL     1       9.110  10.357  20.362  0.00  0.00    +0.000 OA
ATOM     12  H   UNL     1       9.131  10.257  17.141  0.00  0.00    +0.000 HD
BRANCH  10  13
ATOM     13  C   UNL     1      10.040  11.956  18.932  0.00  0.00    +0.000 A 
ATOM     14  C   UNL     1      10.333  12.273  17.597  0.00  0.00    +0.000 A 
ATOM     15  C   UNL     1      10.998  13.459  17.302  0.00  0.00    +0.000 A 
ATOM     16  C   UNL     1      11.357  14.346  18.308  0.00  0.00    +0.000 A 
ATOM     17  C   UNL     1      11.049  14.030  19.628  0.00  0.00    +0.000 A 
ATOM     18  C   UNL     1      10.388  12.849  19.951  0.00  0.00    +0.000 A 
BRANCH  15  19
ATOM     19  O   UNL     1      11.330  13.785  16.020  0.00  0.00    +0.000 OA
ATOM     20  H   UNL     1      11.673  12.991  15.575  0.00  0.00    +0.000 HD
ENDBRANCH  15  19
BRANCH  17  21
ATOM     21  O   UNL     1      11.394  14.860  20.655  0.00  0.00    +0.000 OA
ATOM     22  H   UNL     1      10.710  15.548  20.739  0.00  0.00    +0.000 HD
ENDBRANCH  17  21
ENDBRANCH  10  13
ENDBRANCH   8   9
ENDBRANCH   4   7
BRANCH   1  23
ATOM     23  O   UNL     1       4.731   3.496  17.927  0.00  0.00    +0.000 OA
BRANCH  23  24
ATOM     24  C   UNL     1       3.355   3.715  17.601  0.00  0.00    +0.000 C 
BRANCH  24  29
ATOM     25  C   UNL     1       2.036   6.572  19.743  0.00  0.00    +0.000 A 
ATOM     26  C   UNL     1       1.484   5.868  20.814  0.00  0.00    +0.000 A 
ATOM     27  C   UNL     1       1.523   4.473  20.847  0.00  0.00    +0.000 A 
ATOM     28  C   UNL     1       2.122   3.769  19.805  0.00  0.00    +0.000 A 
ATOM     29  C   UNL     1       2.678   4.458  18.722  0.00  0.00    +0.000 A 
ATOM     30  C   UNL     1       2.624   5.862  18.696  0.00  0.00    +0.000 A 
BRANCH  25  32
ATOM     31  C   UNL     1       1.189   8.458  20.918  0.00  0.00    +0.000 C 
ATOM     32  O   UNL     1       1.952   7.934  19.837  0.00  0.00    +0.000 OA
ENDBRANCH  25  32
ENDBRANCH  24  29
ENDBRANCH  23  24
ENDBRANCH   1  23
TORSDOF 9
ENDMDL
MODEL 4
REMARK VINA RESULT:      -7.7      5.801      9.028
REMARK  Name = 
REMARK  10 active torsions:
REMARK  status: ('A' for Active; 'I' for Inactive)
REMARK    1  A    between atoms: C_1  and  O_2
REMARK    2  A    between atoms: O_2  and  C_3
REMARK    3  A    between atoms: C_7  and  C_8
REMARK    4  A    between atoms: C_8  and  O_9
REMARK    5  A    between atoms: O_9  and  C_10
REMARK    6  A    between atoms: C_13  and  C_14
REMARK    7  A    between atoms: N_15  and  N_16
REMARK    8  A    between atoms: C_17  and  C_19
REMARK    9  A    between atoms: C_21  and  O_22
REMARK   10  A    between atoms: C_24  and  O_25
REMARK                            x       y       z     vdW  Elec       q    Type
REMARK                         _______ _______ _______ _____ _____    ______ ____
ROOT
ATOM      1  C   UNL     1       2.493   5.037  18.816  0.00  0.00    +0.000 A 
ATOM      2  C   UNL     1       2.001   4.883  20.113  0.00  0.00    +0.000 A 
ATOM      3  C   UNL     1       1.599   5.998  20.843  0.00  0.00    +0.000 A 
ATOM      4  C   UNL     1       1.716   7.280  20.294  0.00  0.00    +0.000 A 
ATOM      5  C   UNL     1       2.244   7.446  19.010  0.00  0.00    +0.000 A 
ATOM      6  C   UNL     1       2.637   6.319  18.280  0.00  0.00    +0.000 A 
ENDROOT
BRANCH   4   7
ATOM      7  C   UNL     1       1.275   8.445  21.087  0.00  0.00    +0.000 C 
ATOM      8  N   UNL     1       0.015   8.622  21.321  0.00  0.00    +0.000 NA
BRANCH   8   9
ATOM      9  N   UNL     1      -0.347   9.709  22.049  0.00  0.00    +0.000 N 
ATOM     10  C   UNL     1      -0.800  10.832  21.367  0.00  0.00    +0.000 C 
ATOM     11  O   UNL     1      -0.917  10.919  20.149  0.00  0.00    +0.000 OA
ATOM     12  H   UNL     1      -0.170   9.719  23.044  0.00  0.00    +0.000 HD
BRANCH  10  13
ATOM     13  C   UNL     1      -1.116  12.024  22.199  0.00  0.00    +0.000 A 
ATOM     14  C   UNL     1      -2.286  11.985  22.973  0.00  0.00    +0.000 A 
ATOM     15  C   UNL     1      -2.636  13.087  23.746  0.00  0.00    +0.000 A 
ATOM     16  C   UNL     1      -1.834  14.221  23.779  0.00  0.00    +0.000 A 
ATOM     17  C   UNL     1      -0.668  14.245  23.018  0.00  0.00    +0.000 A 
ATOM     18  C   UNL     1      -0.296  13.157  22.234  0.00  0.00    +0.000 A 
BRANCH  15  19
ATOM     19  O   UNL     1      -3.781  13.099  24.486  0.00  0.00    +0.000 OA
ATOM     20  H   UNL     1      -4.326  13.856  24.206  0.00  0.00    +0.000 HD
ENDBRANCH  15  19
BRANCH  17  21
ATOM     21  O   UNL     1       0.146  15.340  23.004  0.00  0.00    +0.000 OA
ATOM     22  H   UNL     1       0.437  15.520  23.916  0.00  0.00    +0.000 HD
ENDBRANCH  17  21
ENDBRANCH  10  13
ENDBRANCH   8   9
ENDBRANCH   4   7
BRANCH   1  23
ATOM     23  O   UNL     1       2.848   4.000  17.997  0.00  0.00    +0.000 OA
BRANCH  23  24
ATOM     24  C   UNL     1       4.063   3.342  18.367  0.00  0.00    +0.000 C 
BRANCH  24  29
ATOM     25  C   UNL     1       6.801   5.297  16.586  0.00  0.00    +0.000 A 
ATOM     26  C   UNL     1       7.435   5.912  17.667  0.00  0.00    +0.000 A 
ATOM     27  C   UNL     1       6.979   5.709  18.971  0.00  0.00    +0.000 A 
ATOM     28  C   UNL     1       5.882   4.883  19.204  0.00  0.00    +0.000 A 
ATOM     29  C   UNL     1       5.232   4.262  18.132  0.00  0.00    +0.000 A 
ATOM     30  C   UNL     1       5.696   4.481  16.823  0.00  0.00    +0.000 A 
BRANCH  25  32
ATOM     31  C   UNL     1       6.872   4.794  14.263  0.00  0.00    +0.000 C 
ATOM     32  O   UNL     1       7.355   5.558  15.363  0.00  0.00    +0.000 OA
ENDBRANCH  25  32
ENDBRANCH  24  29
ENDBRANCH  23  24
ENDBRANCH   1  23
TORSDOF 9
ENDMDL
MODEL 5
REMARK VINA RESULT:      -7.6      1.517      2.646
REMARK  Name = 
REMARK  10 active torsions:
REMARK  status: ('A' for Active; 'I' for Inactive)
REMARK    1  A    between atoms: C_1  and  O_2
REMARK    2  A    between atoms: O_2  and  C_3
REMARK    3  A    between atoms: C_7  and  C_8
REMARK    4  A    between atoms: C_8  and  O_9
REMARK    5  A    between atoms: O_9  and  C_10
REMARK    6  A    between atoms: C_13  and  C_14
REMARK    7  A    between atoms: N_15  and  N_16
REMARK    8  A    between atoms: C_17  and  C_19
REMARK    9  A    between atoms: C_21  and  O_22
REMARK   10  A    between atoms: C_24  and  O_25
REMARK                            x       y       z     vdW  Elec       q    Type
REMARK                         _______ _______ _______ _____ _____    ______ ____
ROOT
ATOM      1  C   UNL     1       7.211   5.585  18.070  0.00  0.00    +0.000 A 
ATOM      2  C   UNL     1       8.108   6.169  18.967  0.00  0.00    +0.000 A 
ATOM      3  C   UNL     1       8.436   7.516  18.847  0.00  0.00    +0.000 A 
ATOM      4  C   UNL     1       7.898   8.283  17.809  0.00  0.00    +0.000 A 
ATOM      5  C   UNL     1       7.029   7.698  16.883  0.00  0.00    +0.000 A 
ATOM      6  C   UNL     1       6.696   6.345  17.017  0.00  0.00    +0.000 A 
ENDROOT
BRANCH   4   7
ATOM      7  C   UNL     1       8.257   9.712  17.709  0.00  0.00    +0.000 C 
ATOM      8  N   UNL     1       9.079  10.229  18.565  0.00  0.00    +0.000 NA
BRANCH   8   9
ATOM      9  N   UNL     1       9.378  11.547  18.439  0.00  0.00    +0.000 N 
ATOM     10  C   UNL     1      10.698  11.939  18.624  0.00  0.00    +0.000 C 
ATOM     11  O   UNL     1      11.630  11.182  18.879  0.00  0.00    +0.000 OA
ATOM     12  H   UNL     1       8.628  12.216  18.333  0.00  0.00    +0.000 HD
BRANCH  10  13
ATOM     13  C   UNL     1      10.968  13.400  18.550  0.00  0.00    +0.000 A 
ATOM     14  C   UNL     1      10.773  14.035  17.314  0.00  0.00    +0.000 A 
ATOM     15  C   UNL     1      11.037  15.394  17.190  0.00  0.00    +0.000 A 
ATOM     16  C   UNL     1      11.474  16.140  18.278  0.00  0.00    +0.000 A 
ATOM     17  C   UNL     1      11.651  15.504  19.504  0.00  0.00    +0.000 A 
ATOM     18  C   UNL     1      11.395  14.144  19.654  0.00  0.00    +0.000 A 
BRANCH  15  19
ATOM     19  O   UNL     1      10.892  16.039  15.997  0.00  0.00    +0.000 OA
ATOM     20  H   UNL     1      10.309  15.509  15.425  0.00  0.00    +0.000 HD
ENDBRANCH  15  19
BRANCH  17  21
ATOM     21  O   UNL     1      12.091  16.188  20.599  0.00  0.00    +0.000 OA
ATOM     22  H   UNL     1      11.487  16.007  21.340  0.00  0.00    +0.000 HD
ENDBRANCH  17  21
ENDBRANCH  10  13
ENDBRANCH   8   9
ENDBRANCH   4   7
BRANCH   1  23
ATOM     23  O   UNL     1       6.774   4.291  18.147  0.00  0.00    +0.000 OA
BRANCH  23  24
ATOM     24  C   UNL     1       5.967   4.005  19.293  0.00  0.00    +0.000 C 
BRANCH  24  29
ATOM     25  C   UNL     1       2.169   3.829  19.490  0.00  0.00    +0.000 A 
ATOM     26  C   UNL     1       1.846   3.568  18.158  0.00  0.00    +0.000 A 
ATOM     27  C   UNL     1       2.846   3.458  17.189  0.00  0.00    +0.000 A 
ATOM     28  C   UNL     1       4.183   3.606  17.549  0.00  0.00    +0.000 A 
ATOM     29  C   UNL     1       4.525   3.872  18.879  0.00  0.00    +0.000 A 
ATOM     30  C   UNL     1       3.508   3.988  19.844  0.00  0.00    +0.000 A 
BRANCH  25  32
ATOM     31  C   UNL     1       0.981   2.844  21.299  0.00  0.00    +0.000 C 
ATOM     32  O   UNL     1       1.103   3.893  20.345  0.00  0.00    +0.000 OA
ENDBRANCH  25  32
ENDBRANCH  24  29
ENDBRANCH  23  24
ENDBRANCH   1  23
TORSDOF 9
ENDMDL
MODEL 6
REMARK VINA RESULT:      -7.6      1.336      2.067
REMARK  Name = 
REMARK  10 active torsions:
REMARK  status: ('A' for Active; 'I' for Inactive)
REMARK    1  A    between atoms: C_1  and  O_2
REMARK    2  A    between atoms: O_2  and  C_3
REMARK    3  A    between atoms: C_7  and  C_8
REMARK    4  A    between atoms: C_8  and  O_9
REMARK    5  A    between atoms: O_9  and  C_10
REMARK    6  A    between atoms: C_13  and  C_14
REMARK    7  A    between atoms: N_15  and  N_16
REMARK    8  A    between atoms: C_17  and  C_19
REMARK    9  A    between atoms: C_21  and  O_22
REMARK   10  A    between atoms: C_24  and  O_25
REMARK                            x       y       z     vdW  Elec       q    Type
REMARK                         _______ _______ _______ _____ _____    ______ ____
ROOT
ATOM      1  C   UNL     1       5.724   4.936  17.270  0.00  0.00    +0.000 A 
ATOM      2  C   UNL     1       5.382   6.245  16.924  0.00  0.00    +0.000 A 
ATOM      3  C   UNL     1       6.228   7.298  17.261  0.00  0.00    +0.000 A 
ATOM      4  C   UNL     1       7.406   7.056  17.975  0.00  0.00    +0.000 A 
ATOM      5  C   UNL     1       7.736   5.752  18.360  0.00  0.00    +0.000 A 
ATOM      6  C   UNL     1       6.885   4.699  18.009  0.00  0.00    +0.000 A 
ENDROOT
BRANCH   4   7
ATOM      7  C   UNL     1       8.289   8.190  18.314  0.00  0.00    +0.000 C 
ATOM      8  N   UNL     1       8.182   9.303  17.662  0.00  0.00    +0.000 NA
BRANCH   8   9
ATOM      9  N   UNL     1       9.017  10.317  18.001  0.00  0.00    +0.000 N 
ATOM     10  C   UNL     1       8.574  11.621  17.813  0.00  0.00    +0.000 C 
ATOM     11  O   UNL     1       7.472  11.935  17.375  0.00  0.00    +0.000 OA
ATOM     12  H   UNL     1       9.970  10.107  18.267  0.00  0.00    +0.000 HD
BRANCH  10  13
ATOM     13  C   UNL     1       9.548  12.700  18.129  0.00  0.00    +0.000 A 
ATOM     14  C   UNL     1      10.461  13.065  17.128  0.00  0.00    +0.000 A 
ATOM     15  C   UNL     1      11.408  14.051  17.387  0.00  0.00    +0.000 A 
ATOM     16  C   UNL     1      11.450  14.695  18.617  0.00  0.00    +0.000 A 
ATOM     17  C   UNL     1      10.531  14.336  19.599  0.00  0.00    +0.000 A 
ATOM     18  C   UNL     1       9.575  13.351  19.367  0.00  0.00    +0.000 A 
BRANCH  15  19
ATOM     19  O   UNL     1      12.332  14.408  16.451  0.00  0.00    +0.000 OA
ATOM     20  H   UNL     1      12.847  13.620  16.203  0.00  0.00    +0.000 HD
ENDBRANCH  15  19
BRANCH  17  21
ATOM     21  O   UNL     1      10.541  14.928  20.828  0.00  0.00    +0.000 OA
ATOM     22  H   UNL     1       9.972  14.410  21.425  0.00  0.00    +0.000 HD
ENDBRANCH  17  21
ENDBRANCH  10  13
ENDBRANCH   8   9
ENDBRANCH   4   7
BRANCH   1  23
ATOM     23  O   UNL     1       4.993   3.832  16.924  0.00  0.00    +0.000 OA
BRANCH  23  24
ATOM     24  C   UNL     1       3.635   4.107  16.570  0.00  0.00    +0.000 C 
BRANCH  24  29
ATOM     25  C   UNL     1       1.394   4.269  19.643  0.00  0.00    +0.000 A 
ATOM     26  C   UNL     1       1.072   2.922  19.807  0.00  0.00    +0.000 A 
ATOM     27  C   UNL     1       1.563   1.957  18.926  0.00  0.00    +0.000 A 
ATOM     28  C   UNL     1       2.389   2.336  17.870  0.00  0.00    +0.000 A 
ATOM     29  C   UNL     1       2.720   3.682  17.688  0.00  0.00    +0.000 A 
ATOM     30  C   UNL     1       2.212   4.645  18.577  0.00  0.00    +0.000 A 
BRANCH  25  32
ATOM     31  C   UNL     1       1.568   6.329  20.819  0.00  0.00    +0.000 C 
ATOM     32  O   UNL     1       0.868   5.113  20.582  0.00  0.00    +0.000 OA
ENDBRANCH  25  32
ENDBRANCH  24  29
ENDBRANCH  23  24
ENDBRANCH   1  23
TORSDOF 9
ENDMDL
MODEL 7
REMARK VINA RESULT:      -7.5      2.551     10.756
REMARK  Name = 
REMARK  10 active torsions:
REMARK  status: ('A' for Active; 'I' for Inactive)
REMARK    1  A    between atoms: C_1  and  O_2
REMARK    2  A    between atoms: O_2  and  C_3
REMARK    3  A    between atoms: C_7  and  C_8
REMARK    4  A    between atoms: C_8  and  O_9
REMARK    5  A    between atoms: O_9  and  C_10
REMARK    6  A    between atoms: C_13  and  C_14
REMARK    7  A    between atoms: N_15  and  N_16
REMARK    8  A    between atoms: C_17  and  C_19
REMARK    9  A    between atoms: C_21  and  O_22
REMARK   10  A    between atoms: C_24  and  O_25
REMARK                            x       y       z     vdW  Elec       q    Type
REMARK                         _______ _______ _______ _____ _____    ______ ____
ROOT
ATOM      1  C   UNL     1      11.267  12.393  19.643  0.00  0.00    +0.000 A 
ATOM      2  C   UNL     1      10.349  11.782  20.499  0.00  0.00    +0.000 A 
ATOM      3  C   UNL     1       9.423  10.874  19.994  0.00  0.00    +0.000 A 
ATOM      4  C   UNL     1       9.386  10.594  18.624  0.00  0.00    +0.000 A 
ATOM      5  C   UNL     1      10.276  11.231  17.754  0.00  0.00    +0.000 A 
ATOM      6  C   UNL     1      11.210  12.135  18.272  0.00  0.00    +0.000 A 
ENDROOT
BRANCH   4   7
ATOM      7  C   UNL     1       8.399   9.621  18.115  0.00  0.00    +0.000 C 
ATOM      8  N   UNL     1       8.548   8.361  18.372  0.00  0.00    +0.000 NA
BRANCH   8   9
ATOM      9  N   UNL     1       7.621   7.500  17.880  0.00  0.00    +0.000 N 
ATOM     10  C   UNL     1       7.531   6.238  18.453  0.00  0.00    +0.000 C 
ATOM     11  O   UNL     1       8.217   5.836  19.387  0.00  0.00    +0.000 OA
ATOM     12  H   UNL     1       7.106   7.750  17.046  0.00  0.00    +0.000 HD
BRANCH  10  13
ATOM     13  C   UNL     1       6.552   5.303  17.835  0.00  0.00    +0.000 A 
ATOM     14  C   UNL     1       6.846   4.805  16.557  0.00  0.00    +0.000 A 
ATOM     15  C   UNL     1       5.948   3.949  15.929  0.00  0.00    +0.000 A 
ATOM     16  C   UNL     1       4.771   3.561  16.557  0.00  0.00    +0.000 A 
ATOM     17  C   UNL     1       4.495   4.049  17.831  0.00  0.00    +0.000 A 
ATOM     18  C   UNL     1       5.376   4.909  18.481  0.00  0.00    +0.000 A 
BRANCH  15  19
ATOM     19  O   UNL     1       6.183   3.472  14.673  0.00  0.00    +0.000 OA
ATOM     20  H   UNL     1       6.190   4.220  14.051  0.00  0.00    +0.000 HD
ENDBRANCH  15  19
BRANCH  17  21
ATOM     21  O   UNL     1       3.346   3.710  18.486  0.00  0.00    +0.000 OA
ATOM     22  H   UNL     1       3.546   2.988  19.107  0.00  0.00    +0.000 HD
ENDBRANCH  17  21
ENDBRANCH  10  13
ENDBRANCH   8   9
ENDBRANCH   4   7
BRANCH   1  23
ATOM     23  O   UNL     1      12.257  13.245  20.055  0.00  0.00    +0.000 OA
BRANCH  23  24
ATOM     24  C   UNL     1      12.244  14.522  19.411  0.00  0.00    +0.000 C 
BRANCH  24  29
ATOM     25  C   UNL     1       9.046  16.583  19.304  0.00  0.00    +0.000 A 
ATOM     26  C   UNL     1       8.839  16.824  20.663  0.00  0.00    +0.000 A 
ATOM     27  C   UNL     1       9.720  16.315  21.620  0.00  0.00    +0.000 A 
ATOM     28  C   UNL     1      10.822  15.562  21.221  0.00  0.00    +0.000 A 
ATOM     29  C   UNL     1      11.043  15.309  19.863  0.00  0.00    +0.000 A 
ATOM     30  C   UNL     1      10.144  15.819  18.910  0.00  0.00    +0.000 A 
BRANCH  25  32
ATOM     31  C   UNL     1       6.755  16.986  18.810  0.00  0.00    +0.000 C 
ATOM     32  O   UNL     1       8.126  17.152  18.466  0.00  0.00    +0.000 OA
ENDBRANCH  25  32
ENDBRANCH  24  29
ENDBRANCH  23  24
ENDBRANCH   1  23
TORSDOF 9
ENDMDL
MODEL 8
REMARK VINA RESULT:      -7.5      6.535      9.584
REMARK  Name = 
REMARK  10 active torsions:
REMARK  status: ('A' for Active; 'I' for Inactive)
REMARK    1  A    between atoms: C_1  and  O_2
REMARK    2  A    between atoms: O_2  and  C_3
REMARK    3  A    between atoms: C_7  and  C_8
REMARK    4  A    between atoms: C_8  and  O_9
REMARK    5  A    between atoms: O_9  and  C_10
REMARK    6  A    between atoms: C_13  and  C_14
REMARK    7  A    between atoms: N_15  and  N_16
REMARK    8  A    between atoms: C_17  and  C_19
REMARK    9  A    between atoms: C_21  and  O_22
REMARK   10  A    between atoms: C_24  and  O_25
REMARK                            x       y       z     vdW  Elec       q    Type
REMARK                         _______ _______ _______ _____ _____    ______ ____
ROOT
ATOM      1  C   UNL     1       2.695   7.628  18.309  0.00  0.00    +0.000 A 
ATOM      2  C   UNL     1       2.330   7.473  19.648  0.00  0.00    +0.000 A 
ATOM      3  C   UNL     1       1.463   8.385  20.243  0.00  0.00    +0.000 A 
ATOM      4  C   UNL     1       0.979   9.477  19.516  0.00  0.00    +0.000 A 
ATOM      5  C   UNL     1       1.371   9.661  18.186  0.00  0.00    +0.000 A 
ATOM      6  C   UNL     1       2.235   8.735  17.592  0.00  0.00    +0.000 A 
ENDROOT
BRANCH   4   7
ATOM      7  C   UNL     1       0.055  10.425  20.170  0.00  0.00    +0.000 C 
ATOM      8  N   UNL     1       0.507  11.256  21.053  0.00  0.00    +0.000 NA
BRANCH   8   9
ATOM      9  N   UNL     1      -0.378  12.106  21.633  0.00  0.00    +0.000 N 
ATOM     10  C   UNL     1      -0.994  11.705  22.812  0.00  0.00    +0.000 C 
ATOM     11  O   UNL     1      -0.792  10.641  23.388  0.00  0.00    +0.000 OA
ATOM     12  H   UNL     1      -0.653  12.946  21.141  0.00  0.00    +0.000 HD
BRANCH  10  13
ATOM     13  C   UNL     1      -2.011  12.635  23.373  0.00  0.00    +0.000 A 
ATOM     14  C   UNL     1      -3.241  12.090  23.772  0.00  0.00    +0.000 A 
ATOM     15  C   UNL     1      -4.231  12.926  24.278  0.00  0.00    +0.000 A 
ATOM     16  C   UNL     1      -4.014  14.290  24.414  0.00  0.00    +0.000 A 
ATOM     17  C   UNL     1      -2.786  14.820  24.029  0.00  0.00    +0.000 A 
ATOM     18  C   UNL     1      -1.778  14.007  23.518  0.00  0.00    +0.000 A 
BRANCH  15  19
ATOM     19  O   UNL     1      -5.451  12.437  24.644  0.00  0.00    +0.000 OA
ATOM     20  H   UNL     1      -5.931  12.163  23.843  0.00  0.00    +0.000 HD
ENDBRANCH  15  19
BRANCH  17  21
ATOM     21  O   UNL     1      -2.527  16.156  24.129  0.00  0.00    +0.000 OA
ATOM     22  H   UNL     1      -2.536  16.540  23.235  0.00  0.00    +0.000 HD
ENDBRANCH  17  21
ENDBRANCH  10  13
ENDBRANCH   8   9
ENDBRANCH   4   7
BRANCH   1  23
ATOM     23  O   UNL     1       3.485   6.749  17.618  0.00  0.00    +0.000 OA
BRANCH  23  24
ATOM     24  C   UNL     1       4.138   5.773  18.434  0.00  0.00    +0.000 C 
BRANCH  24  29
ATOM     25  C   UNL     1       1.867   2.926  19.543  0.00  0.00    +0.000 A 
ATOM     26  C   UNL     1       1.942   2.080  18.437  0.00  0.00    +0.000 A 
ATOM     27  C   UNL     1       2.713   2.425  17.325  0.00  0.00    +0.000 A 
ATOM     28  C   UNL     1       3.422   3.624  17.315  0.00  0.00    +0.000 A 
ATOM     29  C   UNL     1       3.356   4.486  18.415  0.00  0.00    +0.000 A 
ATOM     30  C   UNL     1       2.568   4.131  19.524  0.00  0.00    +0.000 A 
BRANCH  25  32
ATOM     31  C   UNL     1       1.617   2.629  21.889  0.00  0.00    +0.000 C 
ATOM     32  O   UNL     1       1.095   2.467  20.575  0.00  0.00    +0.000 OA
ENDBRANCH  25  32
ENDBRANCH  24  29
ENDBRANCH  23  24
ENDBRANCH   1  23
TORSDOF 9
ENDMDL
MODEL 9
REMARK VINA RESULT:      -7.5      5.234      9.033
REMARK  Name = 
REMARK  10 active torsions:
REMARK  status: ('A' for Active; 'I' for Inactive)
REMARK    1  A    between atoms: C_1  and  O_2
REMARK    2  A    between atoms: O_2  and  C_3
REMARK    3  A    between atoms: C_7  and  C_8
REMARK    4  A    between atoms: C_8  and  O_9
REMARK    5  A    between atoms: O_9  and  C_10
REMARK    6  A    between atoms: C_13  and  C_14
REMARK    7  A    between atoms: N_15  and  N_16
REMARK    8  A    between atoms: C_17  and  C_19
REMARK    9  A    between atoms: C_21  and  O_22
REMARK   10  A    between atoms: C_24  and  O_25
REMARK                            x       y       z     vdW  Elec       q    Type
REMARK                         _______ _______ _______ _____ _____    ______ ____
ROOT
ATOM      1  C   UNL     1       2.582   5.248  18.867  0.00  0.00    +0.000 A 
ATOM      2  C   UNL     1       2.648   6.560  18.393  0.00  0.00    +0.000 A 
ATOM      3  C   UNL     1       2.206   7.612  19.191  0.00  0.00    +0.000 A 
ATOM      4  C   UNL     1       1.663   7.358  20.455  0.00  0.00    +0.000 A 
ATOM      5  C   UNL     1       1.558   6.044  20.921  0.00  0.00    +0.000 A 
ATOM      6  C   UNL     1       2.013   4.994  20.117  0.00  0.00    +0.000 A 
ENDROOT
BRANCH   4   7
ATOM      7  C   UNL     1       1.209   8.492  21.284  0.00  0.00    +0.000 C 
ATOM      8  N   UNL     1       0.002   8.942  21.150  0.00  0.00    +0.000 NA
BRANCH   8   9
ATOM      9  N   UNL     1      -0.373   9.989  21.928  0.00  0.00    +0.000 N 
ATOM     10  C   UNL     1      -0.886  11.119  21.302  0.00  0.00    +0.000 C 
ATOM     11  O   UNL     1      -1.045  11.244  20.091  0.00  0.00    +0.000 OA
ATOM     12  H   UNL     1      -0.164   9.971  22.917  0.00  0.00    +0.000 HD
BRANCH  10  13
ATOM     13  C   UNL     1      -1.215  12.269  22.186  0.00  0.00    +0.000 A 
ATOM     14  C   UNL     1      -0.330  13.358  22.193  0.00  0.00    +0.000 A 
ATOM     15  C   UNL     1      -0.583  14.444  23.023  0.00  0.00    +0.000 A 
ATOM     16  C   UNL     1      -1.711  14.478  23.832  0.00  0.00    +0.000 A 
ATOM     17  C   UNL     1      -2.591  13.400  23.808  0.00  0.00    +0.000 A 
ATOM     18  C   UNL     1      -2.360  12.299  22.988  0.00  0.00    +0.000 A 
BRANCH  15  19
ATOM     19  O   UNL     1       0.272  15.505  23.082  0.00  0.00    +0.000 OA
ATOM     20  H   UNL     1       0.746  15.478  23.932  0.00  0.00    +0.000 HD
ENDBRANCH  15  19
BRANCH  17  21
ATOM     21  O   UNL     1      -3.706  13.377  24.595  0.00  0.00    +0.000 OA
ATOM     22  H   UNL     1      -3.451  13.635  25.499  0.00  0.00    +0.000 HD
ENDBRANCH  17  21
ENDBRANCH  10  13
ENDBRANCH   8   9
ENDBRANCH   4   7
BRANCH   1  23
ATOM     23  O   UNL     1       3.053   4.158  18.186  0.00  0.00    +0.000 OA
BRANCH  23  24
ATOM     24  C   UNL     1       4.410   3.816  18.483  0.00  0.00    +0.000 C 
BRANCH  24  29
ATOM     25  C   UNL     1       6.972   5.821  16.506  0.00  0.00    +0.000 A 
ATOM     26  C   UNL     1       6.936   5.161  15.278  0.00  0.00    +0.000 A 
ATOM     27  C   UNL     1       6.096   4.062  15.082  0.00  0.00    +0.000 A 
ATOM     28  C   UNL     1       5.281   3.617  16.120  0.00  0.00    +0.000 A 
ATOM     29  C   UNL     1       5.307   4.265  17.359  0.00  0.00    +0.000 A 
ATOM     30  C   UNL     1       6.163   5.365  17.546  0.00  0.00    +0.000 A 
BRANCH  25  32
ATOM     31  C   UNL     1       7.704   7.743  17.701  0.00  0.00    +0.000 C 
ATOM     32  O   UNL     1       7.819   6.894  16.564  0.00  0.00    +0.000 OA
ENDBRANCH  25  32
ENDBRANCH  24  29
ENDBRANCH  23  24
ENDBRANCH   1  23
TORSDOF 9
ENDMDL
