MODEL 1
REMARK VINA RESULT:      -7.5      0.000      0.000
REMARK  Name = 
REMARK  3 active torsions:
REMARK  status: ('A' for Active; 'I' for Inactive)
REMARK    1  A    between atoms: S_1  and  C_2
REMARK    2  A    between atoms: N_5  and  C_6
REMARK    3  A    between atoms: C_6  and  C_7
REMARK                            x       y       z     vdW  Elec       q    Type
REMARK                         _______ _______ _______ _____ _____    ______ ____
ROOT
ATOM      1  C   UNL     1       6.990   6.416  17.108  0.00  0.00    +0.000 A 
ATOM      2  N   UNL     1       5.745   6.103  17.495  0.00  0.00    +0.000 NA
ATOM      3  C   UNL     1       5.031   5.320  16.665  0.00  0.00    +0.000 A 
ATOM      4  N   UNL     1       3.748   4.897  17.066  0.00  0.00    +0.000 N 
ATOM      5  C   UNL     1       5.559   4.845  15.445  0.00  0.00    +0.000 A 
ATOM      6  C   UNL     1       4.868   4.020  14.515  0.00  0.00    +0.000 A 
ATOM      7  C   UNL     1       5.448   3.665  13.302  0.00  0.00    +0.000 A 
ATOM      8  C   UNL     1       6.735   4.092  13.013  0.00  0.00    +0.000 A 
ATOM      9  C   UNL     1       7.430   4.873  13.941  0.00  0.00    +0.000 A 
ATOM     10  C   UNL     1       6.861   5.265  15.146  0.00  0.00    +0.000 A 
ATOM     11  N   UNL     1       7.576   6.034  15.968  0.00  0.00    +0.000 NA
ATOM     12  H   UNL     1       3.133   4.818  16.264  0.00  0.00    +0.000 HD
ENDROOT
BRANCH   1  13
ATOM     13  S   UNL     1       7.937   7.451  18.187  0.00  0.00    +0.000 S 
ATOM     14  H   UNL     1       6.894   7.753  18.967  0.00  0.00    +0.000 HD
ENDBRANCH   1  13
BRANCH   4  15
ATOM     15  C   UNL     1       3.090   5.696  18.092  0.00  0.00    +0.000 C 
BRANCH  15  16
ATOM     16  C   UNL     1       2.387   4.744  19.039  0.00  0.00    +0.000 A 
ATOM     17  C   UNL     1       2.654   4.797  20.416  0.00  0.00    +0.000 A 
ATOM     18  C   UNL     1       2.047   3.896  21.294  0.00  0.00    +0.000 A 
ATOM     19  C   UNL     1       1.172   2.929  20.807  0.00  0.00    +0.000 A 
ATOM     20  C   UNL     1       0.901   2.862  19.441  0.00  0.00    +0.000 A 
ATOM     21  C   UNL     1       1.507   3.762  18.560  0.00  0.00    +0.000 A 
ENDBRANCH  15  16
ENDBRANCH   4  15
TORSDOF 3
ENDMDL
MODEL 2
REMARK VINA RESULT:      -7.5      0.077      1.110
REMARK  Name = 
REMARK  3 active torsions:
REMARK  status: ('A' for Active; 'I' for Inactive)
REMARK    1  A    between atoms: S_1  and  C_2
REMARK    2  A    between atoms: N_5  and  C_6
REMARK    3  A    between atoms: C_6  and  C_7
REMARK                            x       y       z     vdW  Elec       q    Type
REMARK                         _______ _______ _______ _____ _____    ______ ____
ROOT
ATOM      1  C   UNL     1       6.999   6.464  17.061  0.00  0.00    +0.000 A 
ATOM      2  N   UNL     1       5.771   6.111  17.467  0.00  0.00    +0.000 NA
ATOM      3  C   UNL     1       5.073   5.299  16.650  0.00  0.00    +0.000 A 
ATOM      4  N   UNL     1       3.811   4.834  17.072  0.00  0.00    +0.000 N 
ATOM      5  C   UNL     1       5.600   4.836  15.426  0.00  0.00    +0.000 A 
ATOM      6  C   UNL     1       4.926   3.981  14.511  0.00  0.00    +0.000 A 
ATOM      7  C   UNL     1       5.501   3.640  13.291  0.00  0.00    +0.000 A 
ATOM      8  C   UNL     1       6.769   4.109  12.982  0.00  0.00    +0.000 A 
ATOM      9  C   UNL     1       7.449   4.919  13.896  0.00  0.00    +0.000 A 
ATOM     10  C   UNL     1       6.883   5.298  15.107  0.00  0.00    +0.000 A 
ATOM     11  N   UNL     1       7.583   6.097  15.915  0.00  0.00    +0.000 NA
ATOM     12  H   UNL     1       3.188   4.730  16.279  0.00  0.00    +0.000 HD
ENDROOT
BRANCH   1  13
ATOM     13  S   UNL     1       7.925   7.538  18.121  0.00  0.00    +0.000 S 
ATOM     14  H   UNL     1       7.014   8.516  18.082  0.00  0.00    +0.000 HD
ENDBRANCH   1  13
BRANCH   4  15
ATOM     15  C   UNL     1       3.141   5.617  18.102  0.00  0.00    +0.000 C 
BRANCH  15  16
ATOM     16  C   UNL     1       2.458   4.647  19.046  0.00  0.00    +0.000 A 
ATOM     17  C   UNL     1       1.572   3.681  18.542  0.00  0.00    +0.000 A 
ATOM     18  C   UNL     1       0.903   2.810  19.404  0.00  0.00    +0.000 A 
ATOM     19  C   UNL     1       1.104   2.897  20.779  0.00  0.00    +0.000 A 
ATOM     20  C   UNL     1       1.976   3.855  21.294  0.00  0.00    +0.000 A 
ATOM     21  C   UNL     1       2.648   4.728  20.433  0.00  0.00    +0.000 A 
ENDBRANCH  15  16
ENDBRANCH   4  15
TORSDOF 3
ENDMDL
MODEL 3
REMARK VINA RESULT:      -7.4      1.817      6.528
REMARK  Name = 
REMARK  3 active torsions:
REMARK  status: ('A' for Active; 'I' for Inactive)
REMARK    1  A    between atoms: S_1  and  C_2
REMARK    2  A    between atoms: N_5  and  C_6
REMARK    3  A    between atoms: C_6  and  C_7
REMARK                            x       y       z     vdW  Elec       q    Type
REMARK                         _______ _______ _______ _____ _____    ______ ____
ROOT
ATOM      1  C   UNL     1       3.097   6.361  17.871  0.00  0.00    +0.000 A 
ATOM      2  N   UNL     1       4.136   5.828  17.212  0.00  0.00    +0.000 NA
ATOM      3  C   UNL     1       4.269   4.490  17.271  0.00  0.00    +0.000 A 
ATOM      4  N   UNL     1       5.296   3.876  16.526  0.00  0.00    +0.000 N 
ATOM      5  C   UNL     1       3.364   3.678  17.988  0.00  0.00    +0.000 A 
ATOM      6  C   UNL     1       3.440   2.262  18.100  0.00  0.00    +0.000 A 
ATOM      7  C   UNL     1       2.542   1.557  18.894  0.00  0.00    +0.000 A 
ATOM      8  C   UNL     1       1.534   2.243  19.554  0.00  0.00    +0.000 A 
ATOM      9  C   UNL     1       1.435   3.630  19.416  0.00  0.00    +0.000 A 
ATOM     10  C   UNL     1       2.338   4.360  18.653  0.00  0.00    +0.000 A 
ATOM     11  N   UNL     1       2.196   5.685  18.593  0.00  0.00    +0.000 NA
ATOM     12  H   UNL     1       5.651   3.062  17.014  0.00  0.00    +0.000 HD
ENDROOT
BRANCH   1  13
ATOM     13  S   UNL     1       2.914   8.120  17.808  0.00  0.00    +0.000 S 
ATOM     14  H   UNL     1       1.673   8.103  18.303  0.00  0.00    +0.000 HD
ENDBRANCH   1  13
BRANCH   4  15
ATOM     15  C   UNL     1       6.418   4.725  16.143  0.00  0.00    +0.000 C 
BRANCH  15  16
ATOM     16  C   UNL     1       6.619   4.575  14.648  0.00  0.00    +0.000 A 
ATOM     17  C   UNL     1       5.854   3.647  13.925  0.00  0.00    +0.000 A 
ATOM     18  C   UNL     1       6.059   3.467  12.555  0.00  0.00    +0.000 A 
ATOM     19  C   UNL     1       7.035   4.207  11.893  0.00  0.00    +0.000 A 
ATOM     20  C   UNL     1       7.806   5.130  12.600  0.00  0.00    +0.000 A 
ATOM     21  C   UNL     1       7.602   5.312  13.970  0.00  0.00    +0.000 A 
ENDBRANCH  15  16
ENDBRANCH   4  15
TORSDOF 3
ENDMDL
MODEL 4
REMARK VINA RESULT:      -7.3      3.977      6.108
REMARK  Name = 
REMARK  3 active torsions:
REMARK  status: ('A' for Active; 'I' for Inactive)
REMARK    1  A    between atoms: S_1  and  C_2
REMARK    2  A    between atoms: N_5  and  C_6
REMARK    3  A    between atoms: C_6  and  C_7
REMARK                            x       y       z     vdW  Elec       q    Type
REMARK                         _______ _______ _______ _____ _____    ______ ____
ROOT
ATOM      1  C   UNL     1       3.847   5.984  17.811  0.00  0.00    +0.000 A 
ATOM      2  N   UNL     1       3.220   6.885  18.580  0.00  0.00    +0.000 NA
ATOM      3  C   UNL     1       2.399   6.403  19.531  0.00  0.00    +0.000 A 
ATOM      4  N   UNL     1       1.781   7.309  20.418  0.00  0.00    +0.000 N 
ATOM      5  C   UNL     1       2.200   5.018  19.719  0.00  0.00    +0.000 A 
ATOM      6  C   UNL     1       1.349   4.434  20.696  0.00  0.00    +0.000 A 
ATOM      7  C   UNL     1       1.161   3.057  20.752  0.00  0.00    +0.000 A 
ATOM      8  C   UNL     1       1.848   2.240  19.866  0.00  0.00    +0.000 A 
ATOM      9  C   UNL     1       2.713   2.810  18.929  0.00  0.00    +0.000 A 
ATOM     10  C   UNL     1       2.894   4.184  18.833  0.00  0.00    +0.000 A 
ATOM     11  N   UNL     1       3.716   4.655  17.893  0.00  0.00    +0.000 NA
ATOM     12  H   UNL     1       0.860   6.977  20.680  0.00  0.00    +0.000 HD
ENDROOT
BRANCH   1  13
ATOM     13  S   UNL     1       4.925   6.604  16.552  0.00  0.00    +0.000 S 
ATOM     14  H   UNL     1       5.795   5.596  16.669  0.00  0.00    +0.000 HD
ENDBRANCH   1  13
BRANCH   4  15
ATOM     15  C   UNL     1       1.678   8.691  19.968  0.00  0.00    +0.000 C 
BRANCH  15  16
ATOM     16  C   UNL     1       0.835   9.443  20.980  0.00  0.00    +0.000 A 
ATOM     17  C   UNL     1       0.600   8.889  22.249  0.00  0.00    +0.000 A 
ATOM     18  C   UNL     1      -0.210   9.550  23.175  0.00  0.00    +0.000 A 
ATOM     19  C   UNL     1      -0.800  10.767  22.843  0.00  0.00    +0.000 A 
ATOM     20  C   UNL     1      -0.578  11.326  21.585  0.00  0.00    +0.000 A 
ATOM     21  C   UNL     1       0.232  10.667  20.657  0.00  0.00    +0.000 A 
ENDBRANCH  15  16
ENDBRANCH   4  15
TORSDOF 3
ENDMDL
MODEL 5
REMARK VINA RESULT:      -7.3      1.835      6.487
REMARK  Name = 
REMARK  3 active torsions:
REMARK  status: ('A' for Active; 'I' for Inactive)
REMARK    1  A    between atoms: S_1  and  C_2
REMARK    2  A    between atoms: N_5  and  C_6
REMARK    3  A    between atoms: C_6  and  C_7
REMARK                            x       y       z     vdW  Elec       q    Type
REMARK                         _______ _______ _______ _____ _____    ______ ____
ROOT
ATOM      1  C   UNL     1       2.987   6.493  17.876  0.00  0.00    +0.000 A 
ATOM      2  N   UNL     1       4.009   5.965  17.187  0.00  0.00    +0.000 NA
ATOM      3  C   UNL     1       4.133   4.625  17.220  0.00  0.00    +0.000 A 
ATOM      4  N   UNL     1       5.142   4.017  16.445  0.00  0.00    +0.000 N 
ATOM      5  C   UNL     1       3.236   3.807  17.940  0.00  0.00    +0.000 A 
ATOM      6  C   UNL     1       3.303   2.389  18.026  0.00  0.00    +0.000 A 
ATOM      7  C   UNL     1       2.415   1.676  18.824  0.00  0.00    +0.000 A 
ATOM      8  C   UNL     1       1.425   2.357  19.516  0.00  0.00    +0.000 A 
ATOM      9  C   UNL     1       1.334   3.747  19.404  0.00  0.00    +0.000 A 
ATOM     10  C   UNL     1       2.228   4.485  18.637  0.00  0.00    +0.000 A 
ATOM     11  N   UNL     1       2.095   5.812  18.603  0.00  0.00    +0.000 NA
ATOM     12  H   UNL     1       5.499   3.191  16.912  0.00  0.00    +0.000 HD
ENDROOT
BRANCH   1  13
ATOM     13  S   UNL     1       2.817   8.255  17.847  0.00  0.00    +0.000 S 
ATOM     14  H   UNL     1       3.292   8.415  19.086  0.00  0.00    +0.000 HD
ENDBRANCH   1  13
BRANCH   4  15
ATOM     15  C   UNL     1       6.262   4.864  16.056  0.00  0.00    +0.000 C 
BRANCH  15  16
ATOM     16  C   UNL     1       6.556   4.596  14.593  0.00  0.00    +0.000 A 
ATOM     17  C   UNL     1       7.556   5.326  13.932  0.00  0.00    +0.000 A 
ATOM     18  C   UNL     1       7.808   5.121  12.573  0.00  0.00    +0.000 A 
ATOM     19  C   UNL     1       7.059   4.190  11.858  0.00  0.00    +0.000 A 
ATOM     20  C   UNL     1       6.059   3.462  12.501  0.00  0.00    +0.000 A 
ATOM     21  C   UNL     1       5.805   3.665  13.860  0.00  0.00    +0.000 A 
ENDBRANCH  15  16
ENDBRANCH   4  15
TORSDOF 3
ENDMDL
MODEL 6
REMARK VINA RESULT:      -7.2      2.388      6.176
REMARK  Name = 
REMARK  3 active torsions:
REMARK  status: ('A' for Active; 'I' for Inactive)
REMARK    1  A    between atoms: S_1  and  C_2
REMARK    2  A    between atoms: N_5  and  C_6
REMARK    3  A    between atoms: C_6  and  C_7
REMARK                            x       y       z     vdW  Elec       q    Type
REMARK                         _______ _______ _______ _____ _____    ______ ____
ROOT
ATOM      1  C   UNL     1       2.788   6.572  18.354  0.00  0.00    +0.000 A 
ATOM      2  N   UNL     1       3.673   5.867  17.635  0.00  0.00    +0.000 NA
ATOM      3  C   UNL     1       3.973   4.634  18.083  0.00  0.00    +0.000 A 
ATOM      4  N   UNL     1       4.834   3.823  17.316  0.00  0.00    +0.000 N 
ATOM      5  C   UNL     1       3.389   4.099  19.251  0.00  0.00    +0.000 A 
ATOM      6  C   UNL     1       3.656   2.810  19.788  0.00  0.00    +0.000 A 
ATOM      7  C   UNL     1       3.086   2.401  20.989  0.00  0.00    +0.000 A 
ATOM      8  C   UNL     1       2.213   3.250  21.651  0.00  0.00    +0.000 A 
ATOM      9  C   UNL     1       1.920   4.503  21.106  0.00  0.00    +0.000 A 
ATOM     10  C   UNL     1       2.500   4.946  19.924  0.00  0.00    +0.000 A 
ATOM     11  N   UNL     1       2.193   6.167  19.481  0.00  0.00    +0.000 NA
ATOM     12  H   UNL     1       5.397   3.234  17.918  0.00  0.00    +0.000 HD
ENDROOT
BRANCH   1  13
ATOM     13  S   UNL     1       2.391   8.199  17.781  0.00  0.00    +0.000 S 
ATOM     14  H   UNL     1       1.505   8.428  18.755  0.00  0.00    +0.000 HD
ENDBRANCH   1  13
BRANCH   4  15
ATOM     15  C   UNL     1       5.709   4.513  16.375  0.00  0.00    +0.000 C 
BRANCH  15  16
ATOM     16  C   UNL     1       6.622   5.421  17.176  0.00  0.00    +0.000 A 
ATOM     17  C   UNL     1       7.239   4.945  18.344  0.00  0.00    +0.000 A 
ATOM     18  C   UNL     1       8.047   5.783  19.115  0.00  0.00    +0.000 A 
ATOM     19  C   UNL     1       8.242   7.108  18.733  0.00  0.00    +0.000 A 
ATOM     20  C   UNL     1       7.631   7.596  17.579  0.00  0.00    +0.000 A 
ATOM     21  C   UNL     1       6.822   6.758  16.805  0.00  0.00    +0.000 A 
ENDBRANCH  15  16
ENDBRANCH   4  15
TORSDOF 3
ENDMDL
MODEL 7
REMARK VINA RESULT:      -7.2      1.187      1.610
REMARK  Name = 
REMARK  3 active torsions:
REMARK  status: ('A' for Active; 'I' for Inactive)
REMARK    1  A    between atoms: S_1  and  C_2
REMARK    2  A    between atoms: N_5  and  C_6
REMARK    3  A    between atoms: C_6  and  C_7
REMARK                            x       y       z     vdW  Elec       q    Type
REMARK                         _______ _______ _______ _____ _____    ______ ____
ROOT
ATOM      1  C   UNL     1       7.369   6.415  17.480  0.00  0.00    +0.000 A 
ATOM      2  N   UNL     1       6.591   5.573  18.176  0.00  0.00    +0.000 NA
ATOM      3  C   UNL     1       6.014   4.572  17.486  0.00  0.00    +0.000 A 
ATOM      4  N   UNL     1       5.255   3.613  18.187  0.00  0.00    +0.000 N 
ATOM      5  C   UNL     1       6.213   4.406  16.098  0.00  0.00    +0.000 A 
ATOM      6  C   UNL     1       5.638   3.379  15.301  0.00  0.00    +0.000 A 
ATOM      7  C   UNL     1       5.834   3.344  13.925  0.00  0.00    +0.000 A 
ATOM      8  C   UNL     1       6.636   4.305  13.328  0.00  0.00    +0.000 A 
ATOM      9  C   UNL     1       7.232   5.294  14.114  0.00  0.00    +0.000 A 
ATOM     10  C   UNL     1       7.027   5.368  15.486  0.00  0.00    +0.000 A 
ATOM     11  N   UNL     1       7.608   6.358  16.166  0.00  0.00    +0.000 NA
ATOM     12  H   UNL     1       4.483   3.286  17.618  0.00  0.00    +0.000 HD
ENDROOT
BRANCH   1  13
ATOM     13  S   UNL     1       8.128   7.741  18.374  0.00  0.00    +0.000 S 
ATOM     14  H   UNL     1       9.328   7.556  17.815  0.00  0.00    +0.000 HD
ENDBRANCH   1  13
BRANCH   4  15
ATOM     15  C   UNL     1       4.744   4.016  19.491  0.00  0.00    +0.000 C 
BRANCH  15  16
ATOM     16  C   UNL     1       3.281   3.622  19.556  0.00  0.00    +0.000 A 
ATOM     17  C   UNL     1       2.759   2.706  18.628  0.00  0.00    +0.000 A 
ATOM     18  C   UNL     1       1.404   2.367  18.648  0.00  0.00    +0.000 A 
ATOM     19  C   UNL     1       0.555   2.943  19.589  0.00  0.00    +0.000 A 
ATOM     20  C   UNL     1       1.059   3.857  20.512  0.00  0.00    +0.000 A 
ATOM     21  C   UNL     1       2.415   4.198  20.495  0.00  0.00    +0.000 A 
ENDBRANCH  15  16
ENDBRANCH   4  15
TORSDOF 3
ENDMDL
MODEL 8
REMARK VINA RESULT:      -7.2      3.379      5.452
REMARK  Name = 
REMARK  3 active torsions:
REMARK  status: ('A' for Active; 'I' for Inactive)
REMARK    1  A    between atoms: S_1  and  C_2
REMARK    2  A    between atoms: N_5  and  C_6
REMARK    3  A    between atoms: C_6  and  C_7
REMARK                            x       y       z     vdW  Elec       q    Type
REMARK                         _______ _______ _______ _____ _____    ______ ____
ROOT
ATOM      1  C   UNL     1       4.452   5.004  16.775  0.00  0.00    +0.000 A 
ATOM      2  N   UNL     1       3.896   6.063  17.382  0.00  0.00    +0.000 NA
ATOM      3  C   UNL     1       2.892   5.809  18.242  0.00  0.00    +0.000 A 
ATOM      4  N   UNL     1       2.331   6.880  18.966  0.00  0.00    +0.000 N 
ATOM      5  C   UNL     1       2.440   4.497  18.500  0.00  0.00    +0.000 A 
ATOM      6  C   UNL     1       1.386   4.150  19.389  0.00  0.00    +0.000 A 
ATOM      7  C   UNL     1       0.963   2.831  19.519  0.00  0.00    +0.000 A 
ATOM      8  C   UNL     1       1.607   1.836  18.799  0.00  0.00    +0.000 A 
ATOM      9  C   UNL     1       2.667   2.170  17.953  0.00  0.00    +0.000 A 
ATOM     10  C   UNL     1       3.088   3.483  17.783  0.00  0.00    +0.000 A 
ATOM     11  N   UNL     1       4.089   3.727  16.935  0.00  0.00    +0.000 NA
ATOM     12  H   UNL     1       1.342   6.725  19.121  0.00  0.00    +0.000 HD
ENDROOT
BRANCH   1  13
ATOM     13  S   UNL     1       5.769   5.324  15.636  0.00  0.00    +0.000 S 
ATOM     14  H   UNL     1       5.806   4.068  15.180  0.00  0.00    +0.000 HD
ENDBRANCH   1  13
BRANCH   4  15
ATOM     15  C   UNL     1       2.520   8.213  18.406  0.00  0.00    +0.000 C 
BRANCH  15  16
ATOM     16  C   UNL     1       1.366   9.077  18.875  0.00  0.00    +0.000 A 
ATOM     17  C   UNL     1       1.054   9.153  20.242  0.00  0.00    +0.000 A 
ATOM     18  C   UNL     1      -0.033   9.910  20.683  0.00  0.00    +0.000 A 
ATOM     19  C   UNL     1      -0.825  10.595  19.766  0.00  0.00    +0.000 A 
ATOM     20  C   UNL     1      -0.530  10.525  18.405  0.00  0.00    +0.000 A 
ATOM     21  C   UNL     1       0.558   9.768  17.960  0.00  0.00    +0.000 A 
ENDBRANCH  15  16
ENDBRANCH   4  15
TORSDOF 3
ENDMDL
MODEL 9
REMARK VINA RESULT:      -7.1      2.414      6.234
REMARK  Name = 
REMARK  3 active torsions:
REMARK  status: ('A' for Active; 'I' for Inactive)
REMARK    1  A    between atoms: S_1  and  C_2
REMARK    2  A    between atoms: N_5  and  C_6
REMARK    3  A    between atoms: C_6  and  C_7
REMARK                            x       y       z     vdW  Elec       q    Type
REMARK                         _______ _______ _______ _____ _____    ______ ____
ROOT
ATOM      1  C   UNL     1       2.790   6.558  18.371  0.00  0.00    +0.000 A 
ATOM      2  N   UNL     1       3.686   5.843  17.675  0.00  0.00    +0.000 NA
ATOM      3  C   UNL     1       3.974   4.613  18.141  0.00  0.00    +0.000 A 
ATOM      4  N   UNL     1       4.847   3.793  17.398  0.00  0.00    +0.000 N 
ATOM      5  C   UNL     1       3.368   4.092  19.304  0.00  0.00    +0.000 A 
ATOM      6  C   UNL     1       3.622   2.808  19.860  0.00  0.00    +0.000 A 
ATOM      7  C   UNL     1       3.030   2.414  21.055  0.00  0.00    +0.000 A 
ATOM      8  C   UNL     1       2.147   3.273  21.692  0.00  0.00    +0.000 A 
ATOM      9  C   UNL     1       1.867   4.521  21.128  0.00  0.00    +0.000 A 
ATOM     10  C   UNL     1       2.469   4.949  19.952  0.00  0.00    +0.000 A 
ATOM     11  N   UNL     1       2.174   6.166  19.491  0.00  0.00    +0.000 NA
ATOM     12  H   UNL     1       5.396   3.208  18.016  0.00  0.00    +0.000 HD
ENDROOT
BRANCH   1  13
ATOM     13  S   UNL     1       2.407   8.179  17.773  0.00  0.00    +0.000 S 
ATOM     14  H   UNL     1       1.929   8.601  18.947  0.00  0.00    +0.000 HD
ENDBRANCH   1  13
BRANCH   4  15
ATOM     15  C   UNL     1       5.740   4.469  16.466  0.00  0.00    +0.000 C 
BRANCH  15  16
ATOM     16  C   UNL     1       6.593   5.435  17.265  0.00  0.00    +0.000 A 
ATOM     17  C   UNL     1       6.800   6.742  16.797  0.00  0.00    +0.000 A 
ATOM     18  C   UNL     1       7.619   7.629  17.500  0.00  0.00    +0.000 A 
ATOM     19  C   UNL     1       8.246   7.218  18.673  0.00  0.00    +0.000 A 
ATOM     20  C   UNL     1       8.053   5.921  19.147  0.00  0.00    +0.000 A 
ATOM     21  C   UNL     1       7.234   5.032  18.446  0.00  0.00    +0.000 A 
ENDBRANCH  15  16
ENDBRANCH   4  15
TORSDOF 3
ENDMDL
