MODEL 1
REMARK VINA RESULT:      -5.5      0.000      0.000
REMARK  Name = 
REMARK  16 active torsions:
REMARK  status: ('A' for Active; 'I' for Inactive)
REMARK    1  A    between atoms: C_1  and  C_2
REMARK    2  A    between atoms: C_2  and  C_3
REMARK    3  A    between atoms: C_4  and  C_5
REMARK    4  A    between atoms: C_5  and  C_6
REMARK    5  A    between atoms: C_6  and  C_7
REMARK    6  A    between atoms: C_7  and  C_8
REMARK    7  A    between atoms: C_8  and  C_9
REMARK    8  A    between atoms: C_9  and  C_10
REMARK    9  A    between atoms: C_10  and  C_11
REMARK   10  A    between atoms: C_11  and  C_12
REMARK   11  A    between atoms: C_12  and  C_13
REMARK   12  A    between atoms: C_13  and  C_14
REMARK   13  A    between atoms: C_14  and  O_15
REMARK   14  A    between atoms: O_15  and  P_16
REMARK   15  A    between atoms: P_16  and  O_18
REMARK   16  A    between atoms: P_16  and  O_19
REMARK                            x       y       z     vdW  Elec       q    Type
REMARK                         _______ _______ _______ _____ _____    ______ ____
ROOT
ATOM      1  C   UNL     1       4.208   3.936  17.234  0.00  0.00    +0.000 C 
ENDROOT
BRANCH   1   2
ATOM      2  C   UNL     1       2.713   3.609  17.270  0.00  0.00    +0.000 C 
BRANCH   2   3
ATOM      3  C   UNL     1       2.428   2.187  17.769  0.00  0.00    +0.000 C 
BRANCH   3   4
ATOM      4  C   UNL     1       1.312   2.150  18.813  0.00  0.00    +0.000 C 
BRANCH   4   5
ATOM      5  C   UNL     1       0.987   3.537  19.354  0.00  0.00    +0.000 C 
BRANCH   5   6
ATOM      6  C   UNL     1       1.399   3.634  20.822  0.00  0.00    +0.000 C 
BRANCH   6   7
ATOM      7  C   UNL     1       2.165   4.926  21.086  0.00  0.00    +0.000 C 
BRANCH   7   9
ATOM      8  C   UNL     1       2.218   7.143  19.934  0.00  0.00    +0.000 C 
ATOM      9  C   UNL     1       2.148   5.805  19.870  0.00  0.00    +0.000 C 
BRANCH   8  11
ATOM     10  C   UNL     1       3.103   7.528  17.638  0.00  0.00    +0.000 C 
ATOM     11  C   UNL     1       2.178   8.040  18.731  0.00  0.00    +0.000 C 
ENDBRANCH   8  11
ENDBRANCH   7   9
ENDBRANCH   6   7
ENDBRANCH   5   6
ENDBRANCH   4   5
ENDBRANCH   3   4
ENDBRANCH   2   3
ENDBRANCH   1   2
BRANCH   1  12
ATOM     12  C   UNL     1       4.862   3.833  18.612  0.00  0.00    +0.000 C 
BRANCH  12  13
ATOM     13  C   UNL     1       6.181   4.617  18.635  0.00  0.00    +0.000 C 
BRANCH  13  14
ATOM     14  C   UNL     1       6.387   5.458  17.379  0.00  0.00    +0.000 C 
BRANCH  14  15
ATOM     15  O   UNL     1       7.180   4.726  16.463  0.00  0.00    +0.000 OA
BRANCH  15  16
ATOM     16  P   UNL     1       6.958   4.958  14.898  0.00  0.00    +0.000 P 
ATOM     17  O   UNL     1       8.128   5.477  14.133  0.00  0.00    +0.000 OA
BRANCH  16  18
ATOM     18  O   UNL     1       6.427   3.516  14.465  0.00  0.00    +0.000 OA
ATOM     19  H   UNL     1       5.955   3.107  15.214  0.00  0.00    +0.000 HD
ENDBRANCH  16  18
BRANCH  16  20
ATOM     20  O   UNL     1       5.634   5.840  14.789  0.00  0.00    +0.000 OA
ATOM     21  H   UNL     1       5.579   6.457  15.546  0.00  0.00    +0.000 HD
ENDBRANCH  16  20
ENDBRANCH  15  16
ENDBRANCH  14  15
ENDBRANCH  13  14
ENDBRANCH  12  13
ENDBRANCH   1  12
TORSDOF 15
ENDMDL
MODEL 2
REMARK VINA RESULT:      -5.4      5.062      7.191
REMARK  Name = 
REMARK  16 active torsions:
REMARK  status: ('A' for Active; 'I' for Inactive)
REMARK    1  A    between atoms: C_1  and  C_2
REMARK    2  A    between atoms: C_2  and  C_3
REMARK    3  A    between atoms: C_4  and  C_5
REMARK    4  A    between atoms: C_5  and  C_6
REMARK    5  A    between atoms: C_6  and  C_7
REMARK    6  A    between atoms: C_7  and  C_8
REMARK    7  A    between atoms: C_8  and  C_9
REMARK    8  A    between atoms: C_9  and  C_10
REMARK    9  A    between atoms: C_10  and  C_11
REMARK   10  A    between atoms: C_11  and  C_12
REMARK   11  A    between atoms: C_12  and  C_13
REMARK   12  A    between atoms: C_13  and  C_14
REMARK   13  A    between atoms: C_14  and  O_15
REMARK   14  A    between atoms: O_15  and  P_16
REMARK   15  A    between atoms: P_16  and  O_18
REMARK   16  A    between atoms: P_16  and  O_19
REMARK                            x       y       z     vdW  Elec       q    Type
REMARK                         _______ _______ _______ _____ _____    ______ ____
ROOT
ATOM      1  C   UNL     1       3.803   6.218  18.204  0.00  0.00    +0.000 C 
ENDROOT
BRANCH   1   2
ATOM      2  C   UNL     1       4.448   6.720  16.909  0.00  0.00    +0.000 C 
BRANCH   2   3
ATOM      3  C   UNL     1       5.683   5.906  16.506  0.00  0.00    +0.000 C 
BRANCH   3   4
ATOM      4  C   UNL     1       5.451   4.400  16.623  0.00  0.00    +0.000 C 
BRANCH   4   5
ATOM      5  C   UNL     1       6.025   3.638  15.435  0.00  0.00    +0.000 C 
BRANCH   5   6
ATOM      6  C   UNL     1       6.926   4.557  14.611  0.00  0.00    +0.000 C 
BRANCH   6   7
ATOM      7  C   UNL     1       6.834   4.219  13.127  0.00  0.00    +0.000 C 
BRANCH   7   9
ATOM      8  C   UNL     1       5.092   3.369  11.550  0.00  0.00    +0.000 C 
ATOM      9  C   UNL     1       5.430   3.832  12.762  0.00  0.00    +0.000 C 
BRANCH   8  11
ATOM     10  C   UNL     1       3.192   3.884  10.023  0.00  0.00    +0.000 C 
ATOM     11  C   UNL     1       3.690   3.001  11.157  0.00  0.00    +0.000 C 
ENDBRANCH   8  11
ENDBRANCH   7   9
ENDBRANCH   6   7
ENDBRANCH   5   6
ENDBRANCH   4   5
ENDBRANCH   3   4
ENDBRANCH   2   3
ENDBRANCH   1   2
BRANCH   1  12
ATOM     12  C   UNL     1       2.347   5.797  18.006  0.00  0.00    +0.000 C 
BRANCH  12  13
ATOM     13  C   UNL     1       2.224   4.268  18.053  0.00  0.00    +0.000 C 
BRANCH  13  14
ATOM     14  C   UNL     1       3.193   3.630  19.043  0.00  0.00    +0.000 C 
BRANCH  14  15
ATOM     15  O   UNL     1       2.479   2.722  19.861  0.00  0.00    +0.000 OA
BRANCH  15  16
ATOM     16  P   UNL     1       1.687   3.289  21.128  0.00  0.00    +0.000 P 
ATOM     17  O   UNL     1       1.493   2.343  22.265  0.00  0.00    +0.000 OA
BRANCH  16  18
ATOM     18  O   UNL     1       2.548   4.595  21.446  0.00  0.00    +0.000 OA
ATOM     19  H   UNL     1       3.039   4.862  20.647  0.00  0.00    +0.000 HD
ENDBRANCH  16  18
BRANCH  16  20
ATOM     20  O   UNL     1       0.346   3.917  20.536  0.00  0.00    +0.000 OA
ATOM     21  H   UNL     1       0.469   4.873  20.369  0.00  0.00    +0.000 HD
ENDBRANCH  16  20
ENDBRANCH  15  16
ENDBRANCH  14  15
ENDBRANCH  13  14
ENDBRANCH  12  13
ENDBRANCH   1  12
TORSDOF 15
ENDMDL
MODEL 3
REMARK VINA RESULT:      -5.4      3.500      5.867
REMARK  Name = 
REMARK  16 active torsions:
REMARK  status: ('A' for Active; 'I' for Inactive)
REMARK    1  A    between atoms: C_1  and  C_2
REMARK    2  A    between atoms: C_2  and  C_3
REMARK    3  A    between atoms: C_4  and  C_5
REMARK    4  A    between atoms: C_5  and  C_6
REMARK    5  A    between atoms: C_6  and  C_7
REMARK    6  A    between atoms: C_7  and  C_8
REMARK    7  A    between atoms: C_8  and  C_9
REMARK    8  A    between atoms: C_9  and  C_10
REMARK    9  A    between atoms: C_10  and  C_11
REMARK   10  A    between atoms: C_11  and  C_12
REMARK   11  A    between atoms: C_12  and  C_13
REMARK   12  A    between atoms: C_13  and  C_14
REMARK   13  A    between atoms: C_14  and  O_15
REMARK   14  A    between atoms: O_15  and  P_16
REMARK   15  A    between atoms: P_16  and  O_18
REMARK   16  A    between atoms: P_16  and  O_19
REMARK                            x       y       z     vdW  Elec       q    Type
REMARK                         _______ _______ _______ _____ _____    ______ ____
ROOT
ATOM      1  C   UNL     1       1.193   3.350  18.456  0.00  0.00    +0.000 C 
ENDROOT
BRANCH   1   2
ATOM      2  C   UNL     1       1.712   4.465  17.544  0.00  0.00    +0.000 C 
BRANCH   2   3
ATOM      3  C   UNL     1       2.164   5.706  18.322  0.00  0.00    +0.000 C 
BRANCH   3   4
ATOM      4  C   UNL     1       3.682   5.764  18.494  0.00  0.00    +0.000 C 
BRANCH   4   5
ATOM      5  C   UNL     1       4.394   6.096  17.188  0.00  0.00    +0.000 C 
BRANCH   5   6
ATOM      6  C   UNL     1       5.870   6.387  17.457  0.00  0.00    +0.000 C 
BRANCH   6   7
ATOM      7  C   UNL     1       6.749   5.790  16.364  0.00  0.00    +0.000 C 
BRANCH   7   9
ATOM      8  C   UNL     1       6.310   4.282  14.420  0.00  0.00    +0.000 C 
ATOM      9  C   UNL     1       5.905   5.263  15.240  0.00  0.00    +0.000 C 
BRANCH   8  11
ATOM     10  C   UNL     1       6.381   3.350  12.112  0.00  0.00    +0.000 C 
ATOM     11  C   UNL     1       5.491   3.759  13.276  0.00  0.00    +0.000 C 
ENDBRANCH   8  11
ENDBRANCH   7   9
ENDBRANCH   6   7
ENDBRANCH   5   6
ENDBRANCH   4   5
ENDBRANCH   3   4
ENDBRANCH   2   3
ENDBRANCH   1   2
BRANCH   1  12
ATOM     12  C   UNL     1       0.937   3.833  19.883  0.00  0.00    +0.000 C 
BRANCH  12  13
ATOM     13  C   UNL     1       1.132   2.682  20.878  0.00  0.00    +0.000 C 
BRANCH  13  14
ATOM     14  C   UNL     1       2.527   2.665  21.494  0.00  0.00    +0.000 C 
BRANCH  14  15
ATOM     15  O   UNL     1       3.452   3.164  20.545  0.00  0.00    +0.000 OA
BRANCH  15  16
ATOM     16  P   UNL     1       4.674   2.235  20.102  0.00  0.00    +0.000 P 
ATOM     17  O   UNL     1       5.388   1.514  21.195  0.00  0.00    +0.000 OA
BRANCH  16  18
ATOM     18  O   UNL     1       3.957   1.315  19.012  0.00  0.00    +0.000 OA
ATOM     19  H   UNL     1       3.260   1.829  18.563  0.00  0.00    +0.000 HD
ENDBRANCH  16  18
BRANCH  16  20
ATOM     20  O   UNL     1       5.596   3.163  19.191  0.00  0.00    +0.000 OA
ATOM     21  H   UNL     1       6.287   2.625  18.756  0.00  0.00    +0.000 HD
ENDBRANCH  16  20
ENDBRANCH  15  16
ENDBRANCH  14  15
ENDBRANCH  13  14
ENDBRANCH  12  13
ENDBRANCH   1  12
TORSDOF 15
ENDMDL
MODEL 4
REMARK VINA RESULT:      -5.3      3.684      5.761
REMARK  Name = 
REMARK  16 active torsions:
REMARK  status: ('A' for Active; 'I' for Inactive)
REMARK    1  A    between atoms: C_1  and  C_2
REMARK    2  A    between atoms: C_2  and  C_3
REMARK    3  A    between atoms: C_4  and  C_5
REMARK    4  A    between atoms: C_5  and  C_6
REMARK    5  A    between atoms: C_6  and  C_7
REMARK    6  A    between atoms: C_7  and  C_8
REMARK    7  A    between atoms: C_8  and  C_9
REMARK    8  A    between atoms: C_9  and  C_10
REMARK    9  A    between atoms: C_10  and  C_11
REMARK   10  A    between atoms: C_11  and  C_12
REMARK   11  A    between atoms: C_12  and  C_13
REMARK   12  A    between atoms: C_13  and  C_14
REMARK   13  A    between atoms: C_14  and  O_15
REMARK   14  A    between atoms: O_15  and  P_16
REMARK   15  A    between atoms: P_16  and  O_18
REMARK   16  A    between atoms: P_16  and  O_19
REMARK                            x       y       z     vdW  Elec       q    Type
REMARK                         _______ _______ _______ _____ _____    ______ ____
ROOT
ATOM      1  C   UNL     1       1.805   5.274  19.165  0.00  0.00    +0.000 C 
ENDROOT
BRANCH   1   2
ATOM      2  C   UNL     1       3.172   5.926  19.393  0.00  0.00    +0.000 C 
BRANCH   2   3
ATOM      3  C   UNL     1       3.608   6.816  18.223  0.00  0.00    +0.000 C 
BRANCH   3   4
ATOM      4  C   UNL     1       4.108   6.003  17.029  0.00  0.00    +0.000 C 
BRANCH   4   5
ATOM      5  C   UNL     1       5.343   6.625  16.389  0.00  0.00    +0.000 C 
BRANCH   5   6
ATOM      6  C   UNL     1       6.561   5.733  16.628  0.00  0.00    +0.000 C 
BRANCH   6   7
ATOM      7  C   UNL     1       7.427   6.289  17.753  0.00  0.00    +0.000 C 
BRANCH   7   9
ATOM      8  C   UNL     1       8.447   8.488  18.361  0.00  0.00    +0.000 C 
ATOM      9  C   UNL     1       7.635   7.766  17.577  0.00  0.00    +0.000 C 
BRANCH   8  11
ATOM     10  C   UNL     1       9.426  10.531  19.397  0.00  0.00    +0.000 C 
ATOM     11  C   UNL     1       8.649   9.969  18.216  0.00  0.00    +0.000 C 
ENDBRANCH   8  11
ENDBRANCH   7   9
ENDBRANCH   6   7
ENDBRANCH   5   6
ENDBRANCH   4   5
ENDBRANCH   3   4
ENDBRANCH   2   3
ENDBRANCH   1   2
BRANCH   1  12
ATOM     12  C   UNL     1       1.283   4.560  20.412  0.00  0.00    +0.000 C 
BRANCH  12  13
ATOM     13  C   UNL     1       2.454   4.058  21.266  0.00  0.00    +0.000 C 
BRANCH  13  14
ATOM     14  C   UNL     1       2.762   2.581  21.035  0.00  0.00    +0.000 C 
BRANCH  14  15
ATOM     15  O   UNL     1       3.824   2.476  20.105  0.00  0.00    +0.000 OA
BRANCH  15  16
ATOM     16  P   UNL     1       3.513   1.909  18.644  0.00  0.00    +0.000 P 
ATOM     17  O   UNL     1       3.832   2.813  17.502  0.00  0.00    +0.000 OA
BRANCH  16  18
ATOM     18  O   UNL     1       4.322   0.533  18.690  0.00  0.00    +0.000 OA
ATOM     19  H   UNL     1       3.904  -0.066  19.336  0.00  0.00    +0.000 HD
ENDBRANCH  16  18
BRANCH  16  20
ATOM     20  O   UNL     1       2.003   1.403  18.704  0.00  0.00    +0.000 OA
ATOM     21  H   UNL     1       1.402   2.159  18.859  0.00  0.00    +0.000 HD
ENDBRANCH  16  20
ENDBRANCH  15  16
ENDBRANCH  14  15
ENDBRANCH  13  14
ENDBRANCH  12  13
ENDBRANCH   1  12
TORSDOF 15
ENDMDL
MODEL 5
REMARK VINA RESULT:      -5.2      5.238      7.474
REMARK  Name = 
REMARK  16 active torsions:
REMARK  status: ('A' for Active; 'I' for Inactive)
REMARK    1  A    between atoms: C_1  and  C_2
REMARK    2  A    between atoms: C_2  and  C_3
REMARK    3  A    between atoms: C_4  and  C_5
REMARK    4  A    between atoms: C_5  and  C_6
REMARK    5  A    between atoms: C_6  and  C_7
REMARK    6  A    between atoms: C_7  and  C_8
REMARK    7  A    between atoms: C_8  and  C_9
REMARK    8  A    between atoms: C_9  and  C_10
REMARK    9  A    between atoms: C_10  and  C_11
REMARK   10  A    between atoms: C_11  and  C_12
REMARK   11  A    between atoms: C_12  and  C_13
REMARK   12  A    between atoms: C_13  and  C_14
REMARK   13  A    between atoms: C_14  and  O_15
REMARK   14  A    between atoms: O_15  and  P_16
REMARK   15  A    between atoms: P_16  and  O_18
REMARK   16  A    between atoms: P_16  and  O_19
REMARK                            x       y       z     vdW  Elec       q    Type
REMARK                         _______ _______ _______ _____ _____    ______ ____
ROOT
ATOM      1  C   UNL     1       4.212   4.391  16.831  0.00  0.00    +0.000 C 
ENDROOT
BRANCH   1   2
ATOM      2  C   UNL     1       5.454   3.780  17.486  0.00  0.00    +0.000 C 
BRANCH   2   3
ATOM      3  C   UNL     1       6.762   4.337  16.913  0.00  0.00    +0.000 C 
BRANCH   3   4
ATOM      4  C   UNL     1       6.534   5.187  15.663  0.00  0.00    +0.000 C 
BRANCH   4   5
ATOM      5  C   UNL     1       7.049   4.502  14.403  0.00  0.00    +0.000 C 
BRANCH   5   6
ATOM      6  C   UNL     1       5.874   4.091  13.516  0.00  0.00    +0.000 C 
BRANCH   6   7
ATOM      7  C   UNL     1       6.348   3.217  12.360  0.00  0.00    +0.000 C 
BRANCH   7   9
ATOM      8  C   UNL     1       4.044   3.050  11.406  0.00  0.00    +0.000 C 
ATOM      9  C   UNL     1       5.357   3.255  11.232  0.00  0.00    +0.000 C 
BRANCH   8  11
ATOM     10  C   UNL     1       2.956   4.433   9.643  0.00  0.00    +0.000 C 
ATOM     11  C   UNL     1       3.041   3.058  10.288  0.00  0.00    +0.000 C 
ENDBRANCH   8  11
ENDBRANCH   7   9
ENDBRANCH   6   7
ENDBRANCH   5   6
ENDBRANCH   4   5
ENDBRANCH   3   4
ENDBRANCH   2   3
ENDBRANCH   1   2
BRANCH   1  12
ATOM     12  C   UNL     1       3.119   4.726  17.848  0.00  0.00    +0.000 C 
BRANCH  12  13
ATOM     13  C   UNL     1       1.950   3.742  17.714  0.00  0.00    +0.000 C 
BRANCH  13  14
ATOM     14  C   UNL     1       2.103   2.519  18.612  0.00  0.00    +0.000 C 
BRANCH  14  15
ATOM     15  O   UNL     1       1.309   2.699  19.769  0.00  0.00    +0.000 OA
BRANCH  15  16
ATOM     16  P   UNL     1       2.035   3.005  21.160  0.00  0.00    +0.000 P 
ATOM     17  O   UNL     1       1.463   2.340  22.366  0.00  0.00    +0.000 OA
BRANCH  16  18
ATOM     18  O   UNL     1       3.538   2.611  20.793  0.00  0.00    +0.000 OA
ATOM     19  H   UNL     1       3.814   1.849  21.335  0.00  0.00    +0.000 HD
ENDBRANCH  16  18
BRANCH  16  20
ATOM     20  O   UNL     1       2.124   4.595  21.244  0.00  0.00    +0.000 OA
ATOM     21  H   UNL     1       2.187   4.975  20.345  0.00  0.00    +0.000 HD
ENDBRANCH  16  20
ENDBRANCH  15  16
ENDBRANCH  14  15
ENDBRANCH  13  14
ENDBRANCH  12  13
ENDBRANCH   1  12
TORSDOF 15
ENDMDL
MODEL 6
REMARK VINA RESULT:      -5.1      1.893      2.580
REMARK  Name = 
REMARK  16 active torsions:
REMARK  status: ('A' for Active; 'I' for Inactive)
REMARK    1  A    between atoms: C_1  and  C_2
REMARK    2  A    between atoms: C_2  and  C_3
REMARK    3  A    between atoms: C_4  and  C_5
REMARK    4  A    between atoms: C_5  and  C_6
REMARK    5  A    between atoms: C_6  and  C_7
REMARK    6  A    between atoms: C_7  and  C_8
REMARK    7  A    between atoms: C_8  and  C_9
REMARK    8  A    between atoms: C_9  and  C_10
REMARK    9  A    between atoms: C_10  and  C_11
REMARK   10  A    between atoms: C_11  and  C_12
REMARK   11  A    between atoms: C_12  and  C_13
REMARK   12  A    between atoms: C_13  and  C_14
REMARK   13  A    between atoms: C_14  and  O_15
REMARK   14  A    between atoms: O_15  and  P_16
REMARK   15  A    between atoms: P_16  and  O_18
REMARK   16  A    between atoms: P_16  and  O_19
REMARK                            x       y       z     vdW  Elec       q    Type
REMARK                         _______ _______ _______ _____ _____    ______ ____
ROOT
ATOM      1  C   UNL     1       3.074   4.126  17.421  0.00  0.00    +0.000 C 
ENDROOT
BRANCH   1   2
ATOM      2  C   UNL     1       2.881   2.607  17.450  0.00  0.00    +0.000 C 
BRANCH   2   3
ATOM      3  C   UNL     1       3.562   1.945  18.653  0.00  0.00    +0.000 C 
BRANCH   3   4
ATOM      4  C   UNL     1       3.164   2.596  19.978  0.00  0.00    +0.000 C 
BRANCH   4   5
ATOM      5  C   UNL     1       1.668   2.481  20.246  0.00  0.00    +0.000 C 
BRANCH   5   6
ATOM      6  C   UNL     1       1.119   3.824  20.726  0.00  0.00    +0.000 C 
BRANCH   6   7
ATOM      7  C   UNL     1       2.252   4.805  21.004  0.00  0.00    +0.000 C 
BRANCH   7   9
ATOM      8  C   UNL     1       2.295   6.847  19.564  0.00  0.00    +0.000 C 
ATOM      9  C   UNL     1       1.838   6.203  20.648  0.00  0.00    +0.000 C 
BRANCH   8  11
ATOM     10  C   UNL     1       2.236   8.550  17.748  0.00  0.00    +0.000 C 
ATOM     11  C   UNL     1       1.912   8.253  19.204  0.00  0.00    +0.000 C 
ENDBRANCH   8  11
ENDBRANCH   7   9
ENDBRANCH   6   7
ENDBRANCH   5   6
ENDBRANCH   4   5
ENDBRANCH   3   4
ENDBRANCH   2   3
ENDBRANCH   1   2
BRANCH   1  12
ATOM     12  C   UNL     1       4.453   4.531  16.899  0.00  0.00    +0.000 C 
BRANCH  12  13
ATOM     13  C   UNL     1       4.492   6.037  16.613  0.00  0.00    +0.000 C 
BRANCH  13  14
ATOM     14  C   UNL     1       5.744   6.709  17.169  0.00  0.00    +0.000 C 
BRANCH  14  15
ATOM     15  O   UNL     1       6.793   5.760  17.210  0.00  0.00    +0.000 OA
BRANCH  15  16
ATOM     16  P   UNL     1       7.548   5.509  18.596  0.00  0.00    +0.000 P 
ATOM     17  O   UNL     1       8.494   4.357  18.634  0.00  0.00    +0.000 OA
BRANCH  16  18
ATOM     18  O   UNL     1       8.194   6.949  18.837  0.00  0.00    +0.000 OA
ATOM     19  H   UNL     1       8.649   6.959  19.699  0.00  0.00    +0.000 HD
ENDBRANCH  16  18
BRANCH  16  20
ATOM     20  O   UNL     1       6.399   5.476  19.699  0.00  0.00    +0.000 OA
ATOM     21  H   UNL     1       6.226   4.555  19.976  0.00  0.00    +0.000 HD
ENDBRANCH  16  20
ENDBRANCH  15  16
ENDBRANCH  14  15
ENDBRANCH  13  14
ENDBRANCH  12  13
ENDBRANCH   1  12
TORSDOF 15
ENDMDL
MODEL 7
REMARK VINA RESULT:      -5.1      3.644      6.074
REMARK  Name = 
REMARK  16 active torsions:
REMARK  status: ('A' for Active; 'I' for Inactive)
REMARK    1  A    between atoms: C_1  and  C_2
REMARK    2  A    between atoms: C_2  and  C_3
REMARK    3  A    between atoms: C_4  and  C_5
REMARK    4  A    between atoms: C_5  and  C_6
REMARK    5  A    between atoms: C_6  and  C_7
REMARK    6  A    between atoms: C_7  and  C_8
REMARK    7  A    between atoms: C_8  and  C_9
REMARK    8  A    between atoms: C_9  and  C_10
REMARK    9  A    between atoms: C_10  and  C_11
REMARK   10  A    between atoms: C_11  and  C_12
REMARK   11  A    between atoms: C_12  and  C_13
REMARK   12  A    between atoms: C_13  and  C_14
REMARK   13  A    between atoms: C_14  and  O_15
REMARK   14  A    between atoms: O_15  and  P_16
REMARK   15  A    between atoms: P_16  and  O_18
REMARK   16  A    between atoms: P_16  and  O_19
REMARK                            x       y       z     vdW  Elec       q    Type
REMARK                         _______ _______ _______ _____ _____    ______ ____
ROOT
ATOM      1  C   UNL     1       2.271   5.627  18.240  0.00  0.00    +0.000 C 
ENDROOT
BRANCH   1   2
ATOM      2  C   UNL     1       3.078   5.891  19.514  0.00  0.00    +0.000 C 
BRANCH   2   3
ATOM      3  C   UNL     1       4.586   5.707  19.311  0.00  0.00    +0.000 C 
BRANCH   3   4
ATOM      4  C   UNL     1       4.956   5.523  17.839  0.00  0.00    +0.000 C 
BRANCH   4   5
ATOM      5  C   UNL     1       6.413   5.112  17.663  0.00  0.00    +0.000 C 
BRANCH   5   6
ATOM      6  C   UNL     1       6.711   4.869  16.183  0.00  0.00    +0.000 C 
BRANCH   6   7
ATOM      7  C   UNL     1       5.640   5.502  15.303  0.00  0.00    +0.000 C 
BRANCH   7   9
ATOM      8  C   UNL     1       6.342   3.956  13.470  0.00  0.00    +0.000 C 
ATOM      9  C   UNL     1       5.380   4.649  14.095  0.00  0.00    +0.000 C 
BRANCH   8  11
ATOM     10  C   UNL     1       4.660   3.214  11.789  0.00  0.00    +0.000 C 
ATOM     11  C   UNL     1       6.108   3.118  12.246  0.00  0.00    +0.000 C 
ENDBRANCH   8  11
ENDBRANCH   7   9
ENDBRANCH   6   7
ENDBRANCH   5   6
ENDBRANCH   4   5
ENDBRANCH   3   4
ENDBRANCH   2   3
ENDBRANCH   1   2
BRANCH   1  12
ATOM     12  C   UNL     1       1.441   4.345  18.328  0.00  0.00    +0.000 C 
BRANCH  12  13
ATOM     13  C   UNL     1       1.204   3.966  19.795  0.00  0.00    +0.000 C 
BRANCH  13  14
ATOM     14  C   UNL     1       1.774   2.596  20.149  0.00  0.00    +0.000 C 
BRANCH  14  15
ATOM     15  O   UNL     1       2.312   2.009  18.979  0.00  0.00    +0.000 OA
BRANCH  15  16
ATOM     16  P   UNL     1       3.899   1.897  18.835  0.00  0.00    +0.000 P 
ATOM     17  O   UNL     1       4.708   2.520  19.922  0.00  0.00    +0.000 OA
BRANCH  16  18
ATOM     18  O   UNL     1       4.063   0.319  18.662  0.00  0.00    +0.000 OA
ATOM     19  H   UNL     1       3.577   0.028  17.868  0.00  0.00    +0.000 HD
ENDBRANCH  16  18
BRANCH  16  20
ATOM     20  O   UNL     1       4.224   2.423  17.366  0.00  0.00    +0.000 OA
ATOM     21  H   UNL     1       5.071   2.047  17.054  0.00  0.00    +0.000 HD
ENDBRANCH  16  20
ENDBRANCH  15  16
ENDBRANCH  14  15
ENDBRANCH  13  14
ENDBRANCH  12  13
ENDBRANCH   1  12
TORSDOF 15
ENDMDL
MODEL 8
REMARK VINA RESULT:      -5.0      3.974      6.512
REMARK  Name = 
REMARK  16 active torsions:
REMARK  status: ('A' for Active; 'I' for Inactive)
REMARK    1  A    between atoms: C_1  and  C_2
REMARK    2  A    between atoms: C_2  and  C_3
REMARK    3  A    between atoms: C_4  and  C_5
REMARK    4  A    between atoms: C_5  and  C_6
REMARK    5  A    between atoms: C_6  and  C_7
REMARK    6  A    between atoms: C_7  and  C_8
REMARK    7  A    between atoms: C_8  and  C_9
REMARK    8  A    between atoms: C_9  and  C_10
REMARK    9  A    between atoms: C_10  and  C_11
REMARK   10  A    between atoms: C_11  and  C_12
REMARK   11  A    between atoms: C_12  and  C_13
REMARK   12  A    between atoms: C_13  and  C_14
REMARK   13  A    between atoms: C_14  and  O_15
REMARK   14  A    between atoms: O_15  and  P_16
REMARK   15  A    between atoms: P_16  and  O_18
REMARK   16  A    between atoms: P_16  and  O_19
REMARK                            x       y       z     vdW  Elec       q    Type
REMARK                         _______ _______ _______ _____ _____    ______ ____
ROOT
ATOM      1  C   UNL     1       1.807   4.652  17.656  0.00  0.00    +0.000 C 
ENDROOT
BRANCH   1   2
ATOM      2  C   UNL     1       3.328   4.539  17.515  0.00  0.00    +0.000 C 
BRANCH   2   3
ATOM      3  C   UNL     1       4.011   5.900  17.343  0.00  0.00    +0.000 C 
BRANCH   3   4
ATOM      4  C   UNL     1       5.434   5.912  17.902  0.00  0.00    +0.000 C 
BRANCH   4   5
ATOM      5  C   UNL     1       6.473   6.171  16.818  0.00  0.00    +0.000 C 
BRANCH   5   6
ATOM      6  C   UNL     1       5.947   5.693  15.466  0.00  0.00    +0.000 C 
BRANCH   6   7
ATOM      7  C   UNL     1       6.842   4.601  14.891  0.00  0.00    +0.000 C 
BRANCH   7   9
ATOM      8  C   UNL     1       5.923   3.872  12.684  0.00  0.00    +0.000 C 
ATOM      9  C   UNL     1       6.050   3.684  14.005  0.00  0.00    +0.000 C 
BRANCH   8  11
ATOM     10  C   UNL     1       5.884   1.713  11.443  0.00  0.00    +0.000 C 
ATOM     11  C   UNL     1       5.116   2.980  11.786  0.00  0.00    +0.000 C 
ENDBRANCH   8  11
ENDBRANCH   7   9
ENDBRANCH   6   7
ENDBRANCH   5   6
ENDBRANCH   4   5
ENDBRANCH   3   4
ENDBRANCH   2   3
ENDBRANCH   1   2
BRANCH   1  12
ATOM     12  C   UNL     1       1.195   3.445  18.368  0.00  0.00    +0.000 C 
BRANCH  12  13
ATOM     13  C   UNL     1       1.446   3.536  19.879  0.00  0.00    +0.000 C 
BRANCH  13  14
ATOM     14  C   UNL     1       2.108   2.282  20.442  0.00  0.00    +0.000 C 
BRANCH  14  15
ATOM     15  O   UNL     1       3.356   2.638  21.007  0.00  0.00    +0.000 OA
BRANCH  15  16
ATOM     16  P   UNL     1       4.689   2.028  20.372  0.00  0.00    +0.000 P 
ATOM     17  O   UNL     1       5.550   1.225  21.287  0.00  0.00    +0.000 OA
BRANCH  16  18
ATOM     18  O   UNL     1       4.080   1.244  19.121  0.00  0.00    +0.000 OA
ATOM     19  H   UNL     1       4.163   1.797  18.322  0.00  0.00    +0.000 HD
ENDBRANCH  16  18
BRANCH  16  20
ATOM     20  O   UNL     1       5.417   3.257  19.665  0.00  0.00    +0.000 OA
ATOM     21  H   UNL     1       6.032   2.933  18.978  0.00  0.00    +0.000 HD
ENDBRANCH  16  20
ENDBRANCH  15  16
ENDBRANCH  14  15
ENDBRANCH  13  14
ENDBRANCH  12  13
ENDBRANCH   1  12
TORSDOF 15
ENDMDL
MODEL 9
REMARK VINA RESULT:      -5.0      4.396      6.535
REMARK  Name = 
REMARK  16 active torsions:
REMARK  status: ('A' for Active; 'I' for Inactive)
REMARK    1  A    between atoms: C_1  and  C_2
REMARK    2  A    between atoms: C_2  and  C_3
REMARK    3  A    between atoms: C_4  and  C_5
REMARK    4  A    between atoms: C_5  and  C_6
REMARK    5  A    between atoms: C_6  and  C_7
REMARK    6  A    between atoms: C_7  and  C_8
REMARK    7  A    between atoms: C_8  and  C_9
REMARK    8  A    between atoms: C_9  and  C_10
REMARK    9  A    between atoms: C_10  and  C_11
REMARK   10  A    between atoms: C_11  and  C_12
REMARK   11  A    between atoms: C_12  and  C_13
REMARK   12  A    between atoms: C_13  and  C_14
REMARK   13  A    between atoms: C_14  and  O_15
REMARK   14  A    between atoms: O_15  and  P_16
REMARK   15  A    between atoms: P_16  and  O_18
REMARK   16  A    between atoms: P_16  and  O_19
REMARK                            x       y       z     vdW  Elec       q    Type
REMARK                         _______ _______ _______ _____ _____    ______ ____
ROOT
ATOM      1  C   UNL     1       2.135   4.612  17.796  0.00  0.00    +0.000 C 
ENDROOT
BRANCH   1   2
ATOM      2  C   UNL     1       3.427   4.052  17.195  0.00  0.00    +0.000 C 
BRANCH   2   3
ATOM      3  C   UNL     1       4.485   3.729  18.256  0.00  0.00    +0.000 C 
BRANCH   3   4
ATOM      4  C   UNL     1       5.432   4.902  18.509  0.00  0.00    +0.000 C 
BRANCH   4   5
ATOM      5  C   UNL     1       6.895   4.495  18.382  0.00  0.00    +0.000 C 
BRANCH   5   6
ATOM      6  C   UNL     1       7.343   4.606  16.925  0.00  0.00    +0.000 C 
BRANCH   6   7
ATOM      7  C   UNL     1       6.651   5.774  16.233  0.00  0.00    +0.000 C 
BRANCH   7   9
ATOM      8  C   UNL     1       6.148   4.101  14.445  0.00  0.00    +0.000 C 
ATOM      9  C   UNL     1       5.941   5.306  14.995  0.00  0.00    +0.000 C 
BRANCH   8  11
ATOM     10  C   UNL     1       6.475   3.396  12.079  0.00  0.00    +0.000 C 
ATOM     11  C   UNL     1       5.467   3.625  13.195  0.00  0.00    +0.000 C 
ENDBRANCH   8  11
ENDBRANCH   7   9
ENDBRANCH   6   7
ENDBRANCH   5   6
ENDBRANCH   4   5
ENDBRANCH   3   4
ENDBRANCH   2   3
ENDBRANCH   1   2
BRANCH   1  12
ATOM     12  C   UNL     1       2.271   6.077  18.213  0.00  0.00    +0.000 C 
BRANCH  12  13
ATOM     13  C   UNL     1       2.285   6.195  19.742  0.00  0.00    +0.000 C 
BRANCH  13  14
ATOM     14  C   UNL     1       1.419   5.140  20.423  0.00  0.00    +0.000 C 
BRANCH  14  15
ATOM     15  O   UNL     1       2.213   4.426  21.352  0.00  0.00    +0.000 OA
BRANCH  15  16
ATOM     16  P   UNL     1       2.069   2.836  21.425  0.00  0.00    +0.000 P 
ATOM     17  O   UNL     1       1.214   2.299  22.521  0.00  0.00    +0.000 OA
BRANCH  16  18
ATOM     18  O   UNL     1       1.577   2.523  19.939  0.00  0.00    +0.000 OA
ATOM     19  H   UNL     1       2.352   2.377  19.365  0.00  0.00    +0.000 HD
ENDBRANCH  16  18
BRANCH  16  20
ATOM     20  O   UNL     1       3.563   2.279  21.399  0.00  0.00    +0.000 OA
ATOM     21  H   UNL     1       4.169   2.926  21.811  0.00  0.00    +0.000 HD
ENDBRANCH  16  20
ENDBRANCH  15  16
ENDBRANCH  14  15
ENDBRANCH  13  14
ENDBRANCH  12  13
ENDBRANCH   1  12
TORSDOF 15
ENDMDL
