MODEL 1
REMARK VINA RESULT:      -6.9      0.000      0.000
REMARK  Name = 
REMARK  2 active torsions:
REMARK  status: ('A' for Active; 'I' for Inactive)
REMARK    1  A    between atoms: N_4  and  C_5
REMARK    2  A    between atoms: N_13  and  C_14
REMARK                            x       y       z     vdW  Elec       q    Type
REMARK                         _______ _______ _______ _____ _____    ______ ____
ROOT
ATOM      1  O   UNL     1       6.660   5.127  19.806  0.00  0.00    +0.000 OA
ATOM      2  C   UNL     1       6.192   4.765  18.731  0.00  0.00    +0.000 C 
ATOM      3  C   UNL     1       6.979   4.788  17.448  0.00  0.00    +0.000 C 
ATOM      4  N   UNL     1       6.012   4.333  16.473  0.00  0.00    +0.000 N 
ATOM      5  C   UNL     1       4.793   3.971  17.111  0.00  0.00    +0.000 C 
ATOM      6  S   UNL     1       3.519   3.114  16.426  0.00  0.00    +0.000 S 
ATOM      7  N   UNL     1       4.924   4.303  18.461  0.00  0.00    +0.000 N 
ENDROOT
BRANCH   4   8
ATOM      8  C   UNL     1       6.348   4.321  15.092  0.00  0.00    +0.000 A 
ATOM      9  C   UNL     1       7.379   5.144  14.611  0.00  0.00    +0.000 A 
ATOM     10  C   UNL     1       7.718   5.163  13.254  0.00  0.00    +0.000 A 
ATOM     11  C   UNL     1       7.015   4.373  12.350  0.00  0.00    +0.000 A 
ATOM     12  C   UNL     1       5.976   3.568  12.805  0.00  0.00    +0.000 A 
ATOM     13  C   UNL     1       5.642   3.548  14.162  0.00  0.00    +0.000 A 
ENDBRANCH   4   8
BRANCH   7  14
ATOM     14  C   UNL     1       3.949   4.149  19.476  0.00  0.00    +0.000 A 
ATOM     15  C   UNL     1       3.787   2.924  20.139  0.00  0.00    +0.000 A 
ATOM     16  C   UNL     1       2.801   2.772  21.117  0.00  0.00    +0.000 A 
ATOM     17  C   UNL     1       1.984   3.846  21.457  0.00  0.00    +0.000 A 
ATOM     18  C   UNL     1       2.137   5.070  20.809  0.00  0.00    +0.000 A 
ATOM     19  C   UNL     1       3.103   5.215  19.811  0.00  0.00    +0.000 A 
ENDBRANCH   7  14
TORSDOF 2
ENDMDL
MODEL 2
REMARK VINA RESULT:      -6.9      0.033      1.107
REMARK  Name = 
REMARK  2 active torsions:
REMARK  status: ('A' for Active; 'I' for Inactive)
REMARK    1  A    between atoms: N_4  and  C_5
REMARK    2  A    between atoms: N_13  and  C_14
REMARK                            x       y       z     vdW  Elec       q    Type
REMARK                         _______ _______ _______ _____ _____    ______ ____
ROOT
ATOM      1  O   UNL     1       6.608   5.154  19.805  0.00  0.00    +0.000 OA
ATOM      2  C   UNL     1       6.153   4.782  18.729  0.00  0.00    +0.000 C 
ATOM      3  C   UNL     1       6.950   4.811  17.451  0.00  0.00    +0.000 C 
ATOM      4  N   UNL     1       5.996   4.339  16.471  0.00  0.00    +0.000 N 
ATOM      5  C   UNL     1       4.777   3.963  17.101  0.00  0.00    +0.000 C 
ATOM      6  S   UNL     1       3.521   3.086  16.410  0.00  0.00    +0.000 S 
ATOM      7  N   UNL     1       4.893   4.303  18.451  0.00  0.00    +0.000 N 
ENDROOT
BRANCH   4   8
ATOM      8  C   UNL     1       6.343   4.327  15.093  0.00  0.00    +0.000 A 
ATOM      9  C   UNL     1       7.380   5.148  14.620  0.00  0.00    +0.000 A 
ATOM     10  C   UNL     1       7.729   5.165  13.266  0.00  0.00    +0.000 A 
ATOM     11  C   UNL     1       7.032   4.376  12.356  0.00  0.00    +0.000 A 
ATOM     12  C   UNL     1       5.988   3.574  12.803  0.00  0.00    +0.000 A 
ATOM     13  C   UNL     1       5.643   3.554  14.157  0.00  0.00    +0.000 A 
ENDBRANCH   4   8
BRANCH   7  14
ATOM     14  C   UNL     1       3.913   4.139  19.459  0.00  0.00    +0.000 A 
ATOM     15  C   UNL     1       3.074   5.199  19.828  0.00  0.00    +0.000 A 
ATOM     16  C   UNL     1       2.131   5.037  20.846  0.00  0.00    +0.000 A 
ATOM     17  C   UNL     1       2.004   3.809  21.490  0.00  0.00    +0.000 A 
ATOM     18  C   UNL     1       2.829   2.746  21.130  0.00  0.00    +0.000 A 
ATOM     19  C   UNL     1       3.791   2.915  20.133  0.00  0.00    +0.000 A 
ENDBRANCH   7  14
TORSDOF 2
ENDMDL
MODEL 3
REMARK VINA RESULT:      -6.9      0.044      1.103
REMARK  Name = 
REMARK  2 active torsions:
REMARK  status: ('A' for Active; 'I' for Inactive)
REMARK    1  A    between atoms: N_4  and  C_5
REMARK    2  A    between atoms: N_13  and  C_14
REMARK                            x       y       z     vdW  Elec       q    Type
REMARK                         _______ _______ _______ _____ _____    ______ ____
ROOT
ATOM      1  O   UNL     1       6.695   5.100  19.804  0.00  0.00    +0.000 OA
ATOM      2  C   UNL     1       6.217   4.766  18.724  0.00  0.00    +0.000 C 
ATOM      3  C   UNL     1       7.000   4.808  17.438  0.00  0.00    +0.000 C 
ATOM      4  N   UNL     1       6.022   4.385  16.459  0.00  0.00    +0.000 N 
ATOM      5  C   UNL     1       4.802   4.023  17.094  0.00  0.00    +0.000 C 
ATOM      6  S   UNL     1       3.516   3.196  16.397  0.00  0.00    +0.000 S 
ATOM      7  N   UNL     1       4.943   4.326  18.450  0.00  0.00    +0.000 N 
ENDROOT
BRANCH   4   8
ATOM      8  C   UNL     1       6.352   4.398  15.076  0.00  0.00    +0.000 A 
ATOM      9  C   UNL     1       5.662   3.567  14.179  0.00  0.00    +0.000 A 
ATOM     10  C   UNL     1       5.979   3.551  12.817  0.00  0.00    +0.000 A 
ATOM     11  C   UNL     1       7.007   4.351  12.331  0.00  0.00    +0.000 A 
ATOM     12  C   UNL     1       7.717   5.164  13.209  0.00  0.00    +0.000 A 
ATOM     13  C   UNL     1       7.396   5.183  14.568  0.00  0.00    +0.000 A 
ENDBRANCH   4   8
BRANCH   7  14
ATOM     14  C   UNL     1       3.971   4.162  19.466  0.00  0.00    +0.000 A 
ATOM     15  C   UNL     1       3.812   2.931  20.120  0.00  0.00    +0.000 A 
ATOM     16  C   UNL     1       2.828   2.770  21.099  0.00  0.00    +0.000 A 
ATOM     17  C   UNL     1       2.010   3.840  21.449  0.00  0.00    +0.000 A 
ATOM     18  C   UNL     1       2.160   5.069  20.811  0.00  0.00    +0.000 A 
ATOM     19  C   UNL     1       3.123   5.223  19.811  0.00  0.00    +0.000 A 
ENDBRANCH   7  14
TORSDOF 2
ENDMDL
MODEL 4
REMARK VINA RESULT:      -6.8      0.055      1.563
REMARK  Name = 
REMARK  2 active torsions:
REMARK  status: ('A' for Active; 'I' for Inactive)
REMARK    1  A    between atoms: N_4  and  C_5
REMARK    2  A    between atoms: N_13  and  C_14
REMARK                            x       y       z     vdW  Elec       q    Type
REMARK                         _______ _______ _______ _____ _____    ______ ____
ROOT
ATOM      1  O   UNL     1       6.635   5.134  19.786  0.00  0.00    +0.000 OA
ATOM      2  C   UNL     1       6.170   4.783  18.706  0.00  0.00    +0.000 C 
ATOM      3  C   UNL     1       6.958   4.833  17.424  0.00  0.00    +0.000 C 
ATOM      4  N   UNL     1       5.995   4.383  16.442  0.00  0.00    +0.000 N 
ATOM      5  C   UNL     1       4.779   4.000  17.073  0.00  0.00    +0.000 C 
ATOM      6  S   UNL     1       3.514   3.142  16.375  0.00  0.00    +0.000 S 
ATOM      7  N   UNL     1       4.907   4.314  18.428  0.00  0.00    +0.000 N 
ENDROOT
BRANCH   4   8
ATOM      8  C   UNL     1       6.332   4.395  15.061  0.00  0.00    +0.000 A 
ATOM      9  C   UNL     1       5.638   3.571  14.160  0.00  0.00    +0.000 A 
ATOM     10  C   UNL     1       5.961   3.553  12.799  0.00  0.00    +0.000 A 
ATOM     11  C   UNL     1       7.000   4.344  12.320  0.00  0.00    +0.000 A 
ATOM     12  C   UNL     1       7.713   5.149  13.201  0.00  0.00    +0.000 A 
ATOM     13  C   UNL     1       7.385   5.170  14.559  0.00  0.00    +0.000 A 
ENDBRANCH   4   8
BRANCH   7  14
ATOM     14  C   UNL     1       3.933   4.136  19.441  0.00  0.00    +0.000 A 
ATOM     15  C   UNL     1       3.093   5.190  19.827  0.00  0.00    +0.000 A 
ATOM     16  C   UNL     1       2.157   5.012  20.849  0.00  0.00    +0.000 A 
ATOM     17  C   UNL     1       2.037   3.777  21.479  0.00  0.00    +0.000 A 
ATOM     18  C   UNL     1       2.862   2.720  21.102  0.00  0.00    +0.000 A 
ATOM     19  C   UNL     1       3.818   2.904  20.101  0.00  0.00    +0.000 A 
ENDBRANCH   7  14
TORSDOF 2
ENDMDL
MODEL 5
REMARK VINA RESULT:      -6.5      1.690      2.163
REMARK  Name = 
REMARK  2 active torsions:
REMARK  status: ('A' for Active; 'I' for Inactive)
REMARK    1  A    between atoms: N_4  and  C_5
REMARK    2  A    between atoms: N_13  and  C_14
REMARK                            x       y       z     vdW  Elec       q    Type
REMARK                         _______ _______ _______ _____ _____    ______ ____
ROOT
ATOM      1  O   UNL     1       3.450   7.388  18.084  0.00  0.00    +0.000 OA
ATOM      2  C   UNL     1       3.885   6.408  17.488  0.00  0.00    +0.000 C 
ATOM      3  C   UNL     1       4.811   6.516  16.305  0.00  0.00    +0.000 C 
ATOM      4  N   UNL     1       4.999   5.133  15.922  0.00  0.00    +0.000 N 
ATOM      5  C   UNL     1       4.341   4.267  16.838  0.00  0.00    +0.000 C 
ATOM      6  S   UNL     1       4.542   2.603  16.965  0.00  0.00    +0.000 S 
ATOM      7  N   UNL     1       3.633   5.076  17.729  0.00  0.00    +0.000 N 
ENDROOT
BRANCH   4   8
ATOM      8  C   UNL     1       5.741   4.817  14.751  0.00  0.00    +0.000 A 
ATOM      9  C   UNL     1       5.209   3.931  13.799  0.00  0.00    +0.000 A 
ATOM     10  C   UNL     1       5.927   3.592  12.647  0.00  0.00    +0.000 A 
ATOM     11  C   UNL     1       7.198   4.116  12.438  0.00  0.00    +0.000 A 
ATOM     12  C   UNL     1       7.749   4.977  13.381  0.00  0.00    +0.000 A 
ATOM     13  C   UNL     1       7.029   5.319  14.529  0.00  0.00    +0.000 A 
ENDBRANCH   4   8
BRANCH   7  14
ATOM     14  C   UNL     1       2.807   4.650  18.797  0.00  0.00    +0.000 A 
ATOM     15  C   UNL     1       3.195   4.847  20.131  0.00  0.00    +0.000 A 
ATOM     16  C   UNL     1       2.388   4.394  21.178  0.00  0.00    +0.000 A 
ATOM     17  C   UNL     1       1.179   3.761  20.903  0.00  0.00    +0.000 A 
ATOM     18  C   UNL     1       0.780   3.564  19.584  0.00  0.00    +0.000 A 
ATOM     19  C   UNL     1       1.599   3.990  18.536  0.00  0.00    +0.000 A 
ENDBRANCH   7  14
TORSDOF 2
ENDMDL
MODEL 6
REMARK VINA RESULT:      -6.5      1.615      1.727
REMARK  Name = 
REMARK  2 active torsions:
REMARK  status: ('A' for Active; 'I' for Inactive)
REMARK    1  A    between atoms: N_4  and  C_5
REMARK    2  A    between atoms: N_13  and  C_14
REMARK                            x       y       z     vdW  Elec       q    Type
REMARK                         _______ _______ _______ _____ _____    ______ ____
ROOT
ATOM      1  O   UNL     1       3.483   6.983  18.272  0.00  0.00    +0.000 OA
ATOM      2  C   UNL     1       3.894   6.029  17.617  0.00  0.00    +0.000 C 
ATOM      3  C   UNL     1       4.802   6.188  16.426  0.00  0.00    +0.000 C 
ATOM      4  N   UNL     1       4.964   4.825  15.968  0.00  0.00    +0.000 N 
ATOM      5  C   UNL     1       4.308   3.920  16.848  0.00  0.00    +0.000 C 
ATOM      6  S   UNL     1       4.486   2.249  16.883  0.00  0.00    +0.000 S 
ATOM      7  N   UNL     1       3.626   4.691  17.792  0.00  0.00    +0.000 N 
ENDROOT
BRANCH   4   8
ATOM      8  C   UNL     1       5.682   4.560  14.770  0.00  0.00    +0.000 A 
ATOM      9  C   UNL     1       6.960   5.111  14.579  0.00  0.00    +0.000 A 
ATOM     10  C   UNL     1       7.680   4.878  13.402  0.00  0.00    +0.000 A 
ATOM     11  C   UNL     1       7.124   4.108  12.387  0.00  0.00    +0.000 A 
ATOM     12  C   UNL     1       5.851   3.573  12.549  0.00  0.00    +0.000 A 
ATOM     13  C   UNL     1       5.135   3.802  13.727  0.00  0.00    +0.000 A 
ENDBRANCH   4   8
BRANCH   7  14
ATOM     14  C   UNL     1       2.812   4.220  18.850  0.00  0.00    +0.000 A 
ATOM     15  C   UNL     1       3.332   4.054  20.141  0.00  0.00    +0.000 A 
ATOM     16  C   UNL     1       2.528   3.559  21.171  0.00  0.00    +0.000 A 
ATOM     17  C   UNL     1       1.194   3.246  20.926  0.00  0.00    +0.000 A 
ATOM     18  C   UNL     1       0.663   3.411  19.649  0.00  0.00    +0.000 A 
ATOM     19  C   UNL     1       1.473   3.878  18.612  0.00  0.00    +0.000 A 
ENDBRANCH   7  14
TORSDOF 2
ENDMDL
MODEL 7
REMARK VINA RESULT:      -6.4      1.649      2.126
REMARK  Name = 
REMARK  2 active torsions:
REMARK  status: ('A' for Active; 'I' for Inactive)
REMARK    1  A    between atoms: N_4  and  C_5
REMARK    2  A    between atoms: N_13  and  C_14
REMARK                            x       y       z     vdW  Elec       q    Type
REMARK                         _______ _______ _______ _____ _____    ______ ____
ROOT
ATOM      1  O   UNL     1       3.415   7.134  18.254  0.00  0.00    +0.000 OA
ATOM      2  C   UNL     1       3.856   6.185  17.613  0.00  0.00    +0.000 C 
ATOM      3  C   UNL     1       4.776   6.353  16.433  0.00  0.00    +0.000 C 
ATOM      4  N   UNL     1       4.974   4.991  15.989  0.00  0.00    +0.000 N 
ATOM      5  C   UNL     1       4.327   4.078  16.868  0.00  0.00    +0.000 C 
ATOM      6  S   UNL     1       4.541   2.413  16.919  0.00  0.00    +0.000 S 
ATOM      7  N   UNL     1       3.615   4.842  17.796  0.00  0.00    +0.000 N 
ENDROOT
BRANCH   4   8
ATOM      8  C   UNL     1       5.713   4.732  14.802  0.00  0.00    +0.000 A 
ATOM      9  C   UNL     1       5.191   3.874  13.820  0.00  0.00    +0.000 A 
ATOM     10  C   UNL     1       5.907   3.592  12.652  0.00  0.00    +0.000 A 
ATOM     11  C   UNL     1       7.167   4.146  12.455  0.00  0.00    +0.000 A 
ATOM     12  C   UNL     1       7.710   4.980  13.428  0.00  0.00    +0.000 A 
ATOM     13  C   UNL     1       6.991   5.265  14.592  0.00  0.00    +0.000 A 
ENDBRANCH   4   8
BRANCH   7  14
ATOM     14  C   UNL     1       2.797   4.363  18.847  0.00  0.00    +0.000 A 
ATOM     15  C   UNL     1       1.484   3.937  18.602  0.00  0.00    +0.000 A 
ATOM     16  C   UNL     1       0.674   3.495  19.652  0.00  0.00    +0.000 A 
ATOM     17  C   UNL     1       1.175   3.455  20.950  0.00  0.00    +0.000 A 
ATOM     18  C   UNL     1       2.480   3.870  21.207  0.00  0.00    +0.000 A 
ATOM     19  C   UNL     1       3.280   4.340  20.163  0.00  0.00    +0.000 A 
ENDBRANCH   7  14
TORSDOF 2
ENDMDL
MODEL 8
REMARK VINA RESULT:      -6.2      4.443      7.636
REMARK  Name = 
REMARK  2 active torsions:
REMARK  status: ('A' for Active; 'I' for Inactive)
REMARK    1  A    between atoms: N_4  and  C_5
REMARK    2  A    between atoms: N_13  and  C_14
REMARK                            x       y       z     vdW  Elec       q    Type
REMARK                         _______ _______ _______ _____ _____    ______ ____
ROOT
ATOM      1  O   UNL     1       2.032   5.164  21.204  0.00  0.00    +0.000 OA
ATOM      2  C   UNL     1       1.919   6.216  20.582  0.00  0.00    +0.000 C 
ATOM      3  C   UNL     1       1.214   7.424  21.141  0.00  0.00    +0.000 C 
ATOM      4  N   UNL     1       1.293   8.370  20.049  0.00  0.00    +0.000 N 
ATOM      5  C   UNL     1       2.056   7.833  18.975  0.00  0.00    +0.000 C 
ATOM      6  S   UNL     1       2.658   8.678  17.653  0.00  0.00    +0.000 S 
ATOM      7  N   UNL     1       2.362   6.513  19.313  0.00  0.00    +0.000 N 
ENDROOT
BRANCH   4   8
ATOM      8  C   UNL     1       0.630   9.624  20.149  0.00  0.00    +0.000 A 
ATOM      9  C   UNL     1       0.826  10.436  21.278  0.00  0.00    +0.000 A 
ATOM     10  C   UNL     1       0.174  11.666  21.407  0.00  0.00    +0.000 A 
ATOM     11  C   UNL     1      -0.703  12.097  20.417  0.00  0.00    +0.000 A 
ATOM     12  C   UNL     1      -0.927  11.296  19.302  0.00  0.00    +0.000 A 
ATOM     13  C   UNL     1      -0.270  10.069  19.173  0.00  0.00    +0.000 A 
ENDBRANCH   4   8
BRANCH   7  14
ATOM     14  C   UNL     1       3.084   5.578  18.532  0.00  0.00    +0.000 A 
ATOM     15  C   UNL     1       2.418   4.605  17.774  0.00  0.00    +0.000 A 
ATOM     16  C   UNL     1       3.140   3.667  17.032  0.00  0.00    +0.000 A 
ATOM     17  C   UNL     1       4.532   3.706  17.023  0.00  0.00    +0.000 A 
ATOM     18  C   UNL     1       5.206   4.671  17.768  0.00  0.00    +0.000 A 
ATOM     19  C   UNL     1       4.486   5.590  18.534  0.00  0.00    +0.000 A 
ENDBRANCH   7  14
TORSDOF 2
ENDMDL
MODEL 9
REMARK VINA RESULT:      -6.1      4.370      7.609
REMARK  Name = 
REMARK  2 active torsions:
REMARK  status: ('A' for Active; 'I' for Inactive)
REMARK    1  A    between atoms: N_4  and  C_5
REMARK    2  A    between atoms: N_13  and  C_14
REMARK                            x       y       z     vdW  Elec       q    Type
REMARK                         _______ _______ _______ _____ _____    ______ ____
ROOT
ATOM      1  O   UNL     1       2.054   5.057  21.213  0.00  0.00    +0.000 OA
ATOM      2  C   UNL     1       1.948   6.114  20.598  0.00  0.00    +0.000 C 
ATOM      3  C   UNL     1       1.243   7.319  21.161  0.00  0.00    +0.000 C 
ATOM      4  N   UNL     1       1.331   8.273  20.077  0.00  0.00    +0.000 N 
ATOM      5  C   UNL     1       2.100   7.742  19.004  0.00  0.00    +0.000 C 
ATOM      6  S   UNL     1       2.713   8.595  17.692  0.00  0.00    +0.000 S 
ATOM      7  N   UNL     1       2.400   6.418  19.334  0.00  0.00    +0.000 N 
ENDROOT
BRANCH   4   8
ATOM      8  C   UNL     1       0.672   9.529  20.182  0.00  0.00    +0.000 A 
ATOM      9  C   UNL     1       0.701  10.240  21.393  0.00  0.00    +0.000 A 
ATOM     10  C   UNL     1       0.048  11.470  21.526  0.00  0.00    +0.000 A 
ATOM     11  C   UNL     1      -0.665  11.999  20.455  0.00  0.00    +0.000 A 
ATOM     12  C   UNL     1      -0.724  11.297  19.256  0.00  0.00    +0.000 A 
ATOM     13  C   UNL     1      -0.066  10.072  19.123  0.00  0.00    +0.000 A 
ENDBRANCH   4   8
BRANCH   7  14
ATOM     14  C   UNL     1       3.124   5.487  18.551  0.00  0.00    +0.000 A 
ATOM     15  C   UNL     1       4.526   5.498  18.531  0.00  0.00    +0.000 A 
ATOM     16  C   UNL     1       5.230   4.596  17.730  0.00  0.00    +0.000 A 
ATOM     17  C   UNL     1       4.543   3.663  16.960  0.00  0.00    +0.000 A 
ATOM     18  C   UNL     1       3.151   3.638  16.974  0.00  0.00    +0.000 A 
ATOM     19  C   UNL     1       2.444   4.558  17.751  0.00  0.00    +0.000 A 
ENDBRANCH   7  14
TORSDOF 2
ENDMDL
