MODEL 1
REMARK VINA RESULT:      -6.3      0.000      0.000
REMARK  Name = 
REMARK  9 active torsions:
REMARK  status: ('A' for Active; 'I' for Inactive)
REMARK    1  A    between atoms: C_1  and  C_2
REMARK    2  A    between atoms: C_2  and  C_3
REMARK    3  A    between atoms: C_3  and  C_22
REMARK    4  A    between atoms: C_4  and  C_5
REMARK    5  A    between atoms: C_5  and  N_6
REMARK    6  A    between atoms: C_9  and  C_10
REMARK    7  A    between atoms: C_15  and  O_16
REMARK    8  A    between atoms: C_20  and  C_21
REMARK    9  A    between atoms: C_22  and  C_23
REMARK                            x       y       z     vdW  Elec       q    Type
REMARK                         _______ _______ _______ _____ _____    ______ ____
ROOT
ATOM      1  N   UNL     1       0.116  10.556  18.716  0.00  0.00    +0.000 NA
ATOM      2  C   UNL     1       0.728  11.883  18.984  0.00  0.00    +0.000 C 
ATOM      3  C   UNL     1       0.120  12.625  20.148  0.00  0.00    +0.000 A 
ATOM      4  C   UNL     1      -0.362  13.942  20.116  0.00  0.00    +0.000 A 
ATOM      5  C   UNL     1      -0.106  14.876  18.967  0.00  0.00    +0.000 C 
ATOM      6  N   UNL     1      -1.134  14.483  21.105  0.00  0.00    +0.000 NA
ATOM      7  C   UNL     1      -1.503  13.737  22.181  0.00  0.00    +0.000 A 
ATOM      8  C   UNL     1      -1.013  12.443  22.328  0.00  0.00    +0.000 A 
ATOM      9  N   UNL     1      -1.279  11.466  23.277  0.00  0.00    +0.000 NA
ATOM     10  C   UNL     1      -0.610  10.419  22.866  0.00  0.00    +0.000 A 
ATOM     11  N   UNL     1       0.129  10.676  21.747  0.00  0.00    +0.000 N 
ATOM     12  C   UNL     1      -0.171  11.951  21.346  0.00  0.00    +0.000 A 
ATOM     13  C   UNL     1       1.044   9.807  21.050  0.00  0.00    +0.000 C 
ATOM     14  C   UNL     1       0.618   9.464  19.600  0.00  0.00    +0.000 C 
ATOM     15  C   UNL     1       1.796   8.793  18.879  0.00  0.00    +0.000 C 
ENDROOT
BRANCH  10  16
ATOM     16  O   UNL     1      -0.673   9.251  23.465  0.00  0.00    +0.000 OA
ATOM     17  H   UNL     1      -0.526   9.500  24.393  0.00  0.00    +0.000 HD
ENDBRANCH  10  16
BRANCH   1  18
ATOM     18  C   UNL     1      -1.362  10.565  18.736  0.00  0.00    +0.000 C 
BRANCH  18  20
ATOM     19  C   UNL     1      -3.320  10.778  17.124  0.00  0.00    +0.000 C 
ATOM     20  C   UNL     1      -2.070  10.362  17.433  0.00  0.00    +0.000 C 
BRANCH  19  22
ATOM     21  C   UNL     1      -5.693  10.938  18.356  0.00  0.00    +0.000 C 
ATOM     22  C   UNL     1      -4.314  11.504  18.037  0.00  0.00    +0.000 C 
ENDBRANCH  19  22
BRANCH  19  23
ATOM     23  C   UNL     1      -3.923  10.557  15.736  0.00  0.00    +0.000 C 
ATOM     24  C   UNL     1      -2.985  10.180  14.593  0.00  0.00    +0.000 C 
ENDBRANCH  19  23
ENDBRANCH  18  20
ENDBRANCH   1  18
TORSDOF 5
ENDMDL
MODEL 2
REMARK VINA RESULT:      -6.3      6.918      9.999
REMARK  Name = 
REMARK  9 active torsions:
REMARK  status: ('A' for Active; 'I' for Inactive)
REMARK    1  A    between atoms: C_1  and  C_2
REMARK    2  A    between atoms: C_2  and  C_3
REMARK    3  A    between atoms: C_3  and  C_22
REMARK    4  A    between atoms: C_4  and  C_5
REMARK    5  A    between atoms: C_5  and  N_6
REMARK    6  A    between atoms: C_9  and  C_10
REMARK    7  A    between atoms: C_15  and  O_16
REMARK    8  A    between atoms: C_20  and  C_21
REMARK    9  A    between atoms: C_22  and  C_23
REMARK                            x       y       z     vdW  Elec       q    Type
REMARK                         _______ _______ _______ _____ _____    ______ ____
ROOT
ATOM      1  N   UNL     1       6.109   5.858  17.501  0.00  0.00    +0.000 NA
ATOM      2  C   UNL     1       5.007   6.642  18.117  0.00  0.00    +0.000 C 
ATOM      3  C   UNL     1       3.729   5.867  18.317  0.00  0.00    +0.000 A 
ATOM      4  C   UNL     1       2.457   6.265  17.880  0.00  0.00    +0.000 A 
ATOM      5  C   UNL     1       2.165   7.647  17.366  0.00  0.00    +0.000 C 
ATOM      6  N   UNL     1       1.378   5.426  17.849  0.00  0.00    +0.000 NA
ATOM      7  C   UNL     1       1.503   4.124  18.223  0.00  0.00    +0.000 A 
ATOM      8  C   UNL     1       2.712   3.663  18.736  0.00  0.00    +0.000 A 
ATOM      9  N   UNL     1       3.118   2.394  19.121  0.00  0.00    +0.000 NA
ATOM     10  C   UNL     1       4.381   2.534  19.433  0.00  0.00    +0.000 A 
ATOM     11  N   UNL     1       4.802   3.829  19.339  0.00  0.00    +0.000 N 
ATOM     12  C   UNL     1       3.763   4.559  18.826  0.00  0.00    +0.000 A 
ATOM     13  C   UNL     1       6.091   4.385  19.669  0.00  0.00    +0.000 C 
ATOM     14  C   UNL     1       6.852   4.992  18.463  0.00  0.00    +0.000 C 
ATOM     15  C   UNL     1       8.048   5.802  18.983  0.00  0.00    +0.000 C 
ENDROOT
BRANCH  10  16
ATOM     16  O   UNL     1       5.149   1.523  19.774  0.00  0.00    +0.000 OA
ATOM     17  H   UNL     1       4.506   0.795  19.809  0.00  0.00    +0.000 HD
ENDBRANCH  10  16
BRANCH   1  18
ATOM     18  C   UNL     1       5.689   5.052  16.336  0.00  0.00    +0.000 C 
BRANCH  18  20
ATOM     19  C   UNL     1       6.377   4.432  13.965  0.00  0.00    +0.000 C 
ATOM     20  C   UNL     1       6.640   4.960  15.183  0.00  0.00    +0.000 C 
BRANCH  19  22
ATOM     21  C   UNL     1       4.817   3.426  12.034  0.00  0.00    +0.000 C 
ATOM     22  C   UNL     1       5.079   3.767  13.496  0.00  0.00    +0.000 C 
ENDBRANCH  19  22
BRANCH  19  23
ATOM     23  C   UNL     1       7.417   4.439  12.843  0.00  0.00    +0.000 C 
ATOM     24  C   UNL     1       8.176   5.733  12.571  0.00  0.00    +0.000 C 
ENDBRANCH  19  23
ENDBRANCH  18  20
ENDBRANCH   1  18
TORSDOF 5
ENDMDL
MODEL 3
REMARK VINA RESULT:      -6.3      6.140      9.512
REMARK  Name = 
REMARK  9 active torsions:
REMARK  status: ('A' for Active; 'I' for Inactive)
REMARK    1  A    between atoms: C_1  and  C_2
REMARK    2  A    between atoms: C_2  and  C_3
REMARK    3  A    between atoms: C_3  and  C_22
REMARK    4  A    between atoms: C_4  and  C_5
REMARK    5  A    between atoms: C_5  and  N_6
REMARK    6  A    between atoms: C_9  and  C_10
REMARK    7  A    between atoms: C_15  and  O_16
REMARK    8  A    between atoms: C_20  and  C_21
REMARK    9  A    between atoms: C_22  and  C_23
REMARK                            x       y       z     vdW  Elec       q    Type
REMARK                         _______ _______ _______ _____ _____    ______ ____
ROOT
ATOM      1  N   UNL     1       3.319   4.213  17.948  0.00  0.00    +0.000 NA
ATOM      2  C   UNL     1       4.010   3.543  16.816  0.00  0.00    +0.000 C 
ATOM      3  C   UNL     1       5.285   4.218  16.378  0.00  0.00    +0.000 A 
ATOM      4  C   UNL     1       5.596   4.602  15.065  0.00  0.00    +0.000 A 
ATOM      5  C   UNL     1       4.792   4.162  13.874  0.00  0.00    +0.000 C 
ATOM      6  N   UNL     1       6.633   5.436  14.753  0.00  0.00    +0.000 NA
ATOM      7  C   UNL     1       7.413   5.967  15.733  0.00  0.00    +0.000 A 
ATOM      8  C   UNL     1       7.218   5.585  17.057  0.00  0.00    +0.000 A 
ATOM      9  N   UNL     1       7.818   6.016  18.232  0.00  0.00    +0.000 NA
ATOM     10  C   UNL     1       7.177   5.381  19.179  0.00  0.00    +0.000 A 
ATOM     11  N   UNL     1       6.246   4.512  18.690  0.00  0.00    +0.000 N 
ATOM     12  C   UNL     1       6.208   4.679  17.331  0.00  0.00    +0.000 A 
ATOM     13  C   UNL     1       5.403   3.591  19.411  0.00  0.00    +0.000 C 
ATOM     14  C   UNL     1       3.886   3.883  19.289  0.00  0.00    +0.000 C 
ATOM     15  C   UNL     1       3.101   2.684  19.839  0.00  0.00    +0.000 C 
ENDROOT
BRANCH  10  16
ATOM     16  O   UNL     1       7.405   5.587  20.457  0.00  0.00    +0.000 OA
ATOM     17  H   UNL     1       7.999   6.356  20.427  0.00  0.00    +0.000 HD
ENDBRANCH  10  16
BRANCH   1  18
ATOM     18  C   UNL     1       3.221   5.680  17.803  0.00  0.00    +0.000 C 
BRANCH  18  20
ATOM     19  C   UNL     1       2.246   7.674  19.049  0.00  0.00    +0.000 C 
ATOM     20  C   UNL     1       2.862   6.470  19.024  0.00  0.00    +0.000 C 
BRANCH  19  22
ATOM     21  C   UNL     1       1.488  10.012  17.982  0.00  0.00    +0.000 C 
ATOM     22  C   UNL     1       1.817   8.529  17.852  0.00  0.00    +0.000 C 
ENDBRANCH  19  22
BRANCH  19  23
ATOM     23  C   UNL     1       1.884   8.366  20.364  0.00  0.00    +0.000 C 
ATOM     24  C   UNL     1       0.638   7.896  21.109  0.00  0.00    +0.000 C 
ENDBRANCH  19  23
ENDBRANCH  18  20
ENDBRANCH   1  18
TORSDOF 5
ENDMDL
MODEL 4
REMARK VINA RESULT:      -6.1      1.974      4.186
REMARK  Name = 
REMARK  9 active torsions:
REMARK  status: ('A' for Active; 'I' for Inactive)
REMARK    1  A    between atoms: C_1  and  C_2
REMARK    2  A    between atoms: C_2  and  C_3
REMARK    3  A    between atoms: C_3  and  C_22
REMARK    4  A    between atoms: C_4  and  C_5
REMARK    5  A    between atoms: C_5  and  N_6
REMARK    6  A    between atoms: C_9  and  C_10
REMARK    7  A    between atoms: C_15  and  O_16
REMARK    8  A    between atoms: C_20  and  C_21
REMARK    9  A    between atoms: C_22  and  C_23
REMARK                            x       y       z     vdW  Elec       q    Type
REMARK                         _______ _______ _______ _____ _____    ______ ____
ROOT
ATOM      1  N   UNL     1      -1.277  12.806  19.543  0.00  0.00    +0.000 NA
ATOM      2  C   UNL     1      -0.766  12.611  20.925  0.00  0.00    +0.000 C 
ATOM      3  C   UNL     1      -0.203  11.238  21.192  0.00  0.00    +0.000 A 
ATOM      4  C   UNL     1      -0.569  10.398  22.254  0.00  0.00    +0.000 A 
ATOM      5  C   UNL     1      -1.402  10.865  23.415  0.00  0.00    +0.000 C 
ATOM      6  N   UNL     1      -0.234   9.074  22.314  0.00  0.00    +0.000 NA
ATOM      7  C   UNL     1       0.464   8.491  21.303  0.00  0.00    +0.000 A 
ATOM      8  C   UNL     1       0.928   9.266  20.243  0.00  0.00    +0.000 A 
ATOM      9  N   UNL     1       1.593   8.917  19.077  0.00  0.00    +0.000 NA
ATOM     10  C   UNL     1       1.693  10.038  18.409  0.00  0.00    +0.000 A 
ATOM     11  N   UNL     1       1.196  11.105  19.100  0.00  0.00    +0.000 N 
ATOM     12  C   UNL     1       0.636  10.619  20.252  0.00  0.00    +0.000 A 
ATOM     13  C   UNL     1       1.196  12.499  18.731  0.00  0.00    +0.000 C 
ATOM     14  C   UNL     1      -0.216  13.108  18.539  0.00  0.00    +0.000 C 
ATOM     15  C   UNL     1      -0.092  14.636  18.446  0.00  0.00    +0.000 C 
ENDROOT
BRANCH  10  16
ATOM     16  O   UNL     1       2.199  10.106  17.198  0.00  0.00    +0.000 OA
ATOM     17  H   UNL     1       1.401  10.256  16.662  0.00  0.00    +0.000 HD
ENDBRANCH  10  16
BRANCH   1  18
ATOM     18  C   UNL     1      -2.114  11.691  19.053  0.00  0.00    +0.000 C 
BRANCH  18  20
ATOM     19  C   UNL     1      -4.240  11.455  17.674  0.00  0.00    +0.000 C 
ATOM     20  C   UNL     1      -3.533  12.003  18.689  0.00  0.00    +0.000 C 
BRANCH  19  22
ATOM     21  C   UNL     1      -3.139  10.852  15.307  0.00  0.00    +0.000 C 
ATOM     22  C   UNL     1      -3.752  10.435  16.639  0.00  0.00    +0.000 C 
ENDBRANCH  19  22
BRANCH  19  23
ATOM     23  C   UNL     1      -5.706  11.816  17.427  0.00  0.00    +0.000 C 
ATOM     24  C   UNL     1      -6.772  11.127  18.273  0.00  0.00    +0.000 C 
ENDBRANCH  19  23
ENDBRANCH  18  20
ENDBRANCH   1  18
TORSDOF 5
ENDMDL
MODEL 5
REMARK VINA RESULT:      -6.0      1.508      2.425
REMARK  Name = 
REMARK  9 active torsions:
REMARK  status: ('A' for Active; 'I' for Inactive)
REMARK    1  A    between atoms: C_1  and  C_2
REMARK    2  A    between atoms: C_2  and  C_3
REMARK    3  A    between atoms: C_3  and  C_22
REMARK    4  A    between atoms: C_4  and  C_5
REMARK    5  A    between atoms: C_5  and  N_6
REMARK    6  A    between atoms: C_9  and  C_10
REMARK    7  A    between atoms: C_15  and  O_16
REMARK    8  A    between atoms: C_20  and  C_21
REMARK    9  A    between atoms: C_22  and  C_23
REMARK                            x       y       z     vdW  Elec       q    Type
REMARK                         _______ _______ _______ _____ _____    ______ ____
ROOT
ATOM      1  N   UNL     1      -0.495  12.195  18.896  0.00  0.00    +0.000 NA
ATOM      2  C   UNL     1      -0.875  13.377  19.714  0.00  0.00    +0.000 C 
ATOM      3  C   UNL     1      -1.460  13.038  21.062  0.00  0.00    +0.000 A 
ATOM      4  C   UNL     1      -2.676  13.519  21.569  0.00  0.00    +0.000 A 
ATOM      5  C   UNL     1      -3.443  14.639  20.924  0.00  0.00    +0.000 C 
ATOM      6  N   UNL     1      -3.291  12.992  22.670  0.00  0.00    +0.000 NA
ATOM      7  C   UNL     1      -2.748  11.930  23.324  0.00  0.00    +0.000 A 
ATOM      8  C   UNL     1      -1.508  11.434  22.931  0.00  0.00    +0.000 A 
ATOM      9  N   UNL     1      -0.776  10.342  23.376  0.00  0.00    +0.000 NA
ATOM     10  C   UNL     1       0.265  10.302  22.585  0.00  0.00    +0.000 A 
ATOM     11  N   UNL     1       0.290  11.340  21.699  0.00  0.00    +0.000 N 
ATOM     12  C   UNL     1      -0.876  12.039  21.859  0.00  0.00    +0.000 A 
ATOM     13  C   UNL     1       1.304  11.675  20.730  0.00  0.00    +0.000 C 
ATOM     14  C   UNL     1       0.827  11.605  19.257  0.00  0.00    +0.000 C 
ATOM     15  C   UNL     1       1.885  12.261  18.358  0.00  0.00    +0.000 C 
ENDROOT
BRANCH  10  16
ATOM     16  O   UNL     1       1.166   9.346  22.638  0.00  0.00    +0.000 OA
ATOM     17  H   UNL     1       0.830   8.726  21.968  0.00  0.00    +0.000 HD
ENDBRANCH  10  16
BRANCH   1  18
ATOM     18  C   UNL     1      -1.520  11.130  18.875  0.00  0.00    +0.000 C 
BRANCH  18  20
ATOM     19  C   UNL     1      -3.391  11.015  17.154  0.00  0.00    +0.000 C 
ATOM     20  C   UNL     1      -2.863  11.478  18.310  0.00  0.00    +0.000 C 
BRANCH  19  22
ATOM     21  C   UNL     1      -3.069  10.124  14.648  0.00  0.00    +0.000 C 
ATOM     22  C   UNL     1      -2.735  10.078  16.135  0.00  0.00    +0.000 C 
ENDBRANCH  19  22
BRANCH  19  23
ATOM     23  C   UNL     1      -4.800  11.403  16.701  0.00  0.00    +0.000 C 
ATOM     24  C   UNL     1      -5.897  11.502  17.758  0.00  0.00    +0.000 C 
ENDBRANCH  19  23
ENDBRANCH  18  20
ENDBRANCH   1  18
TORSDOF 5
ENDMDL
MODEL 6
REMARK VINA RESULT:      -6.0      6.021      9.342
REMARK  Name = 
REMARK  9 active torsions:
REMARK  status: ('A' for Active; 'I' for Inactive)
REMARK    1  A    between atoms: C_1  and  C_2
REMARK    2  A    between atoms: C_2  and  C_3
REMARK    3  A    between atoms: C_3  and  C_22
REMARK    4  A    between atoms: C_4  and  C_5
REMARK    5  A    between atoms: C_5  and  N_6
REMARK    6  A    between atoms: C_9  and  C_10
REMARK    7  A    between atoms: C_15  and  O_16
REMARK    8  A    between atoms: C_20  and  C_21
REMARK    9  A    between atoms: C_22  and  C_23
REMARK                            x       y       z     vdW  Elec       q    Type
REMARK                         _______ _______ _______ _____ _____    ______ ____
ROOT
ATOM      1  N   UNL     1       3.271   5.308  17.969  0.00  0.00    +0.000 NA
ATOM      2  C   UNL     1       3.664   4.262  16.989  0.00  0.00    +0.000 C 
ATOM      3  C   UNL     1       5.095   4.351  16.523  0.00  0.00    +0.000 A 
ATOM      4  C   UNL     1       5.519   4.382  15.186  0.00  0.00    +0.000 A 
ATOM      5  C   UNL     1       4.604   4.079  14.033  0.00  0.00    +0.000 C 
ATOM      6  N   UNL     1       6.787   4.723  14.808  0.00  0.00    +0.000 NA
ATOM      7  C   UNL     1       7.712   5.085  15.738  0.00  0.00    +0.000 A 
ATOM      8  C   UNL     1       7.398   5.016  17.092  0.00  0.00    +0.000 A 
ATOM      9  N   UNL     1       8.120   5.382  18.219  0.00  0.00    +0.000 NA
ATOM     10  C   UNL     1       7.296   5.182  19.215  0.00  0.00    +0.000 A 
ATOM     11  N   UNL     1       6.109   4.643  18.812  0.00  0.00    +0.000 N 
ATOM     12  C   UNL     1       6.128   4.593  17.444  0.00  0.00    +0.000 A 
ATOM     13  C   UNL     1       4.991   4.216  19.618  0.00  0.00    +0.000 C 
ATOM     14  C   UNL     1       3.686   5.014  19.372  0.00  0.00    +0.000 C 
ATOM     15  C   UNL     1       2.519   4.284  20.053  0.00  0.00    +0.000 C 
ENDROOT
BRANCH  10  16
ATOM     16  O   UNL     1       7.590   5.493  20.458  0.00  0.00    +0.000 OA
ATOM     17  H   UNL     1       8.538   5.281  20.492  0.00  0.00    +0.000 HD
ENDBRANCH  10  16
BRANCH   1  18
ATOM     18  C   UNL     1       3.716   6.668  17.600  0.00  0.00    +0.000 C 
BRANCH  18  20
ATOM     19  C   UNL     1       2.008   8.362  18.434  0.00  0.00    +0.000 C 
ATOM     20  C   UNL     1       2.659   7.717  17.438  0.00  0.00    +0.000 C 
BRANCH  19  22
ATOM     21  C   UNL     1       0.968   7.839  20.846  0.00  0.00    +0.000 C 
ATOM     22  C   UNL     1       2.158   8.142  19.942  0.00  0.00    +0.000 C 
ENDBRANCH  19  22
BRANCH  19  23
ATOM     23  C   UNL     1       0.979   9.456  18.146  0.00  0.00    +0.000 C 
ATOM     24  C   UNL     1       1.257  10.864  18.666  0.00  0.00    +0.000 C 
ENDBRANCH  19  23
ENDBRANCH  18  20
ENDBRANCH   1  18
TORSDOF 5
ENDMDL
MODEL 7
REMARK VINA RESULT:      -5.9      1.467      1.936
REMARK  Name = 
REMARK  9 active torsions:
REMARK  status: ('A' for Active; 'I' for Inactive)
REMARK    1  A    between atoms: C_1  and  C_2
REMARK    2  A    between atoms: C_2  and  C_3
REMARK    3  A    between atoms: C_3  and  C_22
REMARK    4  A    between atoms: C_4  and  C_5
REMARK    5  A    between atoms: C_5  and  N_6
REMARK    6  A    between atoms: C_9  and  C_10
REMARK    7  A    between atoms: C_15  and  O_16
REMARK    8  A    between atoms: C_20  and  C_21
REMARK    9  A    between atoms: C_22  and  C_23
REMARK                            x       y       z     vdW  Elec       q    Type
REMARK                         _______ _______ _______ _____ _____    ______ ____
ROOT
ATOM      1  N   UNL     1      -0.601  12.167  18.803  0.00  0.00    +0.000 NA
ATOM      2  C   UNL     1      -1.023  13.363  19.579  0.00  0.00    +0.000 C 
ATOM      3  C   UNL     1      -1.596  13.052  20.938  0.00  0.00    +0.000 A 
ATOM      4  C   UNL     1      -2.829  13.508  21.428  0.00  0.00    +0.000 A 
ATOM      5  C   UNL     1      -3.634  14.577  20.744  0.00  0.00    +0.000 C 
ATOM      6  N   UNL     1      -3.427  12.999  22.547  0.00  0.00    +0.000 NA
ATOM      7  C   UNL     1      -2.848  11.979  23.237  0.00  0.00    +0.000 A 
ATOM      8  C   UNL     1      -1.591  11.514  22.862  0.00  0.00    +0.000 A 
ATOM      9  N   UNL     1      -0.823  10.464  23.345  0.00  0.00    +0.000 NA
ATOM     10  C   UNL     1       0.220  10.432  22.556  0.00  0.00    +0.000 A 
ATOM     11  N   UNL     1       0.211  11.439  21.634  0.00  0.00    +0.000 N 
ATOM     12  C   UNL     1      -0.979  12.103  21.769  0.00  0.00    +0.000 A 
ATOM     13  C   UNL     1       1.214  11.775  20.653  0.00  0.00    +0.000 C 
ATOM     14  C   UNL     1       0.741  11.636  19.185  0.00  0.00    +0.000 C 
ATOM     15  C   UNL     1       1.776  12.297  18.262  0.00  0.00    +0.000 C 
ENDROOT
BRANCH  10  16
ATOM     16  O   UNL     1       1.154   9.510  22.642  0.00  0.00    +0.000 OA
ATOM     17  H   UNL     1       0.628   8.695  22.577  0.00  0.00    +0.000 HD
ENDBRANCH  10  16
BRANCH   1  18
ATOM     18  C   UNL     1      -1.588  11.067  18.819  0.00  0.00    +0.000 C 
BRANCH  18  20
ATOM     19  C   UNL     1      -3.460  10.908  17.102  0.00  0.00    +0.000 C 
ATOM     20  C   UNL     1      -2.192  10.666  17.509  0.00  0.00    +0.000 C 
BRANCH  19  22
ATOM     21  C   UNL     1      -5.711  12.356  17.211  0.00  0.00    +0.000 C 
ATOM     22  C   UNL     1      -4.579  11.595  17.892  0.00  0.00    +0.000 C 
ENDBRANCH  19  22
BRANCH  19  23
ATOM     23  C   UNL     1      -3.953  10.493  15.715  0.00  0.00    +0.000 C 
ATOM     24  C   UNL     1      -2.915  10.124  14.659  0.00  0.00    +0.000 C 
ENDBRANCH  19  23
ENDBRANCH  18  20
ENDBRANCH   1  18
TORSDOF 5
ENDMDL
MODEL 8
REMARK VINA RESULT:      -5.8      1.443      1.775
REMARK  Name = 
REMARK  9 active torsions:
REMARK  status: ('A' for Active; 'I' for Inactive)
REMARK    1  A    between atoms: C_1  and  C_2
REMARK    2  A    between atoms: C_2  and  C_3
REMARK    3  A    between atoms: C_3  and  C_22
REMARK    4  A    between atoms: C_4  and  C_5
REMARK    5  A    between atoms: C_5  and  N_6
REMARK    6  A    between atoms: C_9  and  C_10
REMARK    7  A    between atoms: C_15  and  O_16
REMARK    8  A    between atoms: C_20  and  C_21
REMARK    9  A    between atoms: C_22  and  C_23
REMARK                            x       y       z     vdW  Elec       q    Type
REMARK                         _______ _______ _______ _____ _____    ______ ____
ROOT
ATOM      1  N   UNL     1      -0.044  10.470  19.988  0.00  0.00    +0.000 NA
ATOM      2  C   UNL     1       0.961  11.542  20.210  0.00  0.00    +0.000 C 
ATOM      3  C   UNL     1       0.376  12.860  20.653  0.00  0.00    +0.000 A 
ATOM      4  C   UNL     1       0.619  14.104  20.052  0.00  0.00    +0.000 A 
ATOM      5  C   UNL     1       1.699  14.319  19.029  0.00  0.00    +0.000 C 
ATOM      6  N   UNL     1      -0.123  15.221  20.314  0.00  0.00    +0.000 NA
ATOM      7  C   UNL     1      -1.177  15.167  21.172  0.00  0.00    +0.000 A 
ATOM      8  C   UNL     1      -1.446  13.990  21.865  0.00  0.00    +0.000 A 
ATOM      9  N   UNL     1      -2.477  13.653  22.731  0.00  0.00    +0.000 NA
ATOM     10  C   UNL     1      -2.274  12.390  23.005  0.00  0.00    +0.000 A 
ATOM     11  N   UNL     1      -1.138  11.904  22.427  0.00  0.00    +0.000 N 
ATOM     12  C   UNL     1      -0.628  12.898  21.634  0.00  0.00    +0.000 A 
ATOM     13  C   UNL     1      -0.547  10.595  22.557  0.00  0.00    +0.000 C 
ATOM     14  C   UNL     1      -0.492   9.786  21.237  0.00  0.00    +0.000 C 
ATOM     15  C   UNL     1       0.411   8.561  21.440  0.00  0.00    +0.000 C 
ENDROOT
BRANCH  10  16
ATOM     16  O   UNL     1      -3.099  11.678  23.741  0.00  0.00    +0.000 OA
ATOM     17  H   UNL     1      -3.335  10.961  23.128  0.00  0.00    +0.000 HD
ENDBRANCH  10  16
BRANCH   1  18
ATOM     18  C   UNL     1      -1.226  10.910  19.217  0.00  0.00    +0.000 C 
BRANCH  18  20
ATOM     19  C   UNL     1      -2.604  10.092  17.240  0.00  0.00    +0.000 C 
ATOM     20  C   UNL     1      -1.421  10.316  17.856  0.00  0.00    +0.000 C 
BRANCH  19  22
ATOM     21  C   UNL     1      -4.685  11.709  17.727  0.00  0.00    +0.000 C 
ATOM     22  C   UNL     1      -4.009  10.343  17.797  0.00  0.00    +0.000 C 
ENDBRANCH  19  22
BRANCH  19  23
ATOM     23  C   UNL     1      -2.678   9.525  15.821  0.00  0.00    +0.000 C 
ATOM     24  C   UNL     1      -3.208  10.425  14.709  0.00  0.00    +0.000 C 
ENDBRANCH  19  23
ENDBRANCH  18  20
ENDBRANCH   1  18
TORSDOF 5
ENDMDL
MODEL 9
REMARK VINA RESULT:      -5.8      8.535     10.551
REMARK  Name = 
REMARK  9 active torsions:
REMARK  status: ('A' for Active; 'I' for Inactive)
REMARK    1  A    between atoms: C_1  and  C_2
REMARK    2  A    between atoms: C_2  and  C_3
REMARK    3  A    between atoms: C_3  and  C_22
REMARK    4  A    between atoms: C_4  and  C_5
REMARK    5  A    between atoms: C_5  and  N_6
REMARK    6  A    between atoms: C_9  and  C_10
REMARK    7  A    between atoms: C_15  and  O_16
REMARK    8  A    between atoms: C_20  and  C_21
REMARK    9  A    between atoms: C_22  and  C_23
REMARK                            x       y       z     vdW  Elec       q    Type
REMARK                         _______ _______ _______ _____ _____    ______ ____
ROOT
ATOM      1  N   UNL     1       7.784  15.506  19.442  0.00  0.00    +0.000 NA
ATOM      2  C   UNL     1       8.496  14.975  20.634  0.00  0.00    +0.000 C 
ATOM      3  C   UNL     1       9.167  13.643  20.416  0.00  0.00    +0.000 A 
ATOM      4  C   UNL     1       9.003  12.505  21.220  0.00  0.00    +0.000 A 
ATOM      5  C   UNL     1       8.319  12.542  22.557  0.00  0.00    +0.000 C 
ATOM      6  N   UNL     1       9.416  11.256  20.847  0.00  0.00    +0.000 NA
ATOM      7  C   UNL     1       9.996  11.054  19.633  0.00  0.00    +0.000 A 
ATOM      8  C   UNL     1      10.260  12.138  18.801  0.00  0.00    +0.000 A 
ATOM      9  N   UNL     1      10.772  12.199  17.513  0.00  0.00    +0.000 NA
ATOM     10  C   UNL     1      10.713  13.468  17.198  0.00  0.00    +0.000 A 
ATOM     11  N   UNL     1      10.260  14.242  18.226  0.00  0.00    +0.000 N 
ATOM     12  C   UNL     1       9.898  13.399  19.242  0.00  0.00    +0.000 A 
ATOM     13  C   UNL     1      10.131  15.678  18.286  0.00  0.00    +0.000 C 
ATOM     14  C   UNL     1       8.674  16.180  18.452  0.00  0.00    +0.000 C 
ATOM     15  C   UNL     1       8.699  17.676  18.799  0.00  0.00    +0.000 C 
ENDROOT
BRANCH  10  16
ATOM     16  O   UNL     1      11.038  13.924  16.008  0.00  0.00    +0.000 OA
ATOM     17  H   UNL     1      10.499  14.732  15.957  0.00  0.00    +0.000 HD
ENDBRANCH  10  16
BRANCH   1  18
ATOM     18  C   UNL     1       6.950  14.501  18.749  0.00  0.00    +0.000 C 
BRANCH  18  20
ATOM     19  C   UNL     1       4.531  14.956  18.102  0.00  0.00    +0.000 C 
ATOM     20  C   UNL     1       5.860  15.010  17.857  0.00  0.00    +0.000 C 
BRANCH  19  22
ATOM     21  C   UNL     1       2.569  13.481  19.175  0.00  0.00    +0.000 C 
ATOM     22  C   UNL     1       3.829  14.329  19.311  0.00  0.00    +0.000 C 
ENDBRANCH  19  22
BRANCH  19  23
ATOM     23  C   UNL     1       3.509  15.556  17.135  0.00  0.00    +0.000 C 
ATOM     24  C   UNL     1       2.949  16.942  17.444  0.00  0.00    +0.000 C 
ENDBRANCH  19  23
ENDBRANCH  18  20
ENDBRANCH   1  18
TORSDOF 5
ENDMDL
