MODEL 1
REMARK VINA RESULT:      -7.2      0.000      0.000
REMARK  Name = 
REMARK  2 active torsions:
REMARK  status: ('A' for Active; 'I' for Inactive)
REMARK    1  A    between atoms: N_10  and  C_11
REMARK    2  A    between atoms: C_11  and  C_12
REMARK                            x       y       z     vdW  Elec       q    Type
REMARK                         _______ _______ _______ _____ _____    ______ ____
ROOT
ATOM      1  O   UNL     1       5.629   3.890  19.200  0.00  0.00    +0.000 OA
ATOM      2  C   UNL     1       5.436   4.845  18.465  0.00  0.00    +0.000 A 
ATOM      3  C   UNL     1       6.411   5.935  18.321  0.00  0.00    +0.000 A 
ATOM      4  C   UNL     1       7.624   6.076  18.978  0.00  0.00    +0.000 A 
ATOM      5  C   UNL     1       8.412   7.176  18.640  0.00  0.00    +0.000 A 
ATOM      6  C   UNL     1       7.951   8.063  17.665  0.00  0.00    +0.000 A 
ATOM      7  N   UNL     1       6.768   7.935  17.014  0.00  0.00    +0.000 NA
ATOM      8  C   UNL     1       6.034   6.865  17.371  0.00  0.00    +0.000 A 
ATOM      9  S   UNL     1       4.461   6.460  16.645  0.00  0.00    +0.000 S 
ATOM     10  N   UNL     1       4.351   5.055  17.625  0.00  0.00    +0.000 N 
ENDROOT
BRANCH  10  11
ATOM     11  C   UNL     1       3.360   4.036  17.358  0.00  0.00    +0.000 C 
BRANCH  11  12
ATOM     12  C   UNL     1       2.569   3.620  18.576  0.00  0.00    +0.000 A 
ATOM     13  C   UNL     1       2.560   2.280  18.999  0.00  0.00    +0.000 A 
ATOM     14  C   UNL     1       1.923   1.920  20.187  0.00  0.00    +0.000 A 
ATOM     15  C   UNL     1       1.285   2.893  20.947  0.00  0.00    +0.000 A 
ATOM     16  F   UNL     1       0.711   2.553  22.108  0.00  0.00    +0.000 F 
ATOM     17  C   UNL     1       1.243   4.215  20.523  0.00  0.00    +0.000 A 
ATOM     18  C   UNL     1       1.875   4.578  19.333  0.00  0.00    +0.000 A 
ENDBRANCH  11  12
ENDBRANCH  10  11
TORSDOF 2
ENDMDL
MODEL 2
REMARK VINA RESULT:      -7.2      1.088      1.188
REMARK  Name = 
REMARK  2 active torsions:
REMARK  status: ('A' for Active; 'I' for Inactive)
REMARK    1  A    between atoms: N_10  and  C_11
REMARK    2  A    between atoms: C_11  and  C_12
REMARK                            x       y       z     vdW  Elec       q    Type
REMARK                         _______ _______ _______ _____ _____    ______ ____
ROOT
ATOM      1  O   UNL     1       6.134   3.879  18.822  0.00  0.00    +0.000 OA
ATOM      2  C   UNL     1       5.984   4.817  18.056  0.00  0.00    +0.000 A 
ATOM      3  C   UNL     1       6.804   6.034  18.134  0.00  0.00    +0.000 A 
ATOM      4  C   UNL     1       7.802   6.323  19.051  0.00  0.00    +0.000 A 
ATOM      5  C   UNL     1       8.485   7.529  18.896  0.00  0.00    +0.000 A 
ATOM      6  C   UNL     1       8.141   8.368  17.835  0.00  0.00    +0.000 A 
ATOM      7  N   UNL     1       7.169   8.096  16.930  0.00  0.00    +0.000 NA
ATOM      8  C   UNL     1       6.529   6.926  17.115  0.00  0.00    +0.000 A 
ATOM      9  S   UNL     1       5.237   6.328  16.049  0.00  0.00    +0.000 S 
ATOM     10  N   UNL     1       5.102   4.896  16.987  0.00  0.00    +0.000 N 
ENDROOT
BRANCH  10  11
ATOM     11  C   UNL     1       4.351   3.758  16.506  0.00  0.00    +0.000 C 
BRANCH  11  12
ATOM     12  C   UNL     1       3.174   3.390  17.379  0.00  0.00    +0.000 A 
ATOM     13  C   UNL     1       3.092   2.117  17.968  0.00  0.00    +0.000 A 
ATOM     14  C   UNL     1       2.064   1.820  18.864  0.00  0.00    +0.000 A 
ATOM     15  C   UNL     1       1.112   2.788  19.162  0.00  0.00    +0.000 A 
ATOM     16  F   UNL     1       0.151   2.515  20.055  0.00  0.00    +0.000 F 
ATOM     17  C   UNL     1       1.149   4.037  18.556  0.00  0.00    +0.000 A 
ATOM     18  C   UNL     1       2.173   4.335  17.656  0.00  0.00    +0.000 A 
ENDBRANCH  11  12
ENDBRANCH  10  11
TORSDOF 2
ENDMDL
MODEL 3
REMARK VINA RESULT:      -7.0      1.351      1.851
REMARK  Name = 
REMARK  2 active torsions:
REMARK  status: ('A' for Active; 'I' for Inactive)
REMARK    1  A    between atoms: N_10  and  C_11
REMARK    2  A    between atoms: C_11  and  C_12
REMARK                            x       y       z     vdW  Elec       q    Type
REMARK                         _______ _______ _______ _____ _____    ______ ____
ROOT
ATOM      1  O   UNL     1       6.689   4.072  18.713  0.00  0.00    +0.000 OA
ATOM      2  C   UNL     1       6.351   5.015  18.016  0.00  0.00    +0.000 A 
ATOM      3  C   UNL     1       7.029   6.318  18.076  0.00  0.00    +0.000 A 
ATOM      4  C   UNL     1       8.076   6.689  18.904  0.00  0.00    +0.000 A 
ATOM      5  C   UNL     1       8.595   7.974  18.745  0.00  0.00    +0.000 A 
ATOM      6  C   UNL     1       8.046   8.807  17.768  0.00  0.00    +0.000 A 
ATOM      7  N   UNL     1       7.023   8.456  16.951  0.00  0.00    +0.000 NA
ATOM      8  C   UNL     1       6.546   7.211  17.137  0.00  0.00    +0.000 A 
ATOM      9  S   UNL     1       5.228   6.504  16.174  0.00  0.00    +0.000 S 
ATOM     10  N   UNL     1       5.359   5.030  17.045  0.00  0.00    +0.000 N 
ENDROOT
BRANCH  10  11
ATOM     11  C   UNL     1       4.700   3.830  16.582  0.00  0.00    +0.000 C 
BRANCH  11  12
ATOM     12  C   UNL     1       3.489   3.445  17.398  0.00  0.00    +0.000 A 
ATOM     13  C   UNL     1       2.488   4.390  17.682  0.00  0.00    +0.000 A 
ATOM     14  C   UNL     1       1.318   4.003  18.338  0.00  0.00    +0.000 A 
ATOM     15  C   UNL     1       1.152   2.677  18.721  0.00  0.00    +0.000 A 
ATOM     16  F   UNL     1       0.011   2.300  19.312  0.00  0.00    +0.000 F 
ATOM     17  C   UNL     1       2.148   1.737  18.491  0.00  0.00    +0.000 A 
ATOM     18  C   UNL     1       3.321   2.122  17.840  0.00  0.00    +0.000 A 
ENDBRANCH  11  12
ENDBRANCH  10  11
TORSDOF 2
ENDMDL
MODEL 4
REMARK VINA RESULT:      -7.0      2.858      6.240
REMARK  Name = 
REMARK  2 active torsions:
REMARK  status: ('A' for Active; 'I' for Inactive)
REMARK    1  A    between atoms: N_10  and  C_11
REMARK    2  A    between atoms: C_11  and  C_12
REMARK                            x       y       z     vdW  Elec       q    Type
REMARK                         _______ _______ _______ _____ _____    ______ ____
ROOT
ATOM      1  O   UNL     1       4.166   2.254  17.357  0.00  0.00    +0.000 OA
ATOM      2  C   UNL     1       3.709   3.316  17.747  0.00  0.00    +0.000 A 
ATOM      3  C   UNL     1       2.710   3.393  18.822  0.00  0.00    +0.000 A 
ATOM      4  C   UNL     1       2.125   2.341  19.509  0.00  0.00    +0.000 A 
ATOM      5  C   UNL     1       1.233   2.661  20.533  0.00  0.00    +0.000 A 
ATOM      6  C   UNL     1       0.984   4.005  20.815  0.00  0.00    +0.000 A 
ATOM      7  N   UNL     1       1.550   5.043  20.152  0.00  0.00    +0.000 NA
ATOM      8  C   UNL     1       2.401   4.695  19.169  0.00  0.00    +0.000 A 
ATOM      9  S   UNL     1       3.293   5.869  18.173  0.00  0.00    +0.000 S 
ATOM     10  N   UNL     1       4.061   4.590  17.323  0.00  0.00    +0.000 N 
ENDROOT
BRANCH  10  11
ATOM     11  C   UNL     1       5.197   4.843  16.464  0.00  0.00    +0.000 C 
BRANCH  11  12
ATOM     12  C   UNL     1       6.271   5.689  17.107  0.00  0.00    +0.000 A 
ATOM     13  C   UNL     1       6.525   6.992  16.647  0.00  0.00    +0.000 A 
ATOM     14  C   UNL     1       7.437   7.811  17.315  0.00  0.00    +0.000 A 
ATOM     15  C   UNL     1       8.104   7.325  18.434  0.00  0.00    +0.000 A 
ATOM     16  F   UNL     1       8.947   8.126  19.098  0.00  0.00    +0.000 F 
ATOM     17  C   UNL     1       7.901   6.025  18.877  0.00  0.00    +0.000 A 
ATOM     18  C   UNL     1       6.993   5.202  18.209  0.00  0.00    +0.000 A 
ENDBRANCH  11  12
ENDBRANCH  10  11
TORSDOF 2
ENDMDL
MODEL 5
REMARK VINA RESULT:      -6.9      3.597      6.332
REMARK  Name = 
REMARK  2 active torsions:
REMARK  status: ('A' for Active; 'I' for Inactive)
REMARK    1  A    between atoms: N_10  and  C_11
REMARK    2  A    between atoms: C_11  and  C_12
REMARK                            x       y       z     vdW  Elec       q    Type
REMARK                         _______ _______ _______ _____ _____    ______ ____
ROOT
ATOM      1  O   UNL     1       5.706   3.693  19.212  0.00  0.00    +0.000 OA
ATOM      2  C   UNL     1       4.572   4.108  19.037  0.00  0.00    +0.000 A 
ATOM      3  C   UNL     1       3.431   3.633  19.832  0.00  0.00    +0.000 A 
ATOM      4  C   UNL     1       3.438   2.670  20.830  0.00  0.00    +0.000 A 
ATOM      5  C   UNL     1       2.233   2.419  21.487  0.00  0.00    +0.000 A 
ATOM      6  C   UNL     1       1.099   3.145  21.118  0.00  0.00    +0.000 A 
ATOM      7  N   UNL     1       1.079   4.091  20.146  0.00  0.00    +0.000 NA
ATOM      8  C   UNL     1       2.259   4.301  19.532  0.00  0.00    +0.000 A 
ATOM      9  S   UNL     1       2.501   5.506  18.246  0.00  0.00    +0.000 S 
ATOM     10  N   UNL     1       4.164   5.092  18.147  0.00  0.00    +0.000 N 
ENDROOT
BRANCH  10  11
ATOM     11  C   UNL     1       5.097   5.921  17.417  0.00  0.00    +0.000 C 
BRANCH  11  12
ATOM     12  C   UNL     1       5.635   5.276  16.162  0.00  0.00    +0.000 A 
ATOM     13  C   UNL     1       4.795   4.511  15.335  0.00  0.00    +0.000 A 
ATOM     14  C   UNL     1       5.266   4.012  14.119  0.00  0.00    +0.000 A 
ATOM     15  C   UNL     1       6.578   4.266  13.735  0.00  0.00    +0.000 A 
ATOM     16  F   UNL     1       7.015   3.823  12.549  0.00  0.00    +0.000 F 
ATOM     17  C   UNL     1       7.438   4.981  14.559  0.00  0.00    +0.000 A 
ATOM     18  C   UNL     1       6.971   5.477  15.777  0.00  0.00    +0.000 A 
ENDBRANCH  11  12
ENDBRANCH  10  11
TORSDOF 2
ENDMDL
MODEL 6
REMARK VINA RESULT:      -6.9      3.637      6.384
REMARK  Name = 
REMARK  2 active torsions:
REMARK  status: ('A' for Active; 'I' for Inactive)
REMARK    1  A    between atoms: N_10  and  C_11
REMARK    2  A    between atoms: C_11  and  C_12
REMARK                            x       y       z     vdW  Elec       q    Type
REMARK                         _______ _______ _______ _____ _____    ______ ____
ROOT
ATOM      1  O   UNL     1       2.536   6.755  18.394  0.00  0.00    +0.000 OA
ATOM      2  C   UNL     1       3.217   5.822  18.789  0.00  0.00    +0.000 A 
ATOM      3  C   UNL     1       2.660   4.735  19.608  0.00  0.00    +0.000 A 
ATOM      4  C   UNL     1       1.361   4.607  20.072  0.00  0.00    +0.000 A 
ATOM      5  C   UNL     1       1.048   3.455  20.794  0.00  0.00    +0.000 A 
ATOM      6  C   UNL     1       2.044   2.499  21.003  0.00  0.00    +0.000 A 
ATOM      7  N   UNL     1       3.318   2.611  20.552  0.00  0.00    +0.000 NA
ATOM      8  C   UNL     1       3.582   3.738  19.865  0.00  0.00    +0.000 A 
ATOM      9  S   UNL     1       5.167   4.107  19.147  0.00  0.00    +0.000 S 
ATOM     10  N   UNL     1       4.556   5.583  18.515  0.00  0.00    +0.000 N 
ENDROOT
BRANCH  10  11
ATOM     11  C   UNL     1       5.300   6.336  17.530  0.00  0.00    +0.000 C 
BRANCH  11  12
ATOM     12  C   UNL     1       5.709   5.525  16.323  0.00  0.00    +0.000 A 
ATOM     13  C   UNL     1       4.753   4.799  15.592  0.00  0.00    +0.000 A 
ATOM     14  C   UNL     1       5.115   4.145  14.413  0.00  0.00    +0.000 A 
ATOM     15  C   UNL     1       6.432   4.203  13.971  0.00  0.00    +0.000 A 
ATOM     16  F   UNL     1       6.767   3.610  12.818  0.00  0.00    +0.000 F 
ATOM     17  C   UNL     1       7.401   4.876  14.703  0.00  0.00    +0.000 A 
ATOM     18  C   UNL     1       7.043   5.528  15.885  0.00  0.00    +0.000 A 
ENDBRANCH  11  12
ENDBRANCH  10  11
TORSDOF 2
ENDMDL
MODEL 7
REMARK VINA RESULT:      -6.9      2.382      2.921
REMARK  Name = 
REMARK  2 active torsions:
REMARK  status: ('A' for Active; 'I' for Inactive)
REMARK    1  A    between atoms: N_10  and  C_11
REMARK    2  A    between atoms: C_11  and  C_12
REMARK                            x       y       z     vdW  Elec       q    Type
REMARK                         _______ _______ _______ _____ _____    ______ ____
ROOT
ATOM      1  O   UNL     1       3.225   4.051  16.743  0.00  0.00    +0.000 OA
ATOM      2  C   UNL     1       4.291   4.635  16.842  0.00  0.00    +0.000 A 
ATOM      3  C   UNL     1       5.315   4.584  15.789  0.00  0.00    +0.000 A 
ATOM      4  C   UNL     1       5.265   3.880  14.596  0.00  0.00    +0.000 A 
ATOM      5  C   UNL     1       6.343   4.024  13.721  0.00  0.00    +0.000 A 
ATOM      6  C   UNL     1       7.397   4.864  14.082  0.00  0.00    +0.000 A 
ATOM      7  N   UNL     1       7.457   5.559  15.245  0.00  0.00    +0.000 NA
ATOM      8  C   UNL     1       6.403   5.391  16.064  0.00  0.00    +0.000 A 
ATOM      9  S   UNL     1       6.230   6.213  17.632  0.00  0.00    +0.000 S 
ATOM     10  N   UNL     1       4.705   5.463  17.877  0.00  0.00    +0.000 N 
ENDROOT
BRANCH  10  11
ATOM     11  C   UNL     1       3.814   5.910  18.925  0.00  0.00    +0.000 C 
BRANCH  11  12
ATOM     12  C   UNL     1       3.147   4.784  19.679  0.00  0.00    +0.000 A 
ATOM     13  C   UNL     1       3.887   3.665  20.095  0.00  0.00    +0.000 A 
ATOM     14  C   UNL     1       3.294   2.683  20.890  0.00  0.00    +0.000 A 
ATOM     15  C   UNL     1       1.960   2.811  21.260  0.00  0.00    +0.000 A 
ATOM     16  F   UNL     1       1.405   1.889  22.058  0.00  0.00    +0.000 F 
ATOM     17  C   UNL     1       1.198   3.886  20.821  0.00  0.00    +0.000 A 
ATOM     18  C   UNL     1       1.787   4.868  20.022  0.00  0.00    +0.000 A 
ENDBRANCH  11  12
ENDBRANCH  10  11
TORSDOF 2
ENDMDL
MODEL 8
REMARK VINA RESULT:      -6.8      4.824      5.914
REMARK  Name = 
REMARK  2 active torsions:
REMARK  status: ('A' for Active; 'I' for Inactive)
REMARK    1  A    between atoms: N_10  and  C_11
REMARK    2  A    between atoms: C_11  and  C_12
REMARK                            x       y       z     vdW  Elec       q    Type
REMARK                         _______ _______ _______ _____ _____    ______ ____
ROOT
ATOM      1  O   UNL     1       1.158   8.101  21.735  0.00  0.00    +0.000 OA
ATOM      2  C   UNL     1       1.134   8.586  20.615  0.00  0.00    +0.000 A 
ATOM      3  C   UNL     1       0.407   9.827  20.313  0.00  0.00    +0.000 A 
ATOM      4  C   UNL     1      -0.355  10.593  21.181  0.00  0.00    +0.000 A 
ATOM      5  C   UNL     1      -0.913  11.769  20.677  0.00  0.00    +0.000 A 
ATOM      6  C   UNL     1      -0.673  12.113  19.345  0.00  0.00    +0.000 A 
ATOM      7  N   UNL     1       0.072  11.374  18.487  0.00  0.00    +0.000 NA
ATOM      8  C   UNL     1       0.590  10.245  19.008  0.00  0.00    +0.000 A 
ATOM      9  S   UNL     1       1.625   9.122  18.097  0.00  0.00    +0.000 S 
ATOM     10  N   UNL     1       1.793   8.124  19.484  0.00  0.00    +0.000 N 
ENDROOT
BRANCH  10  11
ATOM     11  C   UNL     1       2.788   7.076  19.532  0.00  0.00    +0.000 C 
BRANCH  11  12
ATOM     12  C   UNL     1       2.224   5.690  19.324  0.00  0.00    +0.000 A 
ATOM     13  C   UNL     1       1.704   4.960  20.406  0.00  0.00    +0.000 A 
ATOM     14  C   UNL     1       1.080   3.730  20.191  0.00  0.00    +0.000 A 
ATOM     15  C   UNL     1       0.988   3.222  18.900  0.00  0.00    +0.000 A 
ATOM     16  F   UNL     1       0.352   2.062  18.692  0.00  0.00    +0.000 F 
ATOM     17  C   UNL     1       1.536   3.906  17.824  0.00  0.00    +0.000 A 
ATOM     18  C   UNL     1       2.164   5.135  18.035  0.00  0.00    +0.000 A 
ENDBRANCH  11  12
ENDBRANCH  10  11
TORSDOF 2
ENDMDL
MODEL 9
REMARK VINA RESULT:      -6.8      1.798      2.090
REMARK  Name = 
REMARK  2 active torsions:
REMARK  status: ('A' for Active; 'I' for Inactive)
REMARK    1  A    between atoms: N_10  and  C_11
REMARK    2  A    between atoms: C_11  and  C_12
REMARK                            x       y       z     vdW  Elec       q    Type
REMARK                         _______ _______ _______ _____ _____    ______ ____
ROOT
ATOM      1  O   UNL     1       5.105   6.596  15.370  0.00  0.00    +0.000 OA
ATOM      2  C   UNL     1       5.580   6.004  16.326  0.00  0.00    +0.000 A 
ATOM      3  C   UNL     1       6.623   6.595  17.176  0.00  0.00    +0.000 A 
ATOM      4  C   UNL     1       7.233   7.831  17.030  0.00  0.00    +0.000 A 
ATOM      5  C   UNL     1       8.167   8.203  17.997  0.00  0.00    +0.000 A 
ATOM      6  C   UNL     1       8.431   7.328  19.052  0.00  0.00    +0.000 A 
ATOM      7  N   UNL     1       7.840   6.118  19.208  0.00  0.00    +0.000 NA
ATOM      8  C   UNL     1       6.948   5.792  18.253  0.00  0.00    +0.000 A 
ATOM      9  S   UNL     1       6.020   4.275  18.246  0.00  0.00    +0.000 S 
ATOM     10  N   UNL     1       5.214   4.755  16.808  0.00  0.00    +0.000 N 
ENDROOT
BRANCH  10  11
ATOM     11  C   UNL     1       4.045   4.046  16.337  0.00  0.00    +0.000 C 
BRANCH  11  12
ATOM     12  C   UNL     1       3.054   3.712  17.427  0.00  0.00    +0.000 A 
ATOM     13  C   UNL     1       2.809   2.376  17.786  0.00  0.00    +0.000 A 
ATOM     14  C   UNL     1       1.981   2.077  18.869  0.00  0.00    +0.000 A 
ATOM     15  C   UNL     1       1.387   3.110  19.585  0.00  0.00    +0.000 A 
ATOM     16  F   UNL     1       0.627   2.822  20.650  0.00  0.00    +0.000 F 
ATOM     17  C   UNL     1       1.579   4.436  19.219  0.00  0.00    +0.000 A 
ATOM     18  C   UNL     1       2.404   4.738  18.133  0.00  0.00    +0.000 A 
ENDBRANCH  11  12
ENDBRANCH  10  11
TORSDOF 2
ENDMDL
