MODEL 1
REMARK VINA RESULT:      -7.4      0.000      0.000
REMARK  Name = 
REMARK  4 active torsions:
REMARK  status: ('A' for Active; 'I' for Inactive)
REMARK    1  A    between atoms: C_1  and  N_2
REMARK    2  A    between atoms: C_3  and  C_4
REMARK    3  A    between atoms: C_6  and  C_7
REMARK    4  A    between atoms: N_16  and  C_17
REMARK                            x       y       z     vdW  Elec       q    Type
REMARK                         _______ _______ _______ _____ _____    ______ ____
ROOT
ATOM      1  C   UNL     1       3.251   7.507  17.863  0.00  0.00    +0.000 C 
ATOM      2  N   UNL     1       3.475   6.134  18.298  0.00  0.00    +0.000 N 
ATOM      3  C   UNL     1       4.315   5.264  17.607  0.00  0.00    +0.000 A 
ATOM      4  C   UNL     1       4.488   4.019  18.069  0.00  0.00    +0.000 A 
ATOM      5  C   UNL     1       3.811   3.553  19.284  0.00  0.00    +0.000 A 
ATOM      6  O   UNL     1       3.989   2.394  19.649  0.00  0.00    +0.000 OA
ATOM      7  N   UNL     1       3.020   4.476  19.926  0.00  0.00    +0.000 N 
ATOM      8  C   UNL     1       2.347   4.090  21.151  0.00  0.00    +0.000 C 
ATOM      9  C   UNL     1       2.823   5.775  19.482  0.00  0.00    +0.000 A 
ATOM     10  O   UNL     1       2.109   6.572  20.096  0.00  0.00    +0.000 OA
ENDROOT
BRANCH   3  11
ATOM     11  C   UNL     1       5.017   5.725  16.388  0.00  0.00    +0.000 C 
ATOM     12  O   UNL     1       6.259   6.450  16.417  0.00  0.00    +0.000 OA
ATOM     13  C   UNL     1       6.344   5.072  16.025  0.00  0.00    +0.000 C 
BRANCH  13  14
ATOM     14  C   UNL     1       6.600   4.725  14.577  0.00  0.00    +0.000 A 
ATOM     15  C   UNL     1       7.599   5.354  13.814  0.00  0.00    +0.000 A 
ATOM     16  C   UNL     1       7.790   5.045  12.463  0.00  0.00    +0.000 A 
ATOM     17  C   UNL     1       6.989   4.087  11.849  0.00  0.00    +0.000 A 
ATOM     18  C   UNL     1       6.001   3.440  12.583  0.00  0.00    +0.000 A 
ATOM     19  C   UNL     1       5.811   3.757  13.931  0.00  0.00    +0.000 A 
ENDBRANCH  13  14
ENDBRANCH   3  11
TORSDOF 2
ENDMDL
MODEL 2
REMARK VINA RESULT:      -7.4      0.147      1.112
REMARK  Name = 
REMARK  4 active torsions:
REMARK  status: ('A' for Active; 'I' for Inactive)
REMARK    1  A    between atoms: C_1  and  N_2
REMARK    2  A    between atoms: C_3  and  C_4
REMARK    3  A    between atoms: C_6  and  C_7
REMARK    4  A    between atoms: N_16  and  C_17
REMARK                            x       y       z     vdW  Elec       q    Type
REMARK                         _______ _______ _______ _____ _____    ______ ____
ROOT
ATOM      1  C   UNL     1       3.231   7.610  17.725  0.00  0.00    +0.000 C 
ATOM      2  N   UNL     1       3.472   6.260  18.219  0.00  0.00    +0.000 N 
ATOM      3  C   UNL     1       4.328   5.374  17.569  0.00  0.00    +0.000 A 
ATOM      4  C   UNL     1       4.516   4.152  18.084  0.00  0.00    +0.000 A 
ATOM      5  C   UNL     1       3.838   3.727  19.313  0.00  0.00    +0.000 A 
ATOM      6  O   UNL     1       4.029   2.587  19.727  0.00  0.00    +0.000 OA
ATOM      7  N   UNL     1       3.029   4.665  19.911  0.00  0.00    +0.000 N 
ATOM      8  C   UNL     1       2.354   4.321  21.147  0.00  0.00    +0.000 C 
ATOM      9  C   UNL     1       2.816   5.941  19.413  0.00  0.00    +0.000 A 
ATOM     10  O   UNL     1       2.088   6.753  19.989  0.00  0.00    +0.000 OA
ENDROOT
BRANCH   3  11
ATOM     11  C   UNL     1       5.032   5.794  16.337  0.00  0.00    +0.000 C 
ATOM     12  O   UNL     1       6.313   6.448  16.341  0.00  0.00    +0.000 OA
ATOM     13  C   UNL     1       6.313   5.067  15.950  0.00  0.00    +0.000 C 
BRANCH  13  14
ATOM     14  C   UNL     1       6.521   4.706  14.497  0.00  0.00    +0.000 A 
ATOM     15  C   UNL     1       5.764   3.714  13.849  0.00  0.00    +0.000 A 
ATOM     16  C   UNL     1       6.003   3.370  12.514  0.00  0.00    +0.000 A 
ATOM     17  C   UNL     1       7.001   4.021  11.795  0.00  0.00    +0.000 A 
ATOM     18  C   UNL     1       7.757   5.013  12.408  0.00  0.00    +0.000 A 
ATOM     19  C   UNL     1       7.517   5.351  13.743  0.00  0.00    +0.000 A 
ENDBRANCH  13  14
ENDBRANCH   3  11
TORSDOF 2
ENDMDL
MODEL 3
REMARK VINA RESULT:      -7.0      1.000      1.016
REMARK  Name = 
REMARK  4 active torsions:
REMARK  status: ('A' for Active; 'I' for Inactive)
REMARK    1  A    between atoms: C_1  and  N_2
REMARK    2  A    between atoms: C_3  and  C_4
REMARK    3  A    between atoms: C_6  and  C_7
REMARK    4  A    between atoms: N_16  and  C_17
REMARK                            x       y       z     vdW  Elec       q    Type
REMARK                         _______ _______ _______ _____ _____    ______ ____
ROOT
ATOM      1  C   UNL     1       2.527   6.080  17.880  0.00  0.00    +0.000 C 
ATOM      2  N   UNL     1       3.200   4.940  18.490  0.00  0.00    +0.000 N 
ATOM      3  C   UNL     1       4.420   4.460  18.020  0.00  0.00    +0.000 A 
ATOM      4  C   UNL     1       4.993   3.418  18.637  0.00  0.00    +0.000 A 
ATOM      5  C   UNL     1       4.361   2.771  19.791  0.00  0.00    +0.000 A 
ATOM      6  O   UNL     1       4.919   1.804  20.303  0.00  0.00    +0.000 OA
ATOM      7  N   UNL     1       3.172   3.317  20.214  0.00  0.00    +0.000 N 
ATOM      8  C   UNL     1       2.510   2.745  21.370  0.00  0.00    +0.000 C 
ATOM      9  C   UNL     1       2.553   4.399  19.606  0.00  0.00    +0.000 A 
ATOM     10  O   UNL     1       1.489   4.861  20.025  0.00  0.00    +0.000 OA
ENDROOT
BRANCH   3  11
ATOM     11  C   UNL     1       5.078   5.113  16.866  0.00  0.00    +0.000 C 
ATOM     12  O   UNL     1       6.325   5.823  16.963  0.00  0.00    +0.000 OA
ATOM     13  C   UNL     1       6.385   4.527  16.350  0.00  0.00    +0.000 C 
BRANCH  13  14
ATOM     14  C   UNL     1       6.582   4.420  14.855  0.00  0.00    +0.000 A 
ATOM     15  C   UNL     1       7.524   5.198  14.159  0.00  0.00    +0.000 A 
ATOM     16  C   UNL     1       7.660   5.110  12.770  0.00  0.00    +0.000 A 
ATOM     17  C   UNL     1       6.859   4.231  12.047  0.00  0.00    +0.000 A 
ATOM     18  C   UNL     1       5.927   3.442  12.711  0.00  0.00    +0.000 A 
ATOM     19  C   UNL     1       5.793   3.537  14.099  0.00  0.00    +0.000 A 
ENDBRANCH  13  14
ENDBRANCH   3  11
TORSDOF 2
ENDMDL
MODEL 4
REMARK VINA RESULT:      -6.8      1.428      1.834
REMARK  Name = 
REMARK  4 active torsions:
REMARK  status: ('A' for Active; 'I' for Inactive)
REMARK    1  A    between atoms: C_1  and  N_2
REMARK    2  A    between atoms: C_3  and  C_4
REMARK    3  A    between atoms: C_6  and  C_7
REMARK    4  A    between atoms: N_16  and  C_17
REMARK                            x       y       z     vdW  Elec       q    Type
REMARK                         _______ _______ _______ _____ _____    ______ ____
ROOT
ATOM      1  C   UNL     1       1.712   5.214  17.667  0.00  0.00    +0.000 C 
ATOM      2  N   UNL     1       2.621   4.349  18.410  0.00  0.00    +0.000 N 
ATOM      3  C   UNL     1       3.953   4.181  18.040  0.00  0.00    +0.000 A 
ATOM      4  C   UNL     1       4.739   3.383  18.775  0.00  0.00    +0.000 A 
ATOM      5  C   UNL     1       4.225   2.681  19.956  0.00  0.00    +0.000 A 
ATOM      6  O   UNL     1       4.983   1.943  20.579  0.00  0.00    +0.000 OA
ATOM      7  N   UNL     1       2.908   2.917  20.273  0.00  0.00    +0.000 N 
ATOM      8  C   UNL     1       2.345   2.280  21.447  0.00  0.00    +0.000 C 
ATOM      9  C   UNL     1       2.067   3.743  19.542  0.00  0.00    +0.000 A 
ATOM     10  O   UNL     1       0.893   3.932  19.869  0.00  0.00    +0.000 OA
ENDROOT
BRANCH   3  11
ATOM     11  C   UNL     1       4.490   4.895  16.861  0.00  0.00    +0.000 C 
ATOM     12  O   UNL     1       5.522   5.894  16.942  0.00  0.00    +0.000 OA
ATOM     13  C   UNL     1       5.925   4.614  16.434  0.00  0.00    +0.000 C 
BRANCH  13  14
ATOM     14  C   UNL     1       6.217   4.458  14.959  0.00  0.00    +0.000 A 
ATOM     15  C   UNL     1       5.495   3.577  14.135  0.00  0.00    +0.000 A 
ATOM     16  C   UNL     1       5.810   3.420  12.781  0.00  0.00    +0.000 A 
ATOM     17  C   UNL     1       6.851   4.153  12.220  0.00  0.00    +0.000 A 
ATOM     18  C   UNL     1       7.574   5.040  13.009  0.00  0.00    +0.000 A 
ATOM     19  C   UNL     1       7.258   5.190  14.363  0.00  0.00    +0.000 A 
ENDBRANCH  13  14
ENDBRANCH   3  11
TORSDOF 2
ENDMDL
MODEL 5
REMARK VINA RESULT:      -6.8      2.340      6.667
REMARK  Name = 
REMARK  4 active torsions:
REMARK  status: ('A' for Active; 'I' for Inactive)
REMARK    1  A    between atoms: C_1  and  N_2
REMARK    2  A    between atoms: C_3  and  C_4
REMARK    3  A    between atoms: C_6  and  C_7
REMARK    4  A    between atoms: N_16  and  C_17
REMARK                            x       y       z     vdW  Elec       q    Type
REMARK                         _______ _______ _______ _____ _____    ______ ____
ROOT
ATOM      1  C   UNL     1       5.538   5.899  17.984  0.00  0.00    +0.000 C 
ATOM      2  N   UNL     1       5.634   5.249  16.683  0.00  0.00    +0.000 N 
ATOM      3  C   UNL     1       4.628   4.422  16.190  0.00  0.00    +0.000 A 
ATOM      4  C   UNL     1       4.774   3.867  14.980  0.00  0.00    +0.000 A 
ATOM      5  C   UNL     1       5.969   4.109  14.166  0.00  0.00    +0.000 A 
ATOM      6  O   UNL     1       6.060   3.556  13.073  0.00  0.00    +0.000 OA
ATOM      7  N   UNL     1       6.906   4.958  14.707  0.00  0.00    +0.000 N 
ATOM      8  C   UNL     1       8.097   5.266  13.941  0.00  0.00    +0.000 C 
ATOM      9  C   UNL     1       6.787   5.557  15.952  0.00  0.00    +0.000 A 
ATOM     10  O   UNL     1       7.650   6.319  16.394  0.00  0.00    +0.000 OA
ENDROOT
BRANCH   3  11
ATOM     11  C   UNL     1       3.409   4.180  16.993  0.00  0.00    +0.000 C 
ATOM     12  O   UNL     1       2.403   3.216  16.635  0.00  0.00    +0.000 OA
ATOM     13  C   UNL     1       3.269   2.848  17.718  0.00  0.00    +0.000 C 
BRANCH  13  14
ATOM     14  C   UNL     1       2.736   2.854  19.132  0.00  0.00    +0.000 A 
ATOM     15  C   UNL     1       3.528   2.508  20.241  0.00  0.00    +0.000 A 
ATOM     16  C   UNL     1       3.000   2.483  21.536  0.00  0.00    +0.000 A 
ATOM     17  C   UNL     1       1.665   2.814  21.750  0.00  0.00    +0.000 A 
ATOM     18  C   UNL     1       0.862   3.171  20.673  0.00  0.00    +0.000 A 
ATOM     19  C   UNL     1       1.394   3.191  19.380  0.00  0.00    +0.000 A 
ENDBRANCH  13  14
ENDBRANCH   3  11
TORSDOF 2
ENDMDL
MODEL 6
REMARK VINA RESULT:      -6.8      2.348      6.699
REMARK  Name = 
REMARK  4 active torsions:
REMARK  status: ('A' for Active; 'I' for Inactive)
REMARK    1  A    between atoms: C_1  and  N_2
REMARK    2  A    between atoms: C_3  and  C_4
REMARK    3  A    between atoms: C_6  and  C_7
REMARK    4  A    between atoms: N_16  and  C_17
REMARK                            x       y       z     vdW  Elec       q    Type
REMARK                         _______ _______ _______ _____ _____    ______ ____
ROOT
ATOM      1  C   UNL     1       5.479   5.865  17.980  0.00  0.00    +0.000 C 
ATOM      2  N   UNL     1       5.598   5.222  16.676  0.00  0.00    +0.000 N 
ATOM      3  C   UNL     1       4.607   4.387  16.168  0.00  0.00    +0.000 A 
ATOM      4  C   UNL     1       4.774   3.840  14.956  0.00  0.00    +0.000 A 
ATOM      5  C   UNL     1       5.976   4.099  14.159  0.00  0.00    +0.000 A 
ATOM      6  O   UNL     1       6.087   3.553  13.064  0.00  0.00    +0.000 OA
ATOM      7  N   UNL     1       6.897   4.955  14.715  0.00  0.00    +0.000 N 
ATOM      8  C   UNL     1       8.095   5.280  13.965  0.00  0.00    +0.000 C 
ATOM      9  C   UNL     1       6.756   5.546  15.962  0.00  0.00    +0.000 A 
ATOM     10  O   UNL     1       7.606   6.315  16.419  0.00  0.00    +0.000 OA
ENDROOT
BRANCH   3  11
ATOM     11  C   UNL     1       3.381   4.128  16.954  0.00  0.00    +0.000 C 
ATOM     12  O   UNL     1       2.399   3.143  16.588  0.00  0.00    +0.000 OA
ATOM     13  C   UNL     1       3.255   2.798  17.686  0.00  0.00    +0.000 C 
BRANCH  13  14
ATOM     14  C   UNL     1       2.701   2.803  19.092  0.00  0.00    +0.000 A 
ATOM     15  C   UNL     1       1.363   3.129  19.376  0.00  0.00    +0.000 A 
ATOM     16  C   UNL     1       0.883   3.165  20.689  0.00  0.00    +0.000 A 
ATOM     17  C   UNL     1       1.734   2.866  21.749  0.00  0.00    +0.000 A 
ATOM     18  C   UNL     1       3.058   2.530  21.496  0.00  0.00    +0.000 A 
ATOM     19  C   UNL     1       3.534   2.499  20.182  0.00  0.00    +0.000 A 
ENDBRANCH  13  14
ENDBRANCH   3  11
TORSDOF 2
ENDMDL
MODEL 7
REMARK VINA RESULT:      -6.6      4.363      6.167
REMARK  Name = 
REMARK  4 active torsions:
REMARK  status: ('A' for Active; 'I' for Inactive)
REMARK    1  A    between atoms: C_1  and  N_2
REMARK    2  A    between atoms: C_3  and  C_4
REMARK    3  A    between atoms: C_6  and  C_7
REMARK    4  A    between atoms: N_16  and  C_17
REMARK                            x       y       z     vdW  Elec       q    Type
REMARK                         _______ _______ _______ _____ _____    ______ ____
ROOT
ATOM      1  C   UNL     1       3.024   7.514  17.753  0.00  0.00    +0.000 C 
ATOM      2  N   UNL     1       2.196   8.123  18.787  0.00  0.00    +0.000 N 
ATOM      3  C   UNL     1       1.942   7.491  20.002  0.00  0.00    +0.000 A 
ATOM      4  C   UNL     1       1.185   8.114  20.915  0.00  0.00    +0.000 A 
ATOM      5  C   UNL     1       0.618   9.441  20.662  0.00  0.00    +0.000 A 
ATOM      6  O   UNL     1      -0.088   9.955  21.526  0.00  0.00    +0.000 OA
ATOM      7  N   UNL     1       0.934  10.013  19.452  0.00  0.00    +0.000 N 
ATOM      8  C   UNL     1       0.432  11.339  19.151  0.00  0.00    +0.000 C 
ATOM      9  C   UNL     1       1.720   9.404  18.485  0.00  0.00    +0.000 A 
ATOM     10  O   UNL     1       1.985   9.958  17.416  0.00  0.00    +0.000 OA
ENDROOT
BRANCH   3  11
ATOM     11  C   UNL     1       2.521   6.158  20.278  0.00  0.00    +0.000 C 
ATOM     12  O   UNL     1       2.037   5.284  21.312  0.00  0.00    +0.000 OA
ATOM     13  C   UNL     1       1.683   4.924  19.969  0.00  0.00    +0.000 C 
BRANCH  13  14
ATOM     14  C   UNL     1       2.360   3.744  19.312  0.00  0.00    +0.000 A 
ATOM     15  C   UNL     1       2.007   3.286  18.030  0.00  0.00    +0.000 A 
ATOM     16  C   UNL     1       2.620   2.167  17.460  0.00  0.00    +0.000 A 
ATOM     17  C   UNL     1       3.612   1.485  18.159  0.00  0.00    +0.000 A 
ATOM     18  C   UNL     1       3.990   1.923  19.423  0.00  0.00    +0.000 A 
ATOM     19  C   UNL     1       3.370   3.040  19.990  0.00  0.00    +0.000 A 
ENDBRANCH  13  14
ENDBRANCH   3  11
TORSDOF 2
ENDMDL
MODEL 8
REMARK VINA RESULT:      -6.6      0.824      2.186
REMARK  Name = 
REMARK  4 active torsions:
REMARK  status: ('A' for Active; 'I' for Inactive)
REMARK    1  A    between atoms: C_1  and  N_2
REMARK    2  A    between atoms: C_3  and  C_4
REMARK    3  A    between atoms: C_6  and  C_7
REMARK    4  A    between atoms: N_16  and  C_17
REMARK                            x       y       z     vdW  Elec       q    Type
REMARK                         _______ _______ _______ _____ _____    ______ ____
ROOT
ATOM      1  C   UNL     1       4.408   3.421  17.020  0.00  0.00    +0.000 C 
ATOM      2  N   UNL     1       3.849   4.540  17.767  0.00  0.00    +0.000 N 
ATOM      3  C   UNL     1       4.044   5.863  17.379  0.00  0.00    +0.000 A 
ATOM      4  C   UNL     1       3.489   6.844  18.103  0.00  0.00    +0.000 A 
ATOM      5  C   UNL     1       2.686   6.555  19.295  0.00  0.00    +0.000 A 
ATOM      6  O   UNL     1       2.220   7.495  19.934  0.00  0.00    +0.000 OA
ATOM      7  N   UNL     1       2.516   5.225  19.600  0.00  0.00    +0.000 N 
ATOM      8  C   UNL     1       1.706   4.868  20.748  0.00  0.00    +0.000 C 
ATOM      9  C   UNL     1       3.067   4.182  18.871  0.00  0.00    +0.000 A 
ATOM     10  O   UNL     1       2.881   3.002  19.177  0.00  0.00    +0.000 OA
ENDROOT
BRANCH   3  11
ATOM     11  C   UNL     1       4.838   6.171  16.169  0.00  0.00    +0.000 C 
ATOM     12  O   UNL     1       6.100   6.860  16.205  0.00  0.00    +0.000 OA
ATOM     13  C   UNL     1       6.163   5.446  15.967  0.00  0.00    +0.000 C 
BRANCH  13  14
ATOM     14  C   UNL     1       6.499   4.939  14.584  0.00  0.00    +0.000 A 
ATOM     15  C   UNL     1       7.576   5.443  13.834  0.00  0.00    +0.000 A 
ATOM     16  C   UNL     1       7.843   4.985  12.540  0.00  0.00    +0.000 A 
ATOM     17  C   UNL     1       7.040   4.001  11.971  0.00  0.00    +0.000 A 
ATOM     18  C   UNL     1       5.975   3.476  12.694  0.00  0.00    +0.000 A 
ATOM     19  C   UNL     1       5.710   3.941  13.986  0.00  0.00    +0.000 A 
ENDBRANCH  13  14
ENDBRANCH   3  11
TORSDOF 2
ENDMDL
MODEL 9
REMARK VINA RESULT:      -6.6      0.865      2.449
REMARK  Name = 
REMARK  4 active torsions:
REMARK  status: ('A' for Active; 'I' for Inactive)
REMARK    1  A    between atoms: C_1  and  N_2
REMARK    2  A    between atoms: C_3  and  C_4
REMARK    3  A    between atoms: C_6  and  C_7
REMARK    4  A    between atoms: N_16  and  C_17
REMARK                            x       y       z     vdW  Elec       q    Type
REMARK                         _______ _______ _______ _____ _____    ______ ____
ROOT
ATOM      1  C   UNL     1       4.262   3.420  16.943  0.00  0.00    +0.000 C 
ATOM      2  N   UNL     1       3.750   4.542  17.721  0.00  0.00    +0.000 N 
ATOM      3  C   UNL     1       4.011   5.866  17.374  0.00  0.00    +0.000 A 
ATOM      4  C   UNL     1       3.497   6.850  18.124  0.00  0.00    +0.000 A 
ATOM      5  C   UNL     1       2.672   6.562  19.301  0.00  0.00    +0.000 A 
ATOM      6  O   UNL     1       2.246   7.504  19.966  0.00  0.00    +0.000 OA
ATOM      7  N   UNL     1       2.436   5.234  19.564  0.00  0.00    +0.000 N 
ATOM      8  C   UNL     1       1.601   4.881  20.695  0.00  0.00    +0.000 C 
ATOM      9  C   UNL     1       2.944   4.189  18.807  0.00  0.00    +0.000 A 
ATOM     10  O   UNL     1       2.700   3.010  19.076  0.00  0.00    +0.000 OA
ENDROOT
BRANCH   3  11
ATOM     11  C   UNL     1       4.829   6.171  16.179  0.00  0.00    +0.000 C 
ATOM     12  O   UNL     1       6.129   6.782  16.246  0.00  0.00    +0.000 OA
ATOM     13  C   UNL     1       6.109   5.377  15.954  0.00  0.00    +0.000 C 
BRANCH  13  14
ATOM     14  C   UNL     1       6.421   4.904  14.553  0.00  0.00    +0.000 A 
ATOM     15  C   UNL     1       5.654   3.926  13.896  0.00  0.00    +0.000 A 
ATOM     16  C   UNL     1       5.987   3.476  12.615  0.00  0.00    +0.000 A 
ATOM     17  C   UNL     1       7.094   4.005  11.957  0.00  0.00    +0.000 A 
ATOM     18  C   UNL     1       7.864   4.981  12.578  0.00  0.00    +0.000 A 
ATOM     19  C   UNL     1       7.529   5.425  13.861  0.00  0.00    +0.000 A 
ENDBRANCH  13  14
ENDBRANCH   3  11
TORSDOF 2
ENDMDL
