MODEL 1
REMARK VINA RESULT:      -7.7      0.000      0.000
REMARK  Name = 
REMARK  4 active torsions:
REMARK  status: ('A' for Active; 'I' for Inactive)
REMARK    1  A    between atoms: C_1  and  C_2
REMARK    2  A    between atoms: C_8  and  C_9
REMARK    3  A    between atoms: N_11  and  C_12
REMARK    4  A    between atoms: C_15  and  C_16
REMARK                            x       y       z     vdW  Elec       q    Type
REMARK                         _______ _______ _______ _____ _____    ______ ____
ROOT
ATOM      1  C   UNL     1       1.710   9.073  18.346  0.00  0.00    +0.000 C 
ATOM      2  O   UNL     1       2.037   9.539  17.257  0.00  0.00    +0.000 OA
ATOM      3  N   UNL     1       2.052   7.816  18.811  0.00  0.00    +0.000 N 
ATOM      4  H   UNL     1       1.605   7.496  19.671  0.00  0.00    +0.000 HD
ENDROOT
BRANCH   1  12
ATOM      5  C   UNL     1      -0.029   9.478  23.623  0.00  0.00    +0.000 C 
ATOM      6  C   UNL     1      -0.597  10.469  22.664  0.00  0.00    +0.000 A 
ATOM      7  C   UNL     1      -1.512  11.398  22.986  0.00  0.00    +0.000 A 
ATOM      8  S   UNL     1      -1.961  12.381  21.630  0.00  0.00    +0.000 S 
ATOM      9  C   UNL     1      -0.877  11.478  20.591  0.00  0.00    +0.000 A 
ATOM     10  N   UNL     1      -0.734  11.715  19.336  0.00  0.00    +0.000 NA
ATOM     11  C   UNL     1       0.138  10.881  18.683  0.00  0.00    +0.000 A 
ATOM     12  C   UNL     1       0.851   9.890  19.246  0.00  0.00    +0.000 A 
ATOM     13  C   UNL     1       0.702   9.683  20.706  0.00  0.00    +0.000 A 
ATOM     14  O   UNL     1       1.389   8.829  21.269  0.00  0.00    +0.000 OA
ATOM     15  N   UNL     1      -0.229  10.502  21.321  0.00  0.00    +0.000 N 
ENDBRANCH   1  12
BRANCH   3  16
ATOM     16  C   UNL     1       2.904   6.898  18.155  0.00  0.00    +0.000 A 
ATOM     17  C   UNL     1       4.087   7.284  17.526  0.00  0.00    +0.000 A 
ATOM     18  C   UNL     1       4.896   6.356  16.869  0.00  0.00    +0.000 A 
ATOM     19  C   UNL     1       4.543   5.005  16.833  0.00  0.00    +0.000 A 
ATOM     20  C   UNL     1       3.363   4.605  17.481  0.00  0.00    +0.000 A 
ATOM     21  C   UNL     1       2.556   5.542  18.145  0.00  0.00    +0.000 A 
BRANCH  19  22
ATOM     22  C   UNL     1       5.422   4.011  16.115  0.00  0.00    +0.000 C 
ATOM     23  F   UNL     1       5.347   4.103  14.756  0.00  0.00    +0.000 F 
ATOM     24  F   UNL     1       6.740   4.162  16.424  0.00  0.00    +0.000 F 
ATOM     25  F   UNL     1       5.110   2.722  16.417  0.00  0.00    +0.000 F 
ENDBRANCH  19  22
ENDBRANCH   3  16
TORSDOF 3
ENDMDL
MODEL 2
REMARK VINA RESULT:      -7.6      0.234      1.299
REMARK  Name = 
REMARK  4 active torsions:
REMARK  status: ('A' for Active; 'I' for Inactive)
REMARK    1  A    between atoms: C_1  and  C_2
REMARK    2  A    between atoms: C_8  and  C_9
REMARK    3  A    between atoms: N_11  and  C_12
REMARK    4  A    between atoms: C_15  and  C_16
REMARK                            x       y       z     vdW  Elec       q    Type
REMARK                         _______ _______ _______ _____ _____    ______ ____
ROOT
ATOM      1  C   UNL     1       1.681   9.080  18.337  0.00  0.00    +0.000 C 
ATOM      2  O   UNL     1       1.984   9.539  17.238  0.00  0.00    +0.000 OA
ATOM      3  N   UNL     1       2.057   7.838  18.814  0.00  0.00    +0.000 N 
ATOM      4  H   UNL     1       1.628   7.520  19.684  0.00  0.00    +0.000 HD
ENDROOT
BRANCH   1  12
ATOM      5  C   UNL     1      -0.037   9.492  23.621  0.00  0.00    +0.000 C 
ATOM      6  C   UNL     1      -0.624  10.469  22.658  0.00  0.00    +0.000 A 
ATOM      7  C   UNL     1      -1.551  11.386  22.980  0.00  0.00    +0.000 A 
ATOM      8  S   UNL     1      -2.023  12.354  21.620  0.00  0.00    +0.000 S 
ATOM      9  C   UNL     1      -0.930  11.460  20.581  0.00  0.00    +0.000 A 
ATOM     10  N   UNL     1      -0.797  11.691  19.324  0.00  0.00    +0.000 NA
ATOM     11  C   UNL     1       0.084  10.867  18.671  0.00  0.00    +0.000 A 
ATOM     12  C   UNL     1       0.814   9.891  19.237  0.00  0.00    +0.000 A 
ATOM     13  C   UNL     1       0.676   9.690  20.698  0.00  0.00    +0.000 A 
ATOM     14  O   UNL     1       1.379   8.850  21.263  0.00  0.00    +0.000 OA
ATOM     15  N   UNL     1      -0.264  10.499  21.314  0.00  0.00    +0.000 N 
ENDBRANCH   1  12
BRANCH   3  16
ATOM     16  C   UNL     1       2.921   6.931  18.161  0.00  0.00    +0.000 A 
ATOM     17  C   UNL     1       2.670   5.560  18.099  0.00  0.00    +0.000 A 
ATOM     18  C   UNL     1       3.554   4.688  17.463  0.00  0.00    +0.000 A 
ATOM     19  C   UNL     1       4.718   5.170  16.859  0.00  0.00    +0.000 A 
ATOM     20  C   UNL     1       4.968   6.551  16.900  0.00  0.00    +0.000 A 
ATOM     21  C   UNL     1       4.073   7.426  17.536  0.00  0.00    +0.000 A 
BRANCH  19  22
ATOM     22  C   UNL     1       5.670   4.219  16.179  0.00  0.00    +0.000 C 
ATOM     23  F   UNL     1       6.867   4.098  16.821  0.00  0.00    +0.000 F 
ATOM     24  F   UNL     1       5.170   2.955  16.091  0.00  0.00    +0.000 F 
ATOM     25  F   UNL     1       5.968   4.595  14.906  0.00  0.00    +0.000 F 
ENDBRANCH  19  22
ENDBRANCH   3  16
TORSDOF 3
ENDMDL
MODEL 3
REMARK VINA RESULT:      -7.6      1.356      2.176
REMARK  Name = 
REMARK  4 active torsions:
REMARK  status: ('A' for Active; 'I' for Inactive)
REMARK    1  A    between atoms: C_1  and  C_2
REMARK    2  A    between atoms: C_8  and  C_9
REMARK    3  A    between atoms: N_11  and  C_12
REMARK    4  A    between atoms: C_15  and  C_16
REMARK                            x       y       z     vdW  Elec       q    Type
REMARK                         _______ _______ _______ _____ _____    ______ ____
ROOT
ATOM      1  C   UNL     1       2.036   8.407  18.447  0.00  0.00    +0.000 C 
ATOM      2  O   UNL     1       2.153   9.027  17.393  0.00  0.00    +0.000 OA
ATOM      3  N   UNL     1       2.584   7.164  18.706  0.00  0.00    +0.000 N 
ATOM      4  H   UNL     1       2.301   6.695  19.567  0.00  0.00    +0.000 HD
ENDROOT
BRANCH   1  12
ATOM      5  C   UNL     1      -1.549  12.528  19.545  0.00  0.00    +0.000 C 
ATOM      6  C   UNL     1      -1.162  11.665  20.699  0.00  0.00    +0.000 A 
ATOM      7  C   UNL     1      -1.585  11.852  21.960  0.00  0.00    +0.000 A 
ATOM      8  S   UNL     1      -0.936  10.674  23.055  0.00  0.00    +0.000 S 
ATOM      9  C   UNL     1      -0.046   9.919  21.747  0.00  0.00    +0.000 A 
ATOM     10  N   UNL     1       0.721   8.901  21.905  0.00  0.00    +0.000 NA
ATOM     11  C   UNL     1       1.357   8.471  20.768  0.00  0.00    +0.000 A 
ATOM     12  C   UNL     1       1.217   8.999  19.540  0.00  0.00    +0.000 A 
ATOM     13  C   UNL     1       0.281  10.137  19.386  0.00  0.00    +0.000 A 
ATOM     14  O   UNL     1       0.075  10.604  18.265  0.00  0.00    +0.000 OA
ATOM     15  N   UNL     1      -0.298  10.582  20.562  0.00  0.00    +0.000 N 
ENDBRANCH   1  12
BRANCH   3  16
ATOM     16  C   UNL     1       3.441   6.445  17.842  0.00  0.00    +0.000 A 
ATOM     17  C   UNL     1       4.495   7.045  17.153  0.00  0.00    +0.000 A 
ATOM     18  C   UNL     1       5.311   6.311  16.290  0.00  0.00    +0.000 A 
ATOM     19  C   UNL     1       5.096   4.944  16.101  0.00  0.00    +0.000 A 
ATOM     20  C   UNL     1       4.049   4.328  16.805  0.00  0.00    +0.000 A 
ATOM     21  C   UNL     1       3.235   5.070  17.676  0.00  0.00    +0.000 A 
BRANCH  19  22
ATOM     22  C   UNL     1       5.980   4.161  15.162  0.00  0.00    +0.000 C 
ATOM     23  F   UNL     1       7.234   4.682  15.037  0.00  0.00    +0.000 F 
ATOM     24  F   UNL     1       6.155   2.872  15.564  0.00  0.00    +0.000 F 
ATOM     25  F   UNL     1       5.478   4.097  13.900  0.00  0.00    +0.000 F 
ENDBRANCH  19  22
ENDBRANCH   3  16
TORSDOF 3
ENDMDL
MODEL 4
REMARK VINA RESULT:      -7.5      1.188      2.486
REMARK  Name = 
REMARK  4 active torsions:
REMARK  status: ('A' for Active; 'I' for Inactive)
REMARK    1  A    between atoms: C_1  and  C_2
REMARK    2  A    between atoms: C_8  and  C_9
REMARK    3  A    between atoms: N_11  and  C_12
REMARK    4  A    between atoms: C_15  and  C_16
REMARK                            x       y       z     vdW  Elec       q    Type
REMARK                         _______ _______ _______ _____ _____    ______ ____
ROOT
ATOM      1  C   UNL     1       1.635   7.887  20.337  0.00  0.00    +0.000 C 
ATOM      2  O   UNL     1       1.805   6.892  21.037  0.00  0.00    +0.000 OA
ATOM      3  N   UNL     1       2.155   8.069  19.068  0.00  0.00    +0.000 N 
ATOM      4  H   UNL     1       2.056   8.993  18.648  0.00  0.00    +0.000 HD
ENDROOT
BRANCH   1  12
ATOM      5  C   UNL     1      -1.492  12.234  18.799  0.00  0.00    +0.000 C 
ATOM      6  C   UNL     1      -1.268  12.068  20.265  0.00  0.00    +0.000 A 
ATOM      7  C   UNL     1      -1.730  12.911  21.202  0.00  0.00    +0.000 A 
ATOM      8  S   UNL     1      -1.281  12.426  22.806  0.00  0.00    +0.000 S 
ATOM      9  C   UNL     1      -0.421  11.040  22.167  0.00  0.00    +0.000 A 
ATOM     10  N   UNL     1       0.212  10.196  22.901  0.00  0.00    +0.000 NA
ATOM     11  C   UNL     1       0.851   9.194  22.216  0.00  0.00    +0.000 A 
ATOM     12  C   UNL     1       0.837   9.019  20.883  0.00  0.00    +0.000 A 
ATOM     13  C   UNL     1       0.051   9.979  20.074  0.00  0.00    +0.000 A 
ATOM     14  O   UNL     1      -0.041   9.811  18.856  0.00  0.00    +0.000 OA
ATOM     15  N   UNL     1      -0.531  11.010  20.791  0.00  0.00    +0.000 N 
ENDBRANCH   1  12
BRANCH   3  16
ATOM     16  C   UNL     1       2.888   7.109  18.333  0.00  0.00    +0.000 A 
ATOM     17  C   UNL     1       2.562   5.753  18.327  0.00  0.00    +0.000 A 
ATOM     18  C   UNL     1       3.319   4.828  17.606  0.00  0.00    +0.000 A 
ATOM     19  C   UNL     1       4.424   5.241  16.860  0.00  0.00    +0.000 A 
ATOM     20  C   UNL     1       4.747   6.607  16.845  0.00  0.00    +0.000 A 
ATOM     21  C   UNL     1       3.980   7.535  17.567  0.00  0.00    +0.000 A 
BRANCH  19  22
ATOM     22  C   UNL     1       5.238   4.232  16.089  0.00  0.00    +0.000 C 
ATOM     23  F   UNL     1       5.043   4.294  14.740  0.00  0.00    +0.000 F 
ATOM     24  F   UNL     1       6.578   4.391  16.275  0.00  0.00    +0.000 F 
ATOM     25  F   UNL     1       4.958   2.950  16.445  0.00  0.00    +0.000 F 
ENDBRANCH  19  22
ENDBRANCH   3  16
TORSDOF 3
ENDMDL
MODEL 5
REMARK VINA RESULT:      -7.5      1.341      2.411
REMARK  Name = 
REMARK  4 active torsions:
REMARK  status: ('A' for Active; 'I' for Inactive)
REMARK    1  A    between atoms: C_1  and  C_2
REMARK    2  A    between atoms: C_8  and  C_9
REMARK    3  A    between atoms: N_11  and  C_12
REMARK    4  A    between atoms: C_15  and  C_16
REMARK                            x       y       z     vdW  Elec       q    Type
REMARK                         _______ _______ _______ _____ _____    ______ ____
ROOT
ATOM      1  C   UNL     1       1.981   8.393  18.464  0.00  0.00    +0.000 C 
ATOM      2  O   UNL     1       2.048   8.961  17.378  0.00  0.00    +0.000 OA
ATOM      3  N   UNL     1       2.580   7.184  18.771  0.00  0.00    +0.000 N 
ATOM      4  H   UNL     1       2.337   6.753  19.663  0.00  0.00    +0.000 HD
ENDROOT
BRANCH   1  12
ATOM      5  C   UNL     1      -1.643  12.502  19.473  0.00  0.00    +0.000 C 
ATOM      6  C   UNL     1      -1.224  11.688  20.651  0.00  0.00    +0.000 A 
ATOM      7  C   UNL     1      -1.628  11.915  21.912  0.00  0.00    +0.000 A 
ATOM      8  S   UNL     1      -0.944  10.788  23.038  0.00  0.00    +0.000 S 
ATOM      9  C   UNL     1      -0.066   9.998  21.743  0.00  0.00    +0.000 A 
ATOM     10  N   UNL     1       0.719   8.996  21.924  0.00  0.00    +0.000 NA
ATOM     11  C   UNL     1       1.341   8.533  20.794  0.00  0.00    +0.000 A 
ATOM     12  C   UNL     1       1.173   9.014  19.550  0.00  0.00    +0.000 A 
ATOM     13  C   UNL     1       0.218  10.133  19.370  0.00  0.00    +0.000 A 
ATOM     14  O   UNL     1      -0.013  10.555  18.236  0.00  0.00    +0.000 OA
ATOM     15  N   UNL     1      -0.347  10.613  20.539  0.00  0.00    +0.000 N 
ENDBRANCH   1  12
BRANCH   3  16
ATOM     16  C   UNL     1       3.438   6.451  17.920  0.00  0.00    +0.000 A 
ATOM     17  C   UNL     1       3.289   5.082  17.698  0.00  0.00    +0.000 A 
ATOM     18  C   UNL     1       4.165   4.382  16.867  0.00  0.00    +0.000 A 
ATOM     19  C   UNL     1       5.216   5.041  16.225  0.00  0.00    +0.000 A 
ATOM     20  C   UNL     1       5.361   6.423  16.428  0.00  0.00    +0.000 A 
ATOM     21  C   UNL     1       4.474   7.124  17.260  0.00  0.00    +0.000 A 
BRANCH  19  22
ATOM     22  C   UNL     1       6.161   4.274  15.334  0.00  0.00    +0.000 C 
ATOM     23  F   UNL     1       7.476   4.517  15.602  0.00  0.00    +0.000 F 
ATOM     24  F   UNL     1       6.004   2.926  15.445  0.00  0.00    +0.000 F 
ATOM     25  F   UNL     1       5.992   4.566  14.016  0.00  0.00    +0.000 F 
ENDBRANCH  19  22
ENDBRANCH   3  16
TORSDOF 3
ENDMDL
MODEL 6
REMARK VINA RESULT:      -7.4      5.940      8.731
REMARK  Name = 
REMARK  4 active torsions:
REMARK  status: ('A' for Active; 'I' for Inactive)
REMARK    1  A    between atoms: C_1  and  C_2
REMARK    2  A    between atoms: C_8  and  C_9
REMARK    3  A    between atoms: N_11  and  C_12
REMARK    4  A    between atoms: C_15  and  C_16
REMARK                            x       y       z     vdW  Elec       q    Type
REMARK                         _______ _______ _______ _____ _____    ______ ____
ROOT
ATOM      1  C   UNL     1       1.536   8.526  19.562  0.00  0.00    +0.000 C 
ATOM      2  O   UNL     1       1.153   9.285  18.675  0.00  0.00    +0.000 OA
ATOM      3  N   UNL     1       1.330   8.713  20.917  0.00  0.00    +0.000 N 
ATOM      4  H   UNL     1       1.815   8.082  21.557  0.00  0.00    +0.000 HD
ENDROOT
BRANCH   1  12
ATOM      5  C   UNL     1       2.572   3.275  21.108  0.00  0.00    +0.000 C 
ATOM      6  C   UNL     1       3.321   3.772  19.918  0.00  0.00    +0.000 A 
ATOM      7  C   UNL     1       4.239   3.056  19.247  0.00  0.00    +0.000 A 
ATOM      8  S   UNL     1       4.924   3.939  17.921  0.00  0.00    +0.000 S 
ATOM      9  C   UNL     1       3.937   5.333  18.314  0.00  0.00    +0.000 A 
ATOM     10  N   UNL     1       3.978   6.439  17.661  0.00  0.00    +0.000 NA
ATOM     11  C   UNL     1       3.154   7.426  18.137  0.00  0.00    +0.000 A 
ATOM     12  C   UNL     1       2.314   7.314  19.181  0.00  0.00    +0.000 A 
ATOM     13  C   UNL     1       2.252   6.007  19.875  0.00  0.00    +0.000 A 
ATOM     14  O   UNL     1       1.446   5.845  20.792  0.00  0.00    +0.000 OA
ATOM     15  N   UNL     1       3.139   5.053  19.405  0.00  0.00    +0.000 N 
ENDBRANCH   1  12
BRANCH   3  16
ATOM     16  C   UNL     1       0.572   9.754  21.499  0.00  0.00    +0.000 A 
ATOM     17  C   UNL     1      -0.303   9.545  22.564  0.00  0.00    +0.000 A 
ATOM     18  C   UNL     1      -1.053  10.591  23.104  0.00  0.00    +0.000 A 
ATOM     19  C   UNL     1      -0.938  11.886  22.592  0.00  0.00    +0.000 A 
ATOM     20  C   UNL     1      -0.044  12.108  21.532  0.00  0.00    +0.000 A 
ATOM     21  C   UNL     1       0.712  11.054  20.997  0.00  0.00    +0.000 A 
BRANCH  19  22
ATOM     22  C   UNL     1      -1.757  13.008  23.179  0.00  0.00    +0.000 C 
ATOM     23  F   UNL     1      -1.048  13.815  24.021  0.00  0.00    +0.000 F 
ATOM     24  F   UNL     1      -2.271  13.833  22.225  0.00  0.00    +0.000 F 
ATOM     25  F   UNL     1      -2.819  12.561  23.902  0.00  0.00    +0.000 F 
ENDBRANCH  19  22
ENDBRANCH   3  16
TORSDOF 3
ENDMDL
MODEL 7
REMARK VINA RESULT:      -7.4      5.956      8.681
REMARK  Name = 
REMARK  4 active torsions:
REMARK  status: ('A' for Active; 'I' for Inactive)
REMARK    1  A    between atoms: C_1  and  C_2
REMARK    2  A    between atoms: C_8  and  C_9
REMARK    3  A    between atoms: N_11  and  C_12
REMARK    4  A    between atoms: C_15  and  C_16
REMARK                            x       y       z     vdW  Elec       q    Type
REMARK                         _______ _______ _______ _____ _____    ______ ____
ROOT
ATOM      1  C   UNL     1       1.623   8.310  19.632  0.00  0.00    +0.000 C 
ATOM      2  O   UNL     1       1.383   9.093  18.716  0.00  0.00    +0.000 OA
ATOM      3  N   UNL     1       1.294   8.511  20.960  0.00  0.00    +0.000 N 
ATOM      4  H   UNL     1       1.670   7.850  21.642  0.00  0.00    +0.000 HD
ENDROOT
BRANCH   1  12
ATOM      5  C   UNL     1       2.339   3.074  21.396  0.00  0.00    +0.000 C 
ATOM      6  C   UNL     1       3.157   3.492  20.221  0.00  0.00    +0.000 A 
ATOM      7  C   UNL     1       4.063   2.710  19.612  0.00  0.00    +0.000 A 
ATOM      8  S   UNL     1       4.841   3.510  18.285  0.00  0.00    +0.000 S 
ATOM      9  C   UNL     1       3.910   4.963  18.590  0.00  0.00    +0.000 A 
ATOM     10  N   UNL     1       4.030   6.042  17.902  0.00  0.00    +0.000 NA
ATOM     11  C   UNL     1       3.238   7.084  18.311  0.00  0.00    +0.000 A 
ATOM     12  C   UNL     1       2.354   7.050  19.324  0.00  0.00    +0.000 A 
ATOM     13  C   UNL     1       2.202   5.773  20.059  0.00  0.00    +0.000 A 
ATOM     14  O   UNL     1       1.354   5.683  20.948  0.00  0.00    +0.000 OA
ATOM     15  N   UNL     1       3.058   4.761  19.658  0.00  0.00    +0.000 N 
ENDBRANCH   1  12
BRANCH   3  16
ATOM     16  C   UNL     1       0.551   9.600  21.469  0.00  0.00    +0.000 A 
ATOM     17  C   UNL     1       0.622  10.882  20.925  0.00  0.00    +0.000 A 
ATOM     18  C   UNL     1      -0.109  11.941  21.464  0.00  0.00    +0.000 A 
ATOM     19  C   UNL     1      -0.944  11.740  22.566  0.00  0.00    +0.000 A 
ATOM     20  C   UNL     1      -1.035  10.449  23.109  0.00  0.00    +0.000 A 
ATOM     21  C   UNL     1      -0.302   9.385  22.559  0.00  0.00    +0.000 A 
BRANCH  19  22
ATOM     22  C   UNL     1      -1.725  12.893  23.145  0.00  0.00    +0.000 C 
ATOM     23  F   UNL     1      -0.986  13.692  23.967  0.00  0.00    +0.000 F 
ATOM     24  F   UNL     1      -2.227  13.718  22.184  0.00  0.00    +0.000 F 
ATOM     25  F   UNL     1      -2.791  12.485  23.886  0.00  0.00    +0.000 F 
ENDBRANCH  19  22
ENDBRANCH   3  16
TORSDOF 3
ENDMDL
MODEL 8
REMARK VINA RESULT:      -7.4      1.219      2.443
REMARK  Name = 
REMARK  4 active torsions:
REMARK  status: ('A' for Active; 'I' for Inactive)
REMARK    1  A    between atoms: C_1  and  C_2
REMARK    2  A    between atoms: C_8  and  C_9
REMARK    3  A    between atoms: N_11  and  C_12
REMARK    4  A    between atoms: C_15  and  C_16
REMARK                            x       y       z     vdW  Elec       q    Type
REMARK                         _______ _______ _______ _____ _____    ______ ____
ROOT
ATOM      1  C   UNL     1       1.523   7.952  20.471  0.00  0.00    +0.000 C 
ATOM      2  O   UNL     1       1.722   6.977  21.191  0.00  0.00    +0.000 OA
ATOM      3  N   UNL     1       2.034   8.121  19.197  0.00  0.00    +0.000 N 
ATOM      4  H   UNL     1       1.908   9.034  18.758  0.00  0.00    +0.000 HD
ENDROOT
BRANCH   1  12
ATOM      5  C   UNL     1      -1.671  12.220  18.851  0.00  0.00    +0.000 C 
ATOM      6  C   UNL     1      -1.462  12.073  20.321  0.00  0.00    +0.000 A 
ATOM      7  C   UNL     1      -1.953  12.916  21.244  0.00  0.00    +0.000 A 
ATOM      8  S   UNL     1      -1.515  12.456  22.858  0.00  0.00    +0.000 S 
ATOM      9  C   UNL     1      -0.619  11.081  22.243  0.00  0.00    +0.000 A 
ATOM     10  N   UNL     1       0.022  10.258  22.994  0.00  0.00    +0.000 NA
ATOM     11  C   UNL     1       0.689   9.262  22.327  0.00  0.00    +0.000 A 
ATOM     12  C   UNL     1       0.695   9.074  20.996  0.00  0.00    +0.000 A 
ATOM     13  C   UNL     1      -0.100  10.009  20.167  0.00  0.00    +0.000 A 
ATOM     14  O   UNL     1      -0.173   9.828  18.950  0.00  0.00    +0.000 OA
ATOM     15  N   UNL     1      -0.711  11.035  20.866  0.00  0.00    +0.000 N 
ENDBRANCH   1  12
BRANCH   3  16
ATOM     16  C   UNL     1       2.791   7.167  18.480  0.00  0.00    +0.000 A 
ATOM     17  C   UNL     1       3.924   7.504  17.739  0.00  0.00    +0.000 A 
ATOM     18  C   UNL     1       4.638   6.541  17.025  0.00  0.00    +0.000 A 
ATOM     19  C   UNL     1       4.238   5.203  17.041  0.00  0.00    +0.000 A 
ATOM     20  C   UNL     1       3.110   4.852  17.800  0.00  0.00    +0.000 A 
ATOM     21  C   UNL     1       2.398   5.823  18.521  0.00  0.00    +0.000 A 
BRANCH  19  22
ATOM     22  C   UNL     1       5.013   4.171  16.262  0.00  0.00    +0.000 C 
ATOM     23  F   UNL     1       4.686   2.887  16.586  0.00  0.00    +0.000 F 
ATOM     24  F   UNL     1       4.814   4.273  14.918  0.00  0.00    +0.000 F 
ATOM     25  F   UNL     1       6.357   4.270  16.452  0.00  0.00    +0.000 F 
ENDBRANCH  19  22
ENDBRANCH   3  16
TORSDOF 3
ENDMDL
MODEL 9
REMARK VINA RESULT:      -7.3      1.247      2.162
REMARK  Name = 
REMARK  4 active torsions:
REMARK  status: ('A' for Active; 'I' for Inactive)
REMARK    1  A    between atoms: C_1  and  C_2
REMARK    2  A    between atoms: C_8  and  C_9
REMARK    3  A    between atoms: N_11  and  C_12
REMARK    4  A    between atoms: C_15  and  C_16
REMARK                            x       y       z     vdW  Elec       q    Type
REMARK                         _______ _______ _______ _____ _____    ______ ____
ROOT
ATOM      1  C   UNL     1       1.771   8.813  18.515  0.00  0.00    +0.000 C 
ATOM      2  O   UNL     1       1.909   9.370  17.429  0.00  0.00    +0.000 OA
ATOM      3  N   UNL     1       2.298   7.579  18.852  0.00  0.00    +0.000 N 
ATOM      4  H   UNL     1       1.998   7.167  19.737  0.00  0.00    +0.000 HD
ENDROOT
BRANCH   1  12
ATOM      5  C   UNL     1      -2.508  12.311  19.215  0.00  0.00    +0.000 C 
ATOM      6  C   UNL     1      -1.832  11.840  20.458  0.00  0.00    +0.000 A 
ATOM      7  C   UNL     1      -2.162  12.237  21.698  0.00  0.00    +0.000 A 
ATOM      8  S   UNL     1      -1.168  11.501  22.914  0.00  0.00    +0.000 S 
ATOM      9  C   UNL     1      -0.265  10.641  21.683  0.00  0.00    +0.000 A 
ATOM     10  N   UNL     1       0.719   9.856  21.941  0.00  0.00    +0.000 NA
ATOM     11  C   UNL     1       1.321   9.297  20.843  0.00  0.00    +0.000 A 
ATOM     12  C   UNL     1       0.951   9.481  19.564  0.00  0.00    +0.000 A 
ATOM     13  C   UNL     1      -0.222  10.349  19.307  0.00  0.00    +0.000 A 
ATOM     14  O   UNL     1      -0.632  10.486  18.153  0.00  0.00    +0.000 OA
ATOM     15  N   UNL     1      -0.768  10.941  20.432  0.00  0.00    +0.000 N 
ENDBRANCH   1  12
BRANCH   3  16
ATOM     16  C   UNL     1       3.151   6.798  18.041  0.00  0.00    +0.000 A 
ATOM     17  C   UNL     1       4.195   7.347  17.295  0.00  0.00    +0.000 A 
ATOM     18  C   UNL     1       5.007   6.551  16.487  0.00  0.00    +0.000 A 
ATOM     19  C   UNL     1       4.801   5.172  16.411  0.00  0.00    +0.000 A 
ATOM     20  C   UNL     1       3.765   4.608  17.173  0.00  0.00    +0.000 A 
ATOM     21  C   UNL     1       2.954   5.413  17.989  0.00  0.00    +0.000 A 
BRANCH  19  22
ATOM     22  C   UNL     1       5.681   4.321  15.530  0.00  0.00    +0.000 C 
ATOM     23  F   UNL     1       5.726   3.012  15.910  0.00  0.00    +0.000 F 
ATOM     24  F   UNL     1       5.270   4.314  14.232  0.00  0.00    +0.000 F 
ATOM     25  F   UNL     1       6.973   4.746  15.513  0.00  0.00    +0.000 F 
ENDBRANCH  19  22
ENDBRANCH   3  16
TORSDOF 3
ENDMDL
