MODEL 1
REMARK VINA RESULT:      -7.5      0.000      0.000
REMARK  Name = 
REMARK  12 active torsions:
REMARK  status: ('A' for Active; 'I' for Inactive)
REMARK    1  A    between atoms: C_1  and  C_2
REMARK    2  A    between atoms: C_2  and  C_3
REMARK    3  A    between atoms: C_2  and  N_4
REMARK    4  A    between atoms: N_4  and  C_5
REMARK    5  A    between atoms: N_4  and  C_27
REMARK    6  A    between atoms: C_5  and  C_6
REMARK    7  A    between atoms: C_6  and  N_7
REMARK    8  A    between atoms: C_8  and  C_10
REMARK    9  A    between atoms: N_12  and  C_13
REMARK   10  A    between atoms: C_20  and  C_21
REMARK   11  A    between atoms: C_27  and  C_28
REMARK   12  A    between atoms: C_27  and  C_29
REMARK                            x       y       z     vdW  Elec       q    Type
REMARK                         _______ _______ _______ _____ _____    ______ ____
ROOT
ATOM      1  C   UNL     1       6.621   6.302  16.939  0.00  0.00    +0.000 A 
ATOM      2  C   UNL     1       7.133   5.875  15.732  0.00  0.00    +0.000 A 
ATOM      3  N   UNL     1       6.141   5.204  15.072  0.00  0.00    +0.000 N 
ATOM      4  N   UNL     1       4.970   5.267  15.755  0.00  0.00    +0.000 NA
ATOM      5  C   UNL     1       5.240   5.944  16.885  0.00  0.00    +0.000 A 
ENDROOT
BRANCH   3   6
ATOM      6  C   UNL     1       6.259   4.480  13.851  0.00  0.00    +0.000 A 
ATOM      7  C   UNL     1       5.232   3.616  13.423  0.00  0.00    +0.000 A 
ATOM      8  C   UNL     1       5.343   2.942  12.206  0.00  0.00    +0.000 A 
ATOM      9  C   UNL     1       6.477   3.114  11.412  0.00  0.00    +0.000 A 
ATOM     10  C   UNL     1       7.502   3.959  11.832  0.00  0.00    +0.000 A 
ATOM     11  C   UNL     1       7.395   4.644  13.049  0.00  0.00    +0.000 A 
ENDBRANCH   3   6
BRANCH   5  12
ATOM     12  C   UNL     1       4.176   6.209  17.870  0.00  0.00    +0.000 A 
ATOM     13  C   UNL     1       3.998   5.355  18.968  0.00  0.00    +0.000 A 
ATOM     14  C   UNL     1       3.058   5.652  19.961  0.00  0.00    +0.000 A 
ATOM     15  C   UNL     1       2.290   6.811  19.873  0.00  0.00    +0.000 A 
ATOM     16  C   UNL     1       2.424   7.647  18.770  0.00  0.00    +0.000 A 
ATOM     17  C   UNL     1       3.337   7.328  17.760  0.00  0.00    +0.000 A 
ENDBRANCH   5  12
BRANCH   1  19
ATOM     18  N   UNL     1       7.718   8.309  17.653  0.00  0.00    +0.000 N 
ATOM     19  C   UNL     1       7.428   6.989  17.928  0.00  0.00    +0.000 C 
ATOM     20  O   UNL     1       7.793   6.427  18.955  0.00  0.00    +0.000 OA
ATOM     21  H   UNL     1       7.377   8.721  16.793  0.00  0.00    +0.000 HD
BRANCH  18  22
ATOM     22  C   UNL     1       8.717   9.027  18.419  0.00  0.00    +0.000 C 
BRANCH  22  23
ATOM     23  C   UNL     1       8.595  10.556  18.271  0.00  0.00    +0.000 C 
BRANCH  23  24
ATOM     24  N   UNL     1       9.855  11.330  18.486  0.00  0.00    +0.000 NA
BRANCH  24  26
ATOM     25  C   UNL     1      11.747  11.830  20.076  0.00  0.00    +0.000 C 
ATOM     26  C   UNL     1      10.391  11.113  19.867  0.00  0.00    +0.000 C 
ATOM     27  C   UNL     1       9.489  11.595  21.015  0.00  0.00    +0.000 C 
ENDBRANCH  24  26
BRANCH  24  28
ATOM     28  C   UNL     1       9.685  12.757  18.045  0.00  0.00    +0.000 C 
ATOM     29  C   UNL     1      10.676  13.247  16.976  0.00  0.00    +0.000 C 
ATOM     30  C   UNL     1       8.283  13.028  17.442  0.00  0.00    +0.000 C 
ENDBRANCH  24  28
ENDBRANCH  23  24
ENDBRANCH  22  23
ENDBRANCH  18  22
ENDBRANCH   1  19
TORSDOF 8
ENDMDL
MODEL 2
REMARK VINA RESULT:      -7.4      0.667      1.775
REMARK  Name = 
REMARK  12 active torsions:
REMARK  status: ('A' for Active; 'I' for Inactive)
REMARK    1  A    between atoms: C_1  and  C_2
REMARK    2  A    between atoms: C_2  and  C_3
REMARK    3  A    between atoms: C_2  and  N_4
REMARK    4  A    between atoms: N_4  and  C_5
REMARK    5  A    between atoms: N_4  and  C_27
REMARK    6  A    between atoms: C_5  and  C_6
REMARK    7  A    between atoms: C_6  and  N_7
REMARK    8  A    between atoms: C_8  and  C_10
REMARK    9  A    between atoms: N_12  and  C_13
REMARK   10  A    between atoms: C_20  and  C_21
REMARK   11  A    between atoms: C_27  and  C_28
REMARK   12  A    between atoms: C_27  and  C_29
REMARK                            x       y       z     vdW  Elec       q    Type
REMARK                         _______ _______ _______ _____ _____    ______ ____
ROOT
ATOM      1  C   UNL     1       6.640   6.415  16.927  0.00  0.00    +0.000 A 
ATOM      2  C   UNL     1       7.161   5.978  15.727  0.00  0.00    +0.000 A 
ATOM      3  N   UNL     1       6.173   5.303  15.066  0.00  0.00    +0.000 N 
ATOM      4  N   UNL     1       4.997   5.372  15.740  0.00  0.00    +0.000 NA
ATOM      5  C   UNL     1       5.259   6.058  16.867  0.00  0.00    +0.000 A 
ENDROOT
BRANCH   3   6
ATOM      6  C   UNL     1       6.298   4.569  13.851  0.00  0.00    +0.000 A 
ATOM      7  C   UNL     1       7.426   4.732  13.024  0.00  0.00    +0.000 A 
ATOM      8  C   UNL     1       7.555   3.979  11.856  0.00  0.00    +0.000 A 
ATOM      9  C   UNL     1       6.561   3.069  11.497  0.00  0.00    +0.000 A 
ATOM     10  C   UNL     1       5.436   2.909  12.304  0.00  0.00    +0.000 A 
ATOM     11  C   UNL     1       5.303   3.656  13.481  0.00  0.00    +0.000 A 
ENDBRANCH   3   6
BRANCH   5  12
ATOM     12  C   UNL     1       4.188   6.331  17.842  0.00  0.00    +0.000 A 
ATOM     13  C   UNL     1       4.012   5.494  18.953  0.00  0.00    +0.000 A 
ATOM     14  C   UNL     1       3.064   5.800  19.937  0.00  0.00    +0.000 A 
ATOM     15  C   UNL     1       2.289   6.952  19.826  0.00  0.00    +0.000 A 
ATOM     16  C   UNL     1       2.423   7.771  18.710  0.00  0.00    +0.000 A 
ATOM     17  C   UNL     1       3.342   7.442  17.709  0.00  0.00    +0.000 A 
ENDBRANCH   5  12
BRANCH   1  19
ATOM     18  N   UNL     1       7.615   8.461  17.705  0.00  0.00    +0.000 N 
ATOM     19  C   UNL     1       7.441   7.110  17.917  0.00  0.00    +0.000 C 
ATOM     20  O   UNL     1       7.899   6.523  18.892  0.00  0.00    +0.000 OA
ATOM     21  H   UNL     1       7.201   8.891  16.888  0.00  0.00    +0.000 HD
BRANCH  18  22
ATOM     22  C   UNL     1       8.593   9.213  18.465  0.00  0.00    +0.000 C 
BRANCH  22  23
ATOM     23  C   UNL     1       8.781  10.649  17.938  0.00  0.00    +0.000 C 
BRANCH  23  24
ATOM     24  N   UNL     1       9.349  11.628  18.914  0.00  0.00    +0.000 NA
BRANCH  24  26
ATOM     25  C   UNL     1       7.916  13.066  17.416  0.00  0.00    +0.000 C 
ATOM     26  C   UNL     1       8.976  13.031  18.545  0.00  0.00    +0.000 C 
ATOM     27  C   UNL     1       8.393  13.885  19.682  0.00  0.00    +0.000 C 
ENDBRANCH  24  26
BRANCH  24  28
ATOM     28  C   UNL     1      10.808  11.359  19.152  0.00  0.00    +0.000 C 
ATOM     29  C   UNL     1      11.761  11.808  18.032  0.00  0.00    +0.000 C 
ATOM     30  C   UNL     1      11.338  12.059  20.429  0.00  0.00    +0.000 C 
ENDBRANCH  24  28
ENDBRANCH  23  24
ENDBRANCH  22  23
ENDBRANCH  18  22
ENDBRANCH   1  19
TORSDOF 8
ENDMDL
MODEL 3
REMARK VINA RESULT:      -7.4      1.513      5.066
REMARK  Name = 
REMARK  12 active torsions:
REMARK  status: ('A' for Active; 'I' for Inactive)
REMARK    1  A    between atoms: C_1  and  C_2
REMARK    2  A    between atoms: C_2  and  C_3
REMARK    3  A    between atoms: C_2  and  N_4
REMARK    4  A    between atoms: N_4  and  C_5
REMARK    5  A    between atoms: N_4  and  C_27
REMARK    6  A    between atoms: C_5  and  C_6
REMARK    7  A    between atoms: C_6  and  N_7
REMARK    8  A    between atoms: C_8  and  C_10
REMARK    9  A    between atoms: N_12  and  C_13
REMARK   10  A    between atoms: C_20  and  C_21
REMARK   11  A    between atoms: C_27  and  C_28
REMARK   12  A    between atoms: C_27  and  C_29
REMARK                            x       y       z     vdW  Elec       q    Type
REMARK                         _______ _______ _______ _____ _____    ______ ____
ROOT
ATOM      1  C   UNL     1       6.103   5.676  17.664  0.00  0.00    +0.000 A 
ATOM      2  C   UNL     1       5.202   5.438  18.681  0.00  0.00    +0.000 A 
ATOM      3  N   UNL     1       4.195   4.666  18.172  0.00  0.00    +0.000 N 
ATOM      4  N   UNL     1       4.455   4.303  16.891  0.00  0.00    +0.000 NA
ATOM      5  C   UNL     1       5.619   4.896  16.570  0.00  0.00    +0.000 A 
ENDROOT
BRANCH   3   6
ATOM      6  C   UNL     1       2.987   4.288  18.828  0.00  0.00    +0.000 A 
ATOM      7  C   UNL     1       2.036   3.480  18.177  0.00  0.00    +0.000 A 
ATOM      8  C   UNL     1       0.876   3.085  18.844  0.00  0.00    +0.000 A 
ATOM      9  C   UNL     1       0.648   3.499  20.156  0.00  0.00    +0.000 A 
ATOM     10  C   UNL     1       1.580   4.307  20.806  0.00  0.00    +0.000 A 
ATOM     11  C   UNL     1       2.750   4.702  20.145  0.00  0.00    +0.000 A 
ENDBRANCH   3   6
BRANCH   5  12
ATOM     12  C   UNL     1       6.211   4.706  15.235  0.00  0.00    +0.000 A 
ATOM     13  C   UNL     1       5.605   3.848  14.306  0.00  0.00    +0.000 A 
ATOM     14  C   UNL     1       6.103   3.737  13.002  0.00  0.00    +0.000 A 
ATOM     15  C   UNL     1       7.207   4.490  12.609  0.00  0.00    +0.000 A 
ATOM     16  C   UNL     1       7.844   5.314  13.530  0.00  0.00    +0.000 A 
ATOM     17  C   UNL     1       7.370   5.394  14.842  0.00  0.00    +0.000 A 
ENDBRANCH   5  12
BRANCH   1  19
ATOM     18  N   UNL     1       7.090   7.853  17.500  0.00  0.00    +0.000 N 
ATOM     19  C   UNL     1       7.264   6.527  17.835  0.00  0.00    +0.000 C 
ATOM     20  O   UNL     1       8.318   6.085  18.282  0.00  0.00    +0.000 OA
ATOM     21  H   UNL     1       6.192   8.161  17.149  0.00  0.00    +0.000 HD
BRANCH  18  22
ATOM     22  C   UNL     1       8.226   8.746  17.381  0.00  0.00    +0.000 C 
BRANCH  22  23
ATOM     23  C   UNL     1       8.011  10.084  18.114  0.00  0.00    +0.000 C 
BRANCH  23  24
ATOM     24  N   UNL     1       9.226  10.941  18.267  0.00  0.00    +0.000 NA
BRANCH  24  26
ATOM     25  C   UNL     1      11.335  11.305  19.601  0.00  0.00    +0.000 C 
ATOM     26  C   UNL     1       9.937  10.640  19.550  0.00  0.00    +0.000 C 
ATOM     27  C   UNL     1       9.219  11.092  20.831  0.00  0.00    +0.000 C 
ENDBRANCH  24  26
BRANCH  24  28
ATOM     28  C   UNL     1       8.898  12.383  18.000  0.00  0.00    +0.000 C 
ATOM     29  C   UNL     1       9.983  13.188  17.266  0.00  0.00    +0.000 C 
ATOM     30  C   UNL     1       7.624  12.550  17.134  0.00  0.00    +0.000 C 
ENDBRANCH  24  28
ENDBRANCH  23  24
ENDBRANCH  22  23
ENDBRANCH  18  22
ENDBRANCH   1  19
TORSDOF 8
ENDMDL
MODEL 4
REMARK VINA RESULT:      -7.3      4.622      7.039
REMARK  Name = 
REMARK  12 active torsions:
REMARK  status: ('A' for Active; 'I' for Inactive)
REMARK    1  A    between atoms: C_1  and  C_2
REMARK    2  A    between atoms: C_2  and  C_3
REMARK    3  A    between atoms: C_2  and  N_4
REMARK    4  A    between atoms: N_4  and  C_5
REMARK    5  A    between atoms: N_4  and  C_27
REMARK    6  A    between atoms: C_5  and  C_6
REMARK    7  A    between atoms: C_6  and  N_7
REMARK    8  A    between atoms: C_8  and  C_10
REMARK    9  A    between atoms: N_12  and  C_13
REMARK   10  A    between atoms: C_20  and  C_21
REMARK   11  A    between atoms: C_27  and  C_28
REMARK   12  A    between atoms: C_27  and  C_29
REMARK                            x       y       z     vdW  Elec       q    Type
REMARK                         _______ _______ _______ _____ _____    ______ ____
ROOT
ATOM      1  C   UNL     1       3.074   6.565  18.110  0.00  0.00    +0.000 A 
ATOM      2  C   UNL     1       3.878   6.714  16.999  0.00  0.00    +0.000 A 
ATOM      3  N   UNL     1       4.437   5.497  16.724  0.00  0.00    +0.000 N 
ATOM      4  N   UNL     1       3.949   4.536  17.548  0.00  0.00    +0.000 NA
ATOM      5  C   UNL     1       3.107   5.165  18.388  0.00  0.00    +0.000 A 
ENDROOT
BRANCH   3   6
ATOM      6  C   UNL     1       5.434   5.210  15.746  0.00  0.00    +0.000 A 
ATOM      7  C   UNL     1       6.761   5.644  15.922  0.00  0.00    +0.000 A 
ATOM      8  C   UNL     1       7.735   5.324  14.975  0.00  0.00    +0.000 A 
ATOM      9  C   UNL     1       7.395   4.581  13.845  0.00  0.00    +0.000 A 
ATOM     10  C   UNL     1       6.081   4.156  13.658  0.00  0.00    +0.000 A 
ATOM     11  C   UNL     1       5.099   4.468  14.607  0.00  0.00    +0.000 A 
ENDBRANCH   3   6
BRANCH   5  12
ATOM     12  C   UNL     1       2.383   4.409  19.425  0.00  0.00    +0.000 A 
ATOM     13  C   UNL     1       1.272   3.624  19.084  0.00  0.00    +0.000 A 
ATOM     14  C   UNL     1       0.638   2.825  20.043  0.00  0.00    +0.000 A 
ATOM     15  C   UNL     1       1.114   2.794  21.352  0.00  0.00    +0.000 A 
ATOM     16  C   UNL     1       2.189   3.598  21.716  0.00  0.00    +0.000 A 
ATOM     17  C   UNL     1       2.795   4.425  20.766  0.00  0.00    +0.000 A 
ENDBRANCH   5  12
BRANCH   1  19
ATOM     18  N   UNL     1       1.834   8.599  17.853  0.00  0.00    +0.000 N 
ATOM     19  C   UNL     1       2.380   7.680  18.724  0.00  0.00    +0.000 C 
ATOM     20  O   UNL     1       2.267   7.768  19.942  0.00  0.00    +0.000 OA
ATOM     21  H   UNL     1       1.950   8.464  16.856  0.00  0.00    +0.000 HD
BRANCH  18  22
ATOM     22  C   UNL     1       1.344   9.877  18.329  0.00  0.00    +0.000 C 
BRANCH  22  23
ATOM     23  C   UNL     1      -0.133   9.824  18.765  0.00  0.00    +0.000 C 
BRANCH  23  24
ATOM     24  N   UNL     1      -1.052  10.767  18.058  0.00  0.00    +0.000 NA
BRANCH  24  26
ATOM     25  C   UNL     1      -0.912  11.833  20.339  0.00  0.00    +0.000 C 
ATOM     26  C   UNL     1      -1.224  12.035  18.836  0.00  0.00    +0.000 C 
ATOM     27  C   UNL     1      -0.346  13.215  18.389  0.00  0.00    +0.000 C 
ENDBRANCH  24  26
BRANCH  24  28
ATOM     28  C   UNL     1      -2.308  10.064  17.626  0.00  0.00    +0.000 C 
ATOM     29  C   UNL     1      -3.623  10.793  17.947  0.00  0.00    +0.000 C 
ATOM     30  C   UNL     1      -2.353   9.818  16.097  0.00  0.00    +0.000 C 
ENDBRANCH  24  28
ENDBRANCH  23  24
ENDBRANCH  22  23
ENDBRANCH  18  22
ENDBRANCH   1  19
TORSDOF 8
ENDMDL
MODEL 5
REMARK VINA RESULT:      -7.3      6.388      9.581
REMARK  Name = 
REMARK  12 active torsions:
REMARK  status: ('A' for Active; 'I' for Inactive)
REMARK    1  A    between atoms: C_1  and  C_2
REMARK    2  A    between atoms: C_2  and  C_3
REMARK    3  A    between atoms: C_2  and  N_4
REMARK    4  A    between atoms: N_4  and  C_5
REMARK    5  A    between atoms: N_4  and  C_27
REMARK    6  A    between atoms: C_5  and  C_6
REMARK    7  A    between atoms: C_6  and  N_7
REMARK    8  A    between atoms: C_8  and  C_10
REMARK    9  A    between atoms: N_12  and  C_13
REMARK   10  A    between atoms: C_20  and  C_21
REMARK   11  A    between atoms: C_27  and  C_28
REMARK   12  A    between atoms: C_27  and  C_29
REMARK                            x       y       z     vdW  Elec       q    Type
REMARK                         _______ _______ _______ _____ _____    ______ ____
ROOT
ATOM      1  C   UNL     1       1.177   9.013  20.673  0.00  0.00    +0.000 A 
ATOM      2  C   UNL     1       1.842   7.813  20.531  0.00  0.00    +0.000 A 
ATOM      3  N   UNL     1       2.083   7.626  19.198  0.00  0.00    +0.000 N 
ATOM      4  N   UNL     1       1.696   8.707  18.475  0.00  0.00    +0.000 NA
ATOM      5  C   UNL     1       1.157   9.566  19.357  0.00  0.00    +0.000 A 
ENDROOT
BRANCH   3   6
ATOM      6  C   UNL     1       2.628   6.464  18.579  0.00  0.00    +0.000 A 
ATOM      7  C   UNL     1       2.032   5.202  18.764  0.00  0.00    +0.000 A 
ATOM      8  C   UNL     1       2.552   4.079  18.120  0.00  0.00    +0.000 A 
ATOM      9  C   UNL     1       3.672   4.200  17.298  0.00  0.00    +0.000 A 
ATOM     10  C   UNL     1       4.275   5.443  17.117  0.00  0.00    +0.000 A 
ATOM     11  C   UNL     1       3.754   6.577  17.754  0.00  0.00    +0.000 A 
ENDBRANCH   3   6
BRANCH   5  12
ATOM     12  C   UNL     1       0.633  10.869  18.908  0.00  0.00    +0.000 A 
ATOM     13  C   UNL     1      -0.714  11.004  18.543  0.00  0.00    +0.000 A 
ATOM     14  C   UNL     1      -1.244  12.256  18.212  0.00  0.00    +0.000 A 
ATOM     15  C   UNL     1      -0.436  13.390  18.250  0.00  0.00    +0.000 A 
ATOM     16  C   UNL     1       0.912  13.267  18.569  0.00  0.00    +0.000 A 
ATOM     17  C   UNL     1       1.449  12.010  18.862  0.00  0.00    +0.000 A 
ENDBRANCH   5  12
BRANCH   1  19
ATOM     18  N   UNL     1      -0.610   9.920  21.986  0.00  0.00    +0.000 N 
ATOM     19  C   UNL     1       0.700   9.492  21.956  0.00  0.00    +0.000 C 
ATOM     20  O   UNL     1       1.420   9.481  22.949  0.00  0.00    +0.000 OA
ATOM     21  H   UNL     1      -1.159   9.893  21.135  0.00  0.00    +0.000 HD
BRANCH  18  22
ATOM     22  C   UNL     1      -1.129  10.653  23.124  0.00  0.00    +0.000 C 
BRANCH  22  23
ATOM     23  C   UNL     1      -1.539  12.095  22.767  0.00  0.00    +0.000 C 
BRANCH  23  24
ATOM     24  N   UNL     1      -2.999  12.395  22.857  0.00  0.00    +0.000 NA
BRANCH  24  26
ATOM     25  C   UNL     1      -2.212  14.161  21.239  0.00  0.00    +0.000 C 
ATOM     26  C   UNL     1      -3.417  13.361  21.792  0.00  0.00    +0.000 C 
ATOM     27  C   UNL     1      -4.100  12.743  20.562  0.00  0.00    +0.000 C 
ENDBRANCH  24  26
BRANCH  24  28
ATOM     28  C   UNL     1      -3.387  12.737  24.269  0.00  0.00    +0.000 C 
ATOM     29  C   UNL     1      -3.360  14.233  24.623  0.00  0.00    +0.000 C 
ATOM     30  C   UNL     1      -4.823  12.272  24.617  0.00  0.00    +0.000 C 
ENDBRANCH  24  28
ENDBRANCH  23  24
ENDBRANCH  22  23
ENDBRANCH  18  22
ENDBRANCH   1  19
TORSDOF 8
ENDMDL
MODEL 6
REMARK VINA RESULT:      -7.3      0.660      1.145
REMARK  Name = 
REMARK  12 active torsions:
REMARK  status: ('A' for Active; 'I' for Inactive)
REMARK    1  A    between atoms: C_1  and  C_2
REMARK    2  A    between atoms: C_2  and  C_3
REMARK    3  A    between atoms: C_2  and  N_4
REMARK    4  A    between atoms: N_4  and  C_5
REMARK    5  A    between atoms: N_4  and  C_27
REMARK    6  A    between atoms: C_5  and  C_6
REMARK    7  A    between atoms: C_6  and  N_7
REMARK    8  A    between atoms: C_8  and  C_10
REMARK    9  A    between atoms: N_12  and  C_13
REMARK   10  A    between atoms: C_20  and  C_21
REMARK   11  A    between atoms: C_27  and  C_28
REMARK   12  A    between atoms: C_27  and  C_29
REMARK                            x       y       z     vdW  Elec       q    Type
REMARK                         _______ _______ _______ _____ _____    ______ ____
ROOT
ATOM      1  C   UNL     1       6.366   5.902  16.851  0.00  0.00    +0.000 A 
ATOM      2  C   UNL     1       6.796   5.620  15.571  0.00  0.00    +0.000 A 
ATOM      3  N   UNL     1       5.856   4.820  14.983  0.00  0.00    +0.000 N 
ATOM      4  N   UNL     1       4.779   4.656  15.792  0.00  0.00    +0.000 NA
ATOM      5  C   UNL     1       5.065   5.319  16.925  0.00  0.00    +0.000 A 
ENDROOT
BRANCH   3   6
ATOM      6  C   UNL     1       5.946   4.179  13.713  0.00  0.00    +0.000 A 
ATOM      7  C   UNL     1       7.176   4.091  13.036  0.00  0.00    +0.000 A 
ATOM      8  C   UNL     1       7.258   3.427  11.811  0.00  0.00    +0.000 A 
ATOM      9  C   UNL     1       6.117   2.857  11.247  0.00  0.00    +0.000 A 
ATOM     10  C   UNL     1       4.892   2.948  11.906  0.00  0.00    +0.000 A 
ATOM     11  C   UNL     1       4.804   3.607  13.139  0.00  0.00    +0.000 A 
ENDBRANCH   3   6
BRANCH   5  12
ATOM     12  C   UNL     1       4.095   5.358  18.034  0.00  0.00    +0.000 A 
ATOM     13  C   UNL     1       3.873   4.219  18.822  0.00  0.00    +0.000 A 
ATOM     14  C   UNL     1       3.030   4.274  19.938  0.00  0.00    +0.000 A 
ATOM     15  C   UNL     1       2.406   5.470  20.285  0.00  0.00    +0.000 A 
ATOM     16  C   UNL     1       2.583   6.598  19.491  0.00  0.00    +0.000 A 
ATOM     17  C   UNL     1       3.395   6.531  18.355  0.00  0.00    +0.000 A 
ENDBRANCH   5  12
BRANCH   1  19
ATOM     18  N   UNL     1       7.482   7.953  17.389  0.00  0.00    +0.000 N 
ATOM     19  C   UNL     1       7.161   6.673  17.787  0.00  0.00    +0.000 C 
ATOM     20  O   UNL     1       7.491   6.210  18.875  0.00  0.00    +0.000 OA
ATOM     21  H   UNL     1       7.169   8.283  16.484  0.00  0.00    +0.000 HD
BRANCH  18  22
ATOM     22  C   UNL     1       8.475   8.729  18.106  0.00  0.00    +0.000 C 
BRANCH  22  23
ATOM     23  C   UNL     1       8.193  10.243  18.061  0.00  0.00    +0.000 C 
BRANCH  23  24
ATOM     24  N   UNL     1       9.369  11.129  18.317  0.00  0.00    +0.000 NA
BRANCH  24  26
ATOM     25  C   UNL     1      11.384  11.483  19.793  0.00  0.00    +0.000 C 
ATOM     26  C   UNL     1       9.986  10.831  19.649  0.00  0.00    +0.000 C 
ATOM     27  C   UNL     1       9.185  11.300  20.873  0.00  0.00    +0.000 C 
ENDBRANCH  24  26
BRANCH  24  28
ATOM     28  C   UNL     1       9.026  12.565  18.039  0.00  0.00    +0.000 C 
ATOM     29  C   UNL     1      10.089  13.368  17.271  0.00  0.00    +0.000 C 
ATOM     30  C   UNL     1       7.732  12.712  17.198  0.00  0.00    +0.000 C 
ENDBRANCH  24  28
ENDBRANCH  23  24
ENDBRANCH  22  23
ENDBRANCH  18  22
ENDBRANCH   1  19
TORSDOF 8
ENDMDL
MODEL 7
REMARK VINA RESULT:      -7.3      4.719      6.664
REMARK  Name = 
REMARK  12 active torsions:
REMARK  status: ('A' for Active; 'I' for Inactive)
REMARK    1  A    between atoms: C_1  and  C_2
REMARK    2  A    between atoms: C_2  and  C_3
REMARK    3  A    between atoms: C_2  and  N_4
REMARK    4  A    between atoms: N_4  and  C_5
REMARK    5  A    between atoms: N_4  and  C_27
REMARK    6  A    between atoms: C_5  and  C_6
REMARK    7  A    between atoms: C_6  and  N_7
REMARK    8  A    between atoms: C_8  and  C_10
REMARK    9  A    between atoms: N_12  and  C_13
REMARK   10  A    between atoms: C_20  and  C_21
REMARK   11  A    between atoms: C_27  and  C_28
REMARK   12  A    between atoms: C_27  and  C_29
REMARK                            x       y       z     vdW  Elec       q    Type
REMARK                         _______ _______ _______ _____ _____    ______ ____
ROOT
ATOM      1  C   UNL     1       3.231   6.186  18.029  0.00  0.00    +0.000 A 
ATOM      2  C   UNL     1       3.977   6.374  16.885  0.00  0.00    +0.000 A 
ATOM      3  N   UNL     1       4.510   5.165  16.531  0.00  0.00    +0.000 N 
ATOM      4  N   UNL     1       4.054   4.175  17.339  0.00  0.00    +0.000 NA
ATOM      5  C   UNL     1       3.264   4.775  18.247  0.00  0.00    +0.000 A 
ENDROOT
BRANCH   3   6
ATOM      6  C   UNL     1       5.451   4.912  15.492  0.00  0.00    +0.000 A 
ATOM      7  C   UNL     1       5.120   4.076  14.408  0.00  0.00    +0.000 A 
ATOM      8  C   UNL     1       6.038   3.867  13.377  0.00  0.00    +0.000 A 
ATOM      9  C   UNL     1       7.291   4.477  13.422  0.00  0.00    +0.000 A 
ATOM     10  C   UNL     1       7.631   5.298  14.496  0.00  0.00    +0.000 A 
ATOM     11  C   UNL     1       6.713   5.518  15.531  0.00  0.00    +0.000 A 
ENDBRANCH   3   6
BRANCH   5  12
ATOM     12  C   UNL     1       2.586   3.982  19.288  0.00  0.00    +0.000 A 
ATOM     13  C   UNL     1       3.291   3.549  20.420  0.00  0.00    +0.000 A 
ATOM     14  C   UNL     1       2.634   2.882  21.461  0.00  0.00    +0.000 A 
ATOM     15  C   UNL     1       1.263   2.651  21.387  0.00  0.00    +0.000 A 
ATOM     16  C   UNL     1       0.556   3.038  20.254  0.00  0.00    +0.000 A 
ATOM     17  C   UNL     1       1.221   3.668  19.198  0.00  0.00    +0.000 A 
ENDBRANCH   5  12
BRANCH   1  19
ATOM     18  N   UNL     1       2.073   8.280  17.923  0.00  0.00    +0.000 N 
ATOM     19  C   UNL     1       2.581   7.279  18.724  0.00  0.00    +0.000 C 
ATOM     20  O   UNL     1       2.470   7.283  19.946  0.00  0.00    +0.000 OA
ATOM     21  H   UNL     1       2.185   8.214  16.918  0.00  0.00    +0.000 HD
BRANCH  18  22
ATOM     22  C   UNL     1       1.634   9.539  18.492  0.00  0.00    +0.000 C 
BRANCH  22  23
ATOM     23  C   UNL     1       0.158   9.852  18.179  0.00  0.00    +0.000 C 
BRANCH  23  24
ATOM     24  N   UNL     1      -0.684  10.245  19.349  0.00  0.00    +0.000 NA
BRANCH  24  26
ATOM     25  C   UNL     1      -0.526  12.533  18.300  0.00  0.00    +0.000 C 
ATOM     26  C   UNL     1      -1.407  11.529  19.083  0.00  0.00    +0.000 C 
ATOM     27  C   UNL     1      -2.708  11.405  18.274  0.00  0.00    +0.000 C 
ENDBRANCH  24  26
BRANCH  24  28
ATOM     28  C   UNL     1       0.107  10.168  20.624  0.00  0.00    +0.000 C 
ATOM     29  C   UNL     1      -0.142  11.302  21.633  0.00  0.00    +0.000 C 
ATOM     30  C   UNL     1      -0.171   8.864  21.415  0.00  0.00    +0.000 C 
ENDBRANCH  24  28
ENDBRANCH  23  24
ENDBRANCH  22  23
ENDBRANCH  18  22
ENDBRANCH   1  19
TORSDOF 8
ENDMDL
MODEL 8
REMARK VINA RESULT:      -7.3      0.454      1.345
REMARK  Name = 
REMARK  12 active torsions:
REMARK  status: ('A' for Active; 'I' for Inactive)
REMARK    1  A    between atoms: C_1  and  C_2
REMARK    2  A    between atoms: C_2  and  C_3
REMARK    3  A    between atoms: C_2  and  N_4
REMARK    4  A    between atoms: N_4  and  C_5
REMARK    5  A    between atoms: N_4  and  C_27
REMARK    6  A    between atoms: C_5  and  C_6
REMARK    7  A    between atoms: C_6  and  N_7
REMARK    8  A    between atoms: C_8  and  C_10
REMARK    9  A    between atoms: N_12  and  C_13
REMARK   10  A    between atoms: C_20  and  C_21
REMARK   11  A    between atoms: C_27  and  C_28
REMARK   12  A    between atoms: C_27  and  C_29
REMARK                            x       y       z     vdW  Elec       q    Type
REMARK                         _______ _______ _______ _____ _____    ______ ____
ROOT
ATOM      1  C   UNL     1       6.746   6.515  16.941  0.00  0.00    +0.000 A 
ATOM      2  C   UNL     1       7.223   6.106  15.713  0.00  0.00    +0.000 A 
ATOM      3  N   UNL     1       6.246   5.362  15.114  0.00  0.00    +0.000 N 
ATOM      4  N   UNL     1       5.110   5.357  15.856  0.00  0.00    +0.000 NA
ATOM      5  C   UNL     1       5.391   6.066  16.963  0.00  0.00    +0.000 A 
ENDROOT
BRANCH   3   6
ATOM      6  C   UNL     1       6.348   4.630  13.895  0.00  0.00    +0.000 A 
ATOM      7  C   UNL     1       7.443   4.820  13.031  0.00  0.00    +0.000 A 
ATOM      8  C   UNL     1       7.551   4.069  11.859  0.00  0.00    +0.000 A 
ATOM      9  C   UNL     1       6.569   3.135  11.534  0.00  0.00    +0.000 A 
ATOM     10  C   UNL     1       5.476   2.948  12.379  0.00  0.00    +0.000 A 
ATOM     11  C   UNL     1       5.364   3.692  13.560  0.00  0.00    +0.000 A 
ENDBRANCH   3   6
BRANCH   5  12
ATOM     12  C   UNL     1       4.364   6.273  18.000  0.00  0.00    +0.000 A 
ATOM     13  C   UNL     1       3.437   7.319  17.881  0.00  0.00    +0.000 A 
ATOM     14  C   UNL     1       2.398   7.463  18.807  0.00  0.00    +0.000 A 
ATOM     15  C   UNL     1       2.266   6.557  19.857  0.00  0.00    +0.000 A 
ATOM     16  C   UNL     1       3.200   5.539  20.012  0.00  0.00    +0.000 A 
ATOM     17  C   UNL     1       4.260   5.420  19.109  0.00  0.00    +0.000 A 
ENDBRANCH   5  12
BRANCH   1  19
ATOM     18  N   UNL     1       7.606   8.630  17.669  0.00  0.00    +0.000 N 
ATOM     19  C   UNL     1       7.555   7.268  17.879  0.00  0.00    +0.000 C 
ATOM     20  O   UNL     1       8.125   6.717  18.815  0.00  0.00    +0.000 OA
ATOM     21  H   UNL     1       7.103   9.028  16.886  0.00  0.00    +0.000 HD
BRANCH  18  22
ATOM     22  C   UNL     1       8.571   9.456  18.367  0.00  0.00    +0.000 C 
BRANCH  22  23
ATOM     23  C   UNL     1       8.588  10.911  17.860  0.00  0.00    +0.000 C 
BRANCH  23  24
ATOM     24  N   UNL     1       9.577  11.816  18.519  0.00  0.00    +0.000 NA
BRANCH  24  26
ATOM     25  C   UNL     1      11.471  11.644  20.176  0.00  0.00    +0.000 C 
ATOM     26  C   UNL     1      10.005  11.268  19.846  0.00  0.00    +0.000 C 
ATOM     27  C   UNL     1       9.179  11.734  21.055  0.00  0.00    +0.000 C 
ENDBRANCH  24  26
BRANCH  24  28
ATOM     28  C   UNL     1       9.094  13.238  18.500  0.00  0.00    +0.000 C 
ATOM     29  C   UNL     1      10.099  14.277  17.977  0.00  0.00    +0.000 C 
ATOM     30  C   UNL     1       7.835  13.424  17.616  0.00  0.00    +0.000 C 
ENDBRANCH  24  28
ENDBRANCH  23  24
ENDBRANCH  22  23
ENDBRANCH  18  22
ENDBRANCH   1  19
TORSDOF 8
ENDMDL
MODEL 9
REMARK VINA RESULT:      -7.2      0.831      1.795
REMARK  Name = 
REMARK  12 active torsions:
REMARK  status: ('A' for Active; 'I' for Inactive)
REMARK    1  A    between atoms: C_1  and  C_2
REMARK    2  A    between atoms: C_2  and  C_3
REMARK    3  A    between atoms: C_2  and  N_4
REMARK    4  A    between atoms: N_4  and  C_5
REMARK    5  A    between atoms: N_4  and  C_27
REMARK    6  A    between atoms: C_5  and  C_6
REMARK    7  A    between atoms: C_6  and  N_7
REMARK    8  A    between atoms: C_8  and  C_10
REMARK    9  A    between atoms: N_12  and  C_13
REMARK   10  A    between atoms: C_20  and  C_21
REMARK   11  A    between atoms: C_27  and  C_28
REMARK   12  A    between atoms: C_27  and  C_29
REMARK                            x       y       z     vdW  Elec       q    Type
REMARK                         _______ _______ _______ _____ _____    ______ ____
ROOT
ATOM      1  C   UNL     1       6.780   6.404  17.141  0.00  0.00    +0.000 A 
ATOM      2  C   UNL     1       7.293   6.004  15.925  0.00  0.00    +0.000 A 
ATOM      3  N   UNL     1       6.285   5.402  15.225  0.00  0.00    +0.000 N 
ATOM      4  N   UNL     1       5.107   5.488  15.893  0.00  0.00    +0.000 NA
ATOM      5  C   UNL     1       5.386   6.108  17.053  0.00  0.00    +0.000 A 
ENDROOT
BRANCH   3   6
ATOM      6  C   UNL     1       6.391   4.722  13.977  0.00  0.00    +0.000 A 
ATOM      7  C   UNL     1       7.501   4.930  13.136  0.00  0.00    +0.000 A 
ATOM      8  C   UNL     1       7.612   4.229  11.934  0.00  0.00    +0.000 A 
ATOM      9  C   UNL     1       6.618   3.328  11.556  0.00  0.00    +0.000 A 
ATOM     10  C   UNL     1       5.511   3.123  12.378  0.00  0.00    +0.000 A 
ATOM     11  C   UNL     1       5.396   3.817  13.589  0.00  0.00    +0.000 A 
ENDBRANCH   3   6
BRANCH   5  12
ATOM     12  C   UNL     1       4.318   6.378  18.033  0.00  0.00    +0.000 A 
ATOM     13  C   UNL     1       3.445   7.460  17.849  0.00  0.00    +0.000 A 
ATOM     14  C   UNL     1       2.368   7.666  18.718  0.00  0.00    +0.000 A 
ATOM     15  C   UNL     1       2.144   6.787  19.776  0.00  0.00    +0.000 A 
ATOM     16  C   UNL     1       3.025   5.733  19.996  0.00  0.00    +0.000 A 
ATOM     17  C   UNL     1       4.122   5.552  19.150  0.00  0.00    +0.000 A 
ENDBRANCH   5  12
BRANCH   1  19
ATOM     18  N   UNL     1       7.920   8.342  17.967  0.00  0.00    +0.000 N 
ATOM     19  C   UNL     1       7.599   7.017  18.168  0.00  0.00    +0.000 C 
ATOM     20  O   UNL     1       7.948   6.390  19.163  0.00  0.00    +0.000 OA
ATOM     21  H   UNL     1       7.591   8.810  17.131  0.00  0.00    +0.000 HD
BRANCH  18  22
ATOM     22  C   UNL     1       8.933   8.994  18.774  0.00  0.00    +0.000 C 
BRANCH  22  23
ATOM     23  C   UNL     1       8.987  10.517  18.547  0.00  0.00    +0.000 C 
BRANCH  23  24
ATOM     24  N   UNL     1       9.716  11.302  19.588  0.00  0.00    +0.000 NA
BRANCH  24  26
ATOM     25  C   UNL     1       8.947  11.878  21.920  0.00  0.00    +0.000 C 
ATOM     26  C   UNL     1       8.766  12.126  20.402  0.00  0.00    +0.000 C 
ATOM     27  C   UNL     1       8.878  13.648  20.218  0.00  0.00    +0.000 C 
ENDBRANCH  24  26
BRANCH  24  28
ATOM     28  C   UNL     1      10.890  12.023  18.988  0.00  0.00    +0.000 C 
ATOM     29  C   UNL     1      12.271  11.605  19.519  0.00  0.00    +0.000 C 
ATOM     30  C   UNL     1      10.980  11.832  17.452  0.00  0.00    +0.000 C 
ENDBRANCH  24  28
ENDBRANCH  23  24
ENDBRANCH  22  23
ENDBRANCH  18  22
ENDBRANCH   1  19
TORSDOF 8
ENDMDL
