MODEL 1
REMARK VINA RESULT:      -7.9      0.000      0.000
REMARK  Name = 
REMARK  9 active torsions:
REMARK  status: ('A' for Active; 'I' for Inactive)
REMARK    1  A    between atoms: C_2  and  C_3
REMARK    2  A    between atoms: C_3  and  C_4
REMARK    3  A    between atoms: C_5  and  C_6
REMARK    4  A    between atoms: C_6  and  C_7
REMARK    5  A    between atoms: C_7  and  C_8
REMARK    6  A    between atoms: C_8  and  C_9
REMARK    7  A    between atoms: C_10  and  C_11
REMARK    8  A    between atoms: C_13  and  C_14
REMARK    9  A    between atoms: N_19  and  C_20
REMARK                            x       y       z     vdW  Elec       q    Type
REMARK                         _______ _______ _______ _____ _____    ______ ____
ROOT
ATOM      1  C   UNL     1       4.541   4.989  17.539  0.00  0.00    +0.000 A 
ATOM      2  C   UNL     1       3.425   5.779  17.768  0.00  0.00    +0.000 A 
ATOM      3  C   UNL     1       3.199   5.841  19.168  0.00  0.00    +0.000 A 
ATOM      4  C   UNL     1       4.240   5.134  19.724  0.00  0.00    +0.000 A 
ATOM      5  O   UNL     1       5.025   4.592  18.762  0.00  0.00    +0.000 OA
ENDROOT
BRANCH   3   6
ATOM      6  C   UNL     1       2.179   6.553  19.914  0.00  0.00    +0.000 C 
ATOM      7  O   UNL     1       1.583   6.007  20.838  0.00  0.00    +0.000 OA
ATOM      8  N   UNL     1       1.945   7.890  19.560  0.00  0.00    +0.000 N 
ATOM      9  C   UNL     1       1.035   8.626  20.438  0.00  0.00    +0.000 C 
ATOM     10  C   UNL     1       1.073  10.146  20.197  0.00  0.00    +0.000 C 
ATOM     11  N   UNL     1       0.941  10.558  18.784  0.00  0.00    +0.000 NA
ATOM     12  C   UNL     1      -0.416  10.344  18.283  0.00  0.00    +0.000 C 
ATOM     13  C   UNL     1       1.938   9.830  17.977  0.00  0.00    +0.000 C 
ATOM     14  C   UNL     1       1.900   8.300  18.149  0.00  0.00    +0.000 C 
ENDBRANCH   3   6
BRANCH   1  17
ATOM     15  C   UNL     1       6.293   5.217  15.828  0.00  0.00    +0.000 C 
ATOM     16  C   UNL     1       7.179   6.105  16.664  0.00  0.00    +0.000 C 
ATOM     17  C   UNL     1       5.131   4.708  16.282  0.00  0.00    +0.000 C 
BRANCH  15  18
ATOM     18  C   UNL     1       6.819   4.916  14.422  0.00  0.00    +0.000 C 
BRANCH  18  19
ATOM     19  C   UNL     1       5.788   4.251  13.494  0.00  0.00    +0.000 C 
BRANCH  19  22
ATOM     20  C   UNL     1       5.515   2.509  11.685  0.00  0.00    +0.000 C 
ATOM     21  C   UNL     1       6.135   1.378  10.905  0.00  0.00    +0.000 C 
ATOM     22  C   UNL     1       6.266   3.114  12.631  0.00  0.00    +0.000 C 
BRANCH  20  24
ATOM     23  C   UNL     1       3.684   3.654  10.389  0.00  0.00    +0.000 C 
ATOM     24  C   UNL     1       4.141   2.928  11.413  0.00  0.00    +0.000 C 
ENDBRANCH  20  24
ENDBRANCH  19  22
ENDBRANCH  18  19
ENDBRANCH  15  18
ENDBRANCH   1  17
TORSDOF 6
ENDMDL
MODEL 2
REMARK VINA RESULT:      -7.8      0.428      1.130
REMARK  Name = 
REMARK  9 active torsions:
REMARK  status: ('A' for Active; 'I' for Inactive)
REMARK    1  A    between atoms: C_2  and  C_3
REMARK    2  A    between atoms: C_3  and  C_4
REMARK    3  A    between atoms: C_5  and  C_6
REMARK    4  A    between atoms: C_6  and  C_7
REMARK    5  A    between atoms: C_7  and  C_8
REMARK    6  A    between atoms: C_8  and  C_9
REMARK    7  A    between atoms: C_10  and  C_11
REMARK    8  A    between atoms: C_13  and  C_14
REMARK    9  A    between atoms: N_19  and  C_20
REMARK                            x       y       z     vdW  Elec       q    Type
REMARK                         _______ _______ _______ _____ _____    ______ ____
ROOT
ATOM      1  C   UNL     1       4.650   5.062  17.557  0.00  0.00    +0.000 A 
ATOM      2  C   UNL     1       3.482   5.779  17.770  0.00  0.00    +0.000 A 
ATOM      3  C   UNL     1       3.274   5.893  19.170  0.00  0.00    +0.000 A 
ATOM      4  C   UNL     1       4.373   5.292  19.738  0.00  0.00    +0.000 A 
ATOM      5  O   UNL     1       5.181   4.762  18.788  0.00  0.00    +0.000 OA
ENDROOT
BRANCH   3   6
ATOM      6  C   UNL     1       2.217   6.564  19.900  0.00  0.00    +0.000 C 
ATOM      7  O   UNL     1       1.606   5.982  20.792  0.00  0.00    +0.000 OA
ATOM      8  N   UNL     1       1.963   7.904  19.571  0.00  0.00    +0.000 N 
ATOM      9  C   UNL     1       1.010   8.598  20.437  0.00  0.00    +0.000 C 
ATOM     10  C   UNL     1       1.021  10.124  20.233  0.00  0.00    +0.000 C 
ATOM     11  N   UNL     1       0.922  10.567  18.826  0.00  0.00    +0.000 NA
ATOM     12  C   UNL     1      -0.413  10.335  18.279  0.00  0.00    +0.000 C 
ATOM     13  C   UNL     1       1.960   9.880  18.034  0.00  0.00    +0.000 C 
ATOM     14  C   UNL     1       1.952   8.346  18.169  0.00  0.00    +0.000 C 
ENDBRANCH   3   6
BRANCH   1  17
ATOM     15  C   UNL     1       6.354   5.333  15.804  0.00  0.00    +0.000 C 
ATOM     16  C   UNL     1       7.185   6.322  16.580  0.00  0.00    +0.000 C 
ATOM     17  C   UNL     1       5.239   4.764  16.304  0.00  0.00    +0.000 C 
BRANCH  15  18
ATOM     18  C   UNL     1       6.878   5.003  14.404  0.00  0.00    +0.000 C 
BRANCH  18  19
ATOM     19  C   UNL     1       6.356   3.672  13.834  0.00  0.00    +0.000 C 
BRANCH  19  22
ATOM     20  C   UNL     1       5.091   3.022  11.746  0.00  0.00    +0.000 C 
ATOM     21  C   UNL     1       3.856   3.199  10.901  0.00  0.00    +0.000 C 
ATOM     22  C   UNL     1       5.186   3.736  12.889  0.00  0.00    +0.000 C 
BRANCH  20  24
ATOM     23  C   UNL     1       6.055   0.786  11.105  0.00  0.00    +0.000 C 
ATOM     24  C   UNL     1       6.146   2.099  11.329  0.00  0.00    +0.000 C 
ENDBRANCH  20  24
ENDBRANCH  19  22
ENDBRANCH  18  19
ENDBRANCH  15  18
ENDBRANCH   1  17
TORSDOF 6
ENDMDL
MODEL 3
REMARK VINA RESULT:      -7.4      1.011      1.528
REMARK  Name = 
REMARK  9 active torsions:
REMARK  status: ('A' for Active; 'I' for Inactive)
REMARK    1  A    between atoms: C_2  and  C_3
REMARK    2  A    between atoms: C_3  and  C_4
REMARK    3  A    between atoms: C_5  and  C_6
REMARK    4  A    between atoms: C_6  and  C_7
REMARK    5  A    between atoms: C_7  and  C_8
REMARK    6  A    between atoms: C_8  and  C_9
REMARK    7  A    between atoms: C_10  and  C_11
REMARK    8  A    between atoms: C_13  and  C_14
REMARK    9  A    between atoms: N_19  and  C_20
REMARK                            x       y       z     vdW  Elec       q    Type
REMARK                         _______ _______ _______ _____ _____    ______ ____
ROOT
ATOM      1  C   UNL     1       4.035   4.710  17.392  0.00  0.00    +0.000 A 
ATOM      2  C   UNL     1       3.866   5.692  18.355  0.00  0.00    +0.000 A 
ATOM      3  C   UNL     1       2.591   5.515  18.956  0.00  0.00    +0.000 A 
ATOM      4  C   UNL     1       2.079   4.383  18.366  0.00  0.00    +0.000 A 
ATOM      5  O   UNL     1       2.914   3.916  17.408  0.00  0.00    +0.000 OA
ENDROOT
BRANCH   3   6
ATOM      6  C   UNL     1       1.956   6.263  20.023  0.00  0.00    +0.000 C 
ATOM      7  O   UNL     1       1.614   5.704  21.062  0.00  0.00    +0.000 OA
ATOM      8  N   UNL     1       1.798   7.643  19.830  0.00  0.00    +0.000 N 
ATOM      9  C   UNL     1       1.310   8.392  20.989  0.00  0.00    +0.000 C 
ATOM     10  C   UNL     1       1.467   9.915  20.824  0.00  0.00    +0.000 C 
ATOM     11  N   UNL     1       0.954  10.461  19.550  0.00  0.00    +0.000 NA
ATOM     12  C   UNL     1      -0.507  10.437  19.501  0.00  0.00    +0.000 C 
ATOM     13  C   UNL     1       1.546   9.704  18.431  0.00  0.00    +0.000 C 
ATOM     14  C   UNL     1       1.368   8.178  18.530  0.00  0.00    +0.000 C 
ENDBRANCH   3   6
BRANCH   1  17
ATOM     15  C   UNL     1       5.671   5.366  15.675  0.00  0.00    +0.000 C 
ATOM     16  C   UNL     1       5.080   6.733  15.446  0.00  0.00    +0.000 C 
ATOM     17  C   UNL     1       5.187   4.504  16.592  0.00  0.00    +0.000 C 
BRANCH  15  18
ATOM     18  C   UNL     1       6.880   5.027  14.800  0.00  0.00    +0.000 C 
BRANCH  18  19
ATOM     19  C   UNL     1       6.662   3.828  13.862  0.00  0.00    +0.000 C 
BRANCH  19  22
ATOM     20  C   UNL     1       5.264   3.017  11.920  0.00  0.00    +0.000 C 
ATOM     21  C   UNL     1       4.025   3.201  11.081  0.00  0.00    +0.000 C 
ATOM     22  C   UNL     1       5.473   3.877  12.940  0.00  0.00    +0.000 C 
BRANCH  20  24
ATOM     23  C   UNL     1       5.999   0.843  10.884  0.00  0.00    +0.000 C 
ATOM     24  C   UNL     1       6.201   1.934  11.627  0.00  0.00    +0.000 C 
ENDBRANCH  20  24
ENDBRANCH  19  22
ENDBRANCH  18  19
ENDBRANCH  15  18
ENDBRANCH   1  17
TORSDOF 6
ENDMDL
MODEL 4
REMARK VINA RESULT:      -7.4      5.556      8.815
REMARK  Name = 
REMARK  9 active torsions:
REMARK  status: ('A' for Active; 'I' for Inactive)
REMARK    1  A    between atoms: C_2  and  C_3
REMARK    2  A    between atoms: C_3  and  C_4
REMARK    3  A    between atoms: C_5  and  C_6
REMARK    4  A    between atoms: C_6  and  C_7
REMARK    5  A    between atoms: C_7  and  C_8
REMARK    6  A    between atoms: C_8  and  C_9
REMARK    7  A    between atoms: C_10  and  C_11
REMARK    8  A    between atoms: C_13  and  C_14
REMARK    9  A    between atoms: N_19  and  C_20
REMARK                            x       y       z     vdW  Elec       q    Type
REMARK                         _______ _______ _______ _____ _____    ______ ____
ROOT
ATOM      1  C   UNL     1       7.939   8.177  17.785  0.00  0.00    +0.000 A 
ATOM      2  C   UNL     1       7.051   7.347  17.120  0.00  0.00    +0.000 A 
ATOM      3  C   UNL     1       7.051   6.082  17.765  0.00  0.00    +0.000 A 
ATOM      4  C   UNL     1       7.897   6.235  18.839  0.00  0.00    +0.000 A 
ATOM      5  O   UNL     1       8.459   7.468  18.840  0.00  0.00    +0.000 OA
ENDROOT
BRANCH   3   6
ATOM      6  C   UNL     1       6.283   4.888  17.469  0.00  0.00    +0.000 C 
ATOM      7  O   UNL     1       6.621   4.135  16.561  0.00  0.00    +0.000 OA
ATOM      8  N   UNL     1       5.177   4.620  18.290  0.00  0.00    +0.000 N 
ATOM      9  C   UNL     1       4.527   3.328  18.072  0.00  0.00    +0.000 C 
ATOM     10  C   UNL     1       3.547   2.956  19.200  0.00  0.00    +0.000 C 
ATOM     11  N   UNL     1       2.579   4.014  19.560  0.00  0.00    +0.000 NA
ATOM     12  C   UNL     1       1.572   4.203  18.518  0.00  0.00    +0.000 C 
ATOM     13  C   UNL     1       3.315   5.262  19.835  0.00  0.00    +0.000 C 
ATOM     14  C   UNL     1       4.270   5.699  18.710  0.00  0.00    +0.000 C 
ENDBRANCH   3   6
BRANCH   1  17
ATOM     15  C   UNL     1       8.806  10.418  18.313  0.00  0.00    +0.000 C 
ATOM     16  C   UNL     1       9.369  10.028  19.656  0.00  0.00    +0.000 C 
ATOM     17  C   UNL     1       8.203   9.538  17.489  0.00  0.00    +0.000 C 
BRANCH  15  18
ATOM     18  C   UNL     1       8.984  11.892  17.939  0.00  0.00    +0.000 C 
BRANCH  18  19
ATOM     19  C   UNL     1      10.448  12.316  17.730  0.00  0.00    +0.000 C 
BRANCH  19  22
ATOM     20  C   UNL     1      11.092  14.526  18.769  0.00  0.00    +0.000 C 
ATOM     21  C   UNL     1      11.770  15.247  19.906  0.00  0.00    +0.000 C 
ATOM     22  C   UNL     1      11.078  13.176  18.792  0.00  0.00    +0.000 C 
BRANCH  20  24
ATOM     23  C   UNL     1      11.061  16.072  16.781  0.00  0.00    +0.000 C 
ATOM     24  C   UNL     1      10.472  15.281  17.681  0.00  0.00    +0.000 C 
ENDBRANCH  20  24
ENDBRANCH  19  22
ENDBRANCH  18  19
ENDBRANCH  15  18
ENDBRANCH   1  17
TORSDOF 6
ENDMDL
MODEL 5
REMARK VINA RESULT:      -7.3      5.618      8.890
REMARK  Name = 
REMARK  9 active torsions:
REMARK  status: ('A' for Active; 'I' for Inactive)
REMARK    1  A    between atoms: C_2  and  C_3
REMARK    2  A    between atoms: C_3  and  C_4
REMARK    3  A    between atoms: C_5  and  C_6
REMARK    4  A    between atoms: C_6  and  C_7
REMARK    5  A    between atoms: C_7  and  C_8
REMARK    6  A    between atoms: C_8  and  C_9
REMARK    7  A    between atoms: C_10  and  C_11
REMARK    8  A    between atoms: C_13  and  C_14
REMARK    9  A    between atoms: N_19  and  C_20
REMARK                            x       y       z     vdW  Elec       q    Type
REMARK                         _______ _______ _______ _____ _____    ______ ____
ROOT
ATOM      1  C   UNL     1       8.147   8.329  17.846  0.00  0.00    +0.000 A 
ATOM      2  C   UNL     1       7.316   7.490  17.119  0.00  0.00    +0.000 A 
ATOM      3  C   UNL     1       7.240   6.241  17.790  0.00  0.00    +0.000 A 
ATOM      4  C   UNL     1       7.982   6.413  18.936  0.00  0.00    +0.000 A 
ATOM      5  O   UNL     1       8.556   7.640  18.963  0.00  0.00    +0.000 OA
ENDROOT
BRANCH   3   6
ATOM      6  C   UNL     1       6.490   5.049  17.450  0.00  0.00    +0.000 C 
ATOM      7  O   UNL     1       6.934   4.238  16.643  0.00  0.00    +0.000 OA
ATOM      8  N   UNL     1       5.271   4.849  18.116  0.00  0.00    +0.000 N 
ATOM      9  C   UNL     1       4.623   3.560  17.876  0.00  0.00    +0.000 C 
ATOM     10  C   UNL     1       3.481   3.271  18.868  0.00  0.00    +0.000 C 
ATOM     11  N   UNL     1       2.502   4.367  19.027  0.00  0.00    +0.000 NA
ATOM     12  C   UNL     1       1.660   4.516  17.841  0.00  0.00    +0.000 C 
ATOM     13  C   UNL     1       3.225   5.615  19.339  0.00  0.00    +0.000 C 
ATOM     14  C   UNL     1       4.344   5.967  18.342  0.00  0.00    +0.000 C 
ENDBRANCH   3   6
BRANCH   1  17
ATOM     15  C   UNL     1       9.004  10.568  18.396  0.00  0.00    +0.000 C 
ATOM     16  C   UNL     1       9.454  10.199  19.787  0.00  0.00    +0.000 C 
ATOM     17  C   UNL     1       8.454   9.679  17.545  0.00  0.00    +0.000 C 
BRANCH  15  18
ATOM     18  C   UNL     1       9.232  12.031  18.008  0.00  0.00    +0.000 C 
BRANCH  18  19
ATOM     19  C   UNL     1      10.648  12.329  17.484  0.00  0.00    +0.000 C 
BRANCH  19  22
ATOM     20  C   UNL     1      11.421  14.712  17.813  0.00  0.00    +0.000 C 
ATOM     21  C   UNL     1      11.649  16.070  17.201  0.00  0.00    +0.000 C 
ATOM     22  C   UNL     1      10.933  13.732  17.020  0.00  0.00    +0.000 C 
BRANCH  20  24
ATOM     23  C   UNL     1      11.294  15.155  20.288  0.00  0.00    +0.000 C 
ATOM     24  C   UNL     1      11.727  14.476  19.223  0.00  0.00    +0.000 C 
ENDBRANCH  20  24
ENDBRANCH  19  22
ENDBRANCH  18  19
ENDBRANCH  15  18
ENDBRANCH   1  17
TORSDOF 6
ENDMDL
MODEL 6
REMARK VINA RESULT:      -7.3      1.299      1.854
REMARK  Name = 
REMARK  9 active torsions:
REMARK  status: ('A' for Active; 'I' for Inactive)
REMARK    1  A    between atoms: C_2  and  C_3
REMARK    2  A    between atoms: C_3  and  C_4
REMARK    3  A    between atoms: C_5  and  C_6
REMARK    4  A    between atoms: C_6  and  C_7
REMARK    5  A    between atoms: C_7  and  C_8
REMARK    6  A    between atoms: C_8  and  C_9
REMARK    7  A    between atoms: C_10  and  C_11
REMARK    8  A    between atoms: C_13  and  C_14
REMARK    9  A    between atoms: N_19  and  C_20
REMARK                            x       y       z     vdW  Elec       q    Type
REMARK                         _______ _______ _______ _____ _____    ______ ____
ROOT
ATOM      1  C   UNL     1       3.879   5.937  17.335  0.00  0.00    +0.000 A 
ATOM      2  C   UNL     1       3.054   5.821  18.443  0.00  0.00    +0.000 A 
ATOM      3  C   UNL     1       2.676   7.124  18.859  0.00  0.00    +0.000 A 
ATOM      4  C   UNL     1       3.241   7.968  17.931  0.00  0.00    +0.000 A 
ATOM      5  O   UNL     1       3.990   7.275  17.039  0.00  0.00    +0.000 OA
ENDROOT
BRANCH   3   6
ATOM      6  C   UNL     1       1.810   7.537  19.946  0.00  0.00    +0.000 C 
ATOM      7  O   UNL     1       1.480   6.741  20.821  0.00  0.00    +0.000 OA
ATOM      8  N   UNL     1       1.414   8.883  19.973  0.00  0.00    +0.000 N 
ATOM      9  C   UNL     1       0.684   9.304  21.168  0.00  0.00    +0.000 C 
ATOM     10  C   UNL     1       0.566  10.834  21.288  0.00  0.00    +0.000 C 
ATOM     11  N   UNL     1       0.086  11.520  20.070  0.00  0.00    +0.000 NA
ATOM     12  C   UNL     1      -1.333  11.262  19.828  0.00  0.00    +0.000 C 
ATOM     13  C   UNL     1       0.916  11.101  18.925  0.00  0.00    +0.000 C 
ATOM     14  C   UNL     1       1.019   9.577  18.738  0.00  0.00    +0.000 C 
ENDBRANCH   3   6
BRANCH   1  17
ATOM     15  C   UNL     1       5.744   4.734  16.273  0.00  0.00    +0.000 C 
ATOM     16  C   UNL     1       6.810   5.676  16.773  0.00  0.00    +0.000 C 
ATOM     17  C   UNL     1       4.440   4.873  16.586  0.00  0.00    +0.000 C 
BRANCH  15  18
ATOM     18  C   UNL     1       6.252   3.589  15.394  0.00  0.00    +0.000 C 
BRANCH  18  19
ATOM     19  C   UNL     1       6.450   3.971  13.916  0.00  0.00    +0.000 C 
BRANCH  19  22
ATOM     20  C   UNL     1       5.180   3.112  11.908  0.00  0.00    +0.000 C 
ATOM     21  C   UNL     1       3.907   3.141  11.102  0.00  0.00    +0.000 C 
ATOM     22  C   UNL     1       5.248   3.887  13.013  0.00  0.00    +0.000 C 
BRANCH  20  24
ATOM     23  C   UNL     1       6.267   0.991  11.097  0.00  0.00    +0.000 C 
ATOM     24  C   UNL     1       6.297   2.265  11.495  0.00  0.00    +0.000 C 
ENDBRANCH  20  24
ENDBRANCH  19  22
ENDBRANCH  18  19
ENDBRANCH  15  18
ENDBRANCH   1  17
TORSDOF 6
ENDMDL
MODEL 7
REMARK VINA RESULT:      -7.2      6.439      8.375
REMARK  Name = 
REMARK  9 active torsions:
REMARK  status: ('A' for Active; 'I' for Inactive)
REMARK    1  A    between atoms: C_2  and  C_3
REMARK    2  A    between atoms: C_3  and  C_4
REMARK    3  A    between atoms: C_5  and  C_6
REMARK    4  A    between atoms: C_6  and  C_7
REMARK    5  A    between atoms: C_7  and  C_8
REMARK    6  A    between atoms: C_8  and  C_9
REMARK    7  A    between atoms: C_10  and  C_11
REMARK    8  A    between atoms: C_13  and  C_14
REMARK    9  A    between atoms: N_19  and  C_20
REMARK                            x       y       z     vdW  Elec       q    Type
REMARK                         _______ _______ _______ _____ _____    ______ ____
ROOT
ATOM      1  C   UNL     1       8.513   9.597  18.251  0.00  0.00    +0.000 A 
ATOM      2  C   UNL     1       9.146  10.700  17.699  0.00  0.00    +0.000 A 
ATOM      3  C   UNL     1       9.893  11.346  18.720  0.00  0.00    +0.000 A 
ATOM      4  C   UNL     1       9.727  10.553  19.832  0.00  0.00    +0.000 A 
ATOM      5  O   UNL     1       8.878   9.529  19.574  0.00  0.00    +0.000 OA
ENDROOT
BRANCH   3   6
ATOM      6  C   UNL     1      10.740  12.520  18.648  0.00  0.00    +0.000 C 
ATOM      7  O   UNL     1      11.941  12.442  18.892  0.00  0.00    +0.000 OA
ATOM      8  N   UNL     1      10.135  13.721  18.247  0.00  0.00    +0.000 N 
ATOM      9  C   UNL     1      11.046  14.844  18.024  0.00  0.00    +0.000 C 
ATOM     10  C   UNL     1      10.378  16.016  17.283  0.00  0.00    +0.000 C 
ATOM     11  N   UNL     1       9.082  16.452  17.845  0.00  0.00    +0.000 NA
ATOM     12  C   UNL     1       9.252  17.138  19.126  0.00  0.00    +0.000 C 
ATOM     13  C   UNL     1       8.196  15.280  17.972  0.00  0.00    +0.000 C 
ATOM     14  C   UNL     1       8.807  14.101  18.751  0.00  0.00    +0.000 C 
ENDBRANCH   3   6
BRANCH   1  17
ATOM     15  C   UNL     1       7.612   7.343  17.850  0.00  0.00    +0.000 C 
ATOM     16  C   UNL     1       8.310   6.711  19.027  0.00  0.00    +0.000 C 
ATOM     17  C   UNL     1       7.705   8.658  17.565  0.00  0.00    +0.000 C 
BRANCH  15  18
ATOM     18  C   UNL     1       6.769   6.385  17.005  0.00  0.00    +0.000 C 
BRANCH  18  19
ATOM     19  C   UNL     1       5.295   6.802  16.863  0.00  0.00    +0.000 C 
BRANCH  19  22
ATOM     20  C   UNL     1       3.114   5.973  17.832  0.00  0.00    +0.000 C 
ATOM     21  C   UNL     1       2.166   4.816  18.024  0.00  0.00    +0.000 C 
ATOM     22  C   UNL     1       4.250   5.753  17.134  0.00  0.00    +0.000 C 
BRANCH  20  24
ATOM     23  C   UNL     1       2.239   8.332  17.778  0.00  0.00    +0.000 C 
ATOM     24  C   UNL     1       2.799   7.287  18.390  0.00  0.00    +0.000 C 
ENDBRANCH  20  24
ENDBRANCH  19  22
ENDBRANCH  18  19
ENDBRANCH  15  18
ENDBRANCH   1  17
TORSDOF 6
ENDMDL
MODEL 8
REMARK VINA RESULT:      -7.2      4.613      8.058
REMARK  Name = 
REMARK  9 active torsions:
REMARK  status: ('A' for Active; 'I' for Inactive)
REMARK    1  A    between atoms: C_2  and  C_3
REMARK    2  A    between atoms: C_3  and  C_4
REMARK    3  A    between atoms: C_5  and  C_6
REMARK    4  A    between atoms: C_6  and  C_7
REMARK    5  A    between atoms: C_7  and  C_8
REMARK    6  A    between atoms: C_8  and  C_9
REMARK    7  A    between atoms: C_10  and  C_11
REMARK    8  A    between atoms: C_13  and  C_14
REMARK    9  A    between atoms: N_19  and  C_20
REMARK                            x       y       z     vdW  Elec       q    Type
REMARK                         _______ _______ _______ _____ _____    ______ ____
ROOT
ATOM      1  C   UNL     1       7.507   6.698  17.708  0.00  0.00    +0.000 A 
ATOM      2  C   UNL     1       6.589   5.802  18.234  0.00  0.00    +0.000 A 
ATOM      3  C   UNL     1       6.036   5.047  17.166  0.00  0.00    +0.000 A 
ATOM      4  C   UNL     1       6.705   5.482  16.045  0.00  0.00    +0.000 A 
ATOM      5  O   UNL     1       7.558   6.490  16.351  0.00  0.00    +0.000 OA
ENDROOT
BRANCH   3   6
ATOM      6  C   UNL     1       5.059   3.977  17.193  0.00  0.00    +0.000 C 
ATOM      7  O   UNL     1       4.963   3.191  16.254  0.00  0.00    +0.000 OA
ATOM      8  N   UNL     1       4.273   3.858  18.349  0.00  0.00    +0.000 N 
ATOM      9  C   UNL     1       3.419   2.672  18.415  0.00  0.00    +0.000 C 
ATOM     10  C   UNL     1       2.840   2.431  19.821  0.00  0.00    +0.000 C 
ATOM     11  N   UNL     1       2.205   3.611  20.445  0.00  0.00    +0.000 NA
ATOM     12  C   UNL     1       0.939   3.950  19.798  0.00  0.00    +0.000 C 
ATOM     13  C   UNL     1       3.153   4.741  20.407  0.00  0.00    +0.000 C 
ATOM     14  C   UNL     1       3.718   5.049  19.009  0.00  0.00    +0.000 C 
ENDBRANCH   3   6
BRANCH   1  17
ATOM     15  C   UNL     1       8.310   8.946  18.300  0.00  0.00    +0.000 C 
ATOM     16  C   UNL     1       7.357   9.671  17.384  0.00  0.00    +0.000 C 
ATOM     17  C   UNL     1       8.312   7.605  18.439  0.00  0.00    +0.000 C 
BRANCH  15  18
ATOM     18  C   UNL     1       9.271   9.847  19.080  0.00  0.00    +0.000 C 
BRANCH  18  19
ATOM     19  C   UNL     1       9.059  11.351  18.839  0.00  0.00    +0.000 C 
BRANCH  19  22
ATOM     20  C   UNL     1      11.011  12.671  17.927  0.00  0.00    +0.000 C 
ATOM     21  C   UNL     1      11.691  13.265  16.721  0.00  0.00    +0.000 C 
ATOM     22  C   UNL     1       9.857  11.995  17.737  0.00  0.00    +0.000 C 
BRANCH  20  24
ATOM     23  C   UNL     1      12.330  11.954  19.948  0.00  0.00    +0.000 C 
ATOM     24  C   UNL     1      11.596  12.830  19.258  0.00  0.00    +0.000 C 
ENDBRANCH  20  24
ENDBRANCH  19  22
ENDBRANCH  18  19
ENDBRANCH  15  18
ENDBRANCH   1  17
TORSDOF 6
ENDMDL
MODEL 9
REMARK VINA RESULT:      -7.2      1.135      1.354
REMARK  Name = 
REMARK  9 active torsions:
REMARK  status: ('A' for Active; 'I' for Inactive)
REMARK    1  A    between atoms: C_2  and  C_3
REMARK    2  A    between atoms: C_3  and  C_4
REMARK    3  A    between atoms: C_5  and  C_6
REMARK    4  A    between atoms: C_6  and  C_7
REMARK    5  A    between atoms: C_7  and  C_8
REMARK    6  A    between atoms: C_8  and  C_9
REMARK    7  A    between atoms: C_10  and  C_11
REMARK    8  A    between atoms: C_13  and  C_14
REMARK    9  A    between atoms: N_19  and  C_20
REMARK                            x       y       z     vdW  Elec       q    Type
REMARK                         _______ _______ _______ _____ _____    ______ ____
ROOT
ATOM      1  C   UNL     1       3.559   5.764  18.044  0.00  0.00    +0.000 A 
ATOM      2  C   UNL     1       2.965   6.970  18.383  0.00  0.00    +0.000 A 
ATOM      3  C   UNL     1       2.291   6.805  19.622  0.00  0.00    +0.000 A 
ATOM      4  C   UNL     1       2.572   5.514  20.006  0.00  0.00    +0.000 A 
ATOM      5  O   UNL     1       3.297   4.873  19.057  0.00  0.00    +0.000 OA
ENDROOT
BRANCH   3   6
ATOM      6  C   UNL     1       1.542   7.767  20.407  0.00  0.00    +0.000 C 
ATOM      7  O   UNL     1       0.996   7.431  21.454  0.00  0.00    +0.000 OA
ATOM      8  N   UNL     1       1.514   9.089  19.939  0.00  0.00    +0.000 N 
ATOM      9  C   UNL     1       0.895  10.064  20.838  0.00  0.00    +0.000 C 
ATOM     10  C   UNL     1       1.181  11.520  20.427  0.00  0.00    +0.000 C 
ATOM     11  N   UNL     1       0.923  11.829  19.005  0.00  0.00    +0.000 NA
ATOM     12  C   UNL     1      -0.508  11.849  18.707  0.00  0.00    +0.000 C 
ATOM     13  C   UNL     1       1.638  10.850  18.164  0.00  0.00    +0.000 C 
ATOM     14  C   UNL     1       1.340   9.379  18.508  0.00  0.00    +0.000 C 
ENDBRANCH   3   6
BRANCH   1  17
ATOM     15  C   UNL     1       5.711   5.470  16.888  0.00  0.00    +0.000 C 
ATOM     16  C   UNL     1       6.549   5.604  18.135  0.00  0.00    +0.000 C 
ATOM     17  C   UNL     1       4.364   5.512  16.905  0.00  0.00    +0.000 C 
BRANCH  15  18
ATOM     18  C   UNL     1       6.502   5.265  15.594  0.00  0.00    +0.000 C 
BRANCH  18  19
ATOM     19  C   UNL     1       5.703   4.585  14.470  0.00  0.00    +0.000 C 
BRANCH  19  22
ATOM     20  C   UNL     1       5.943   3.263  12.330  0.00  0.00    +0.000 C 
ATOM     21  C   UNL     1       6.851   2.487  11.410  0.00  0.00    +0.000 C 
ATOM     22  C   UNL     1       6.479   3.792  13.452  0.00  0.00    +0.000 C 
BRANCH  20  24
ATOM     23  C   UNL     1       3.897   3.116  10.870  0.00  0.00    +0.000 C 
ATOM     24  C   UNL     1       4.528   3.430  12.003  0.00  0.00    +0.000 C 
ENDBRANCH  20  24
ENDBRANCH  19  22
ENDBRANCH  18  19
ENDBRANCH  15  18
ENDBRANCH   1  17
TORSDOF 6
ENDMDL
