MODEL 1
REMARK VINA RESULT:      -8.7      0.000      0.000
REMARK  Name = 
REMARK  2 active torsions:
REMARK  status: ('A' for Active; 'I' for Inactive)
REMARK    1  A    between atoms: C_2  and  C_16
REMARK    2  A    between atoms: N_3  and  N_4
REMARK                            x       y       z     vdW  Elec       q    Type
REMARK                         _______ _______ _______ _____ _____    ______ ____
ROOT
ATOM      1  N   UNL     1       2.676   6.771  20.027  0.00  0.00    +0.000 N 
ATOM      2  C   UNL     1       2.496   5.413  20.158  0.00  0.00    +0.000 C 
ATOM      3  N   UNL     1       1.992   4.829  21.212  0.00  0.00    +0.000 NA
ATOM      4  S   UNL     1       2.001   3.196  21.030  0.00  0.00    +0.000 S 
ATOM      5  O   UNL     1       0.649   2.702  20.878  0.00  0.00    +0.000 OA
ATOM      6  O   UNL     1       2.954   2.595  21.937  0.00  0.00    +0.000 OA
ATOM      7  C   UNL     1       2.726   3.192  19.451  0.00  0.00    +0.000 A 
ATOM      8  C   UNL     1       3.086   2.111  18.669  0.00  0.00    +0.000 A 
ATOM      9  C   UNL     1       3.664   2.394  17.430  0.00  0.00    +0.000 A 
ATOM     10  C   UNL     1       3.853   3.726  17.013  0.00  0.00    +0.000 A 
ATOM     11  C   UNL     1       3.488   4.798  17.838  0.00  0.00    +0.000 A 
ATOM     12  C   UNL     1       2.929   4.504  19.071  0.00  0.00    +0.000 A 
ATOM     13  H   UNL     1       2.796   7.170  19.093  0.00  0.00    +0.000 HD
ENDROOT
BRANCH   1  16
ATOM     14  O   UNL     1       1.527   8.955  19.054  0.00  0.00    +0.000 OA
ATOM     15  C   UNL     1       1.301   8.676  20.232  0.00  0.00    +0.000 C 
ATOM     16  N   UNL     1       1.885   7.587  20.845  0.00  0.00    +0.000 N 
ATOM     17  H   UNL     1       1.679   7.249  21.784  0.00  0.00    +0.000 HD
BRANCH  15  18
ATOM     18  C   UNL     1       0.416   9.545  21.045  0.00  0.00    +0.000 A 
ATOM     19  C   UNL     1       0.255   9.176  22.393  0.00  0.00    +0.000 A 
ATOM     20  C   UNL     1      -0.525   9.947  23.256  0.00  0.00    +0.000 A 
ATOM     21  C   UNL     1      -1.146  11.099  22.783  0.00  0.00    +0.000 A 
ATOM     22  C   UNL     1      -0.987  11.478  21.448  0.00  0.00    +0.000 A 
ATOM     23  C   UNL     1      -0.209  10.706  20.575  0.00  0.00    +0.000 A 
ATOM     24 CL   UNL     1      -0.032  11.295  18.962  0.00  0.00    +0.000 Cl
ENDBRANCH  15  18
ENDBRANCH   1  16
TORSDOF 2
ENDMDL
MODEL 2
REMARK VINA RESULT:      -8.5      2.681      7.786
REMARK  Name = 
REMARK  2 active torsions:
REMARK  status: ('A' for Active; 'I' for Inactive)
REMARK    1  A    between atoms: C_2  and  C_16
REMARK    2  A    between atoms: N_3  and  N_4
REMARK                            x       y       z     vdW  Elec       q    Type
REMARK                         _______ _______ _______ _____ _____    ______ ____
ROOT
ATOM      1  N   UNL     1       1.839   7.485  20.931  0.00  0.00    +0.000 N 
ATOM      2  C   UNL     1       1.239   8.622  20.441  0.00  0.00    +0.000 C 
ATOM      3  N   UNL     1       1.397   9.081  19.228  0.00  0.00    +0.000 NA
ATOM      4  S   UNL     1       0.582  10.494  19.032  0.00  0.00    +0.000 S 
ATOM      5  O   UNL     1      -0.546  10.302  18.146  0.00  0.00    +0.000 OA
ATOM      6  O   UNL     1       1.511  11.593  18.887  0.00  0.00    +0.000 OA
ATOM      7  C   UNL     1      -0.048  10.568  20.650  0.00  0.00    +0.000 A 
ATOM      8  C   UNL     1      -0.820  11.556  21.231  0.00  0.00    +0.000 A 
ATOM      9  C   UNL     1      -1.187  11.366  22.564  0.00  0.00    +0.000 A 
ATOM     10  C   UNL     1      -0.785  10.210  23.262  0.00  0.00    +0.000 A 
ATOM     11  C   UNL     1       0.008   9.235  22.645  0.00  0.00    +0.000 A 
ATOM     12  C   UNL     1       0.378   9.442  21.326  0.00  0.00    +0.000 A 
ATOM     13  H   UNL     1       1.452   7.038  21.766  0.00  0.00    +0.000 HD
ENDROOT
BRANCH   1  16
ATOM     14  O   UNL     1       2.103   4.929  21.588  0.00  0.00    +0.000 OA
ATOM     15  C   UNL     1       2.328   5.236  20.417  0.00  0.00    +0.000 C 
ATOM     16  N   UNL     1       2.262   6.544  19.985  0.00  0.00    +0.000 N 
ATOM     17  H   UNL     1       2.352   6.860  19.020  0.00  0.00    +0.000 HD
BRANCH  15  18
ATOM     18  C   UNL     1       2.726   4.196  19.439  0.00  0.00    +0.000 A 
ATOM     19  C   UNL     1       1.713   3.310  19.030  0.00  0.00    +0.000 A 
ATOM     20  C   UNL     1       1.971   2.317  18.084  0.00  0.00    +0.000 A 
ATOM     21  C   UNL     1       3.242   2.205  17.529  0.00  0.00    +0.000 A 
ATOM     22  C   UNL     1       4.254   3.084  17.923  0.00  0.00    +0.000 A 
ATOM     23  C   UNL     1       4.003   4.080  18.876  0.00  0.00    +0.000 A 
ATOM     24 CL   UNL     1       5.307   5.148  19.248  0.00  0.00    +0.000 Cl
ENDBRANCH  15  18
ENDBRANCH   1  16
TORSDOF 2
ENDMDL
MODEL 3
REMARK VINA RESULT:      -8.4      2.755      7.839
REMARK  Name = 
REMARK  2 active torsions:
REMARK  status: ('A' for Active; 'I' for Inactive)
REMARK    1  A    between atoms: C_2  and  C_16
REMARK    2  A    between atoms: N_3  and  N_4
REMARK                            x       y       z     vdW  Elec       q    Type
REMARK                         _______ _______ _______ _____ _____    ______ ____
ROOT
ATOM      1  N   UNL     1       1.943   7.652  20.800  0.00  0.00    +0.000 N 
ATOM      2  C   UNL     1       1.265   8.764  20.357  0.00  0.00    +0.000 C 
ATOM      3  N   UNL     1       1.363   9.263  19.154  0.00  0.00    +0.000 NA
ATOM      4  S   UNL     1       0.462  10.631  19.019  0.00  0.00    +0.000 S 
ATOM      5  O   UNL     1      -0.676  10.397  18.156  0.00  0.00    +0.000 OA
ATOM      6  O   UNL     1       1.321  11.786  18.881  0.00  0.00    +0.000 OA
ATOM      7  C   UNL     1      -0.126  10.624  20.653  0.00  0.00    +0.000 A 
ATOM      8  C   UNL     1      -0.939  11.549  21.282  0.00  0.00    +0.000 A 
ATOM      9  C   UNL     1      -1.258  11.302  22.618  0.00  0.00    +0.000 A 
ATOM     10  C   UNL     1      -0.771  10.153  23.273  0.00  0.00    +0.000 A 
ATOM     11  C   UNL     1       0.061   9.244  22.608  0.00  0.00    +0.000 A 
ATOM     12  C   UNL     1       0.383   9.507  21.287  0.00  0.00    +0.000 A 
ATOM     13  H   UNL     1       1.606   7.160  21.631  0.00  0.00    +0.000 HD
ENDROOT
BRANCH   1  16
ATOM     14  O   UNL     1       2.064   5.046  21.282  0.00  0.00    +0.000 OA
ATOM     15  C   UNL     1       2.381   5.426  20.154  0.00  0.00    +0.000 C 
ATOM     16  N   UNL     1       2.395   6.763  19.817  0.00  0.00    +0.000 N 
ATOM     17  H   UNL     1       2.563   7.142  18.886  0.00  0.00    +0.000 HD
BRANCH  15  18
ATOM     18  C   UNL     1       2.806   4.442  19.130  0.00  0.00    +0.000 A 
ATOM     19  C   UNL     1       4.046   4.688  18.512  0.00  0.00    +0.000 A 
ATOM     20  C   UNL     1       4.559   3.803  17.562  0.00  0.00    +0.000 A 
ATOM     21  C   UNL     1       3.842   2.659  17.227  0.00  0.00    +0.000 A 
ATOM     22  C   UNL     1       2.614   2.401  17.839  0.00  0.00    +0.000 A 
ATOM     23  C   UNL     1       2.091   3.288  18.790  0.00  0.00    +0.000 A 
ATOM     24 CL   UNL     1       0.594   2.845  19.527  0.00  0.00    +0.000 Cl
ENDBRANCH  15  18
ENDBRANCH   1  16
TORSDOF 2
ENDMDL
MODEL 4
REMARK VINA RESULT:      -8.4      2.877      7.758
REMARK  Name = 
REMARK  2 active torsions:
REMARK  status: ('A' for Active; 'I' for Inactive)
REMARK    1  A    between atoms: C_2  and  C_16
REMARK    2  A    between atoms: N_3  and  N_4
REMARK                            x       y       z     vdW  Elec       q    Type
REMARK                         _______ _______ _______ _____ _____    ______ ____
ROOT
ATOM      1  N   UNL     1       1.987   7.482  21.051  0.00  0.00    +0.000 N 
ATOM      2  C   UNL     1       1.379   8.531  20.401  0.00  0.00    +0.000 C 
ATOM      3  N   UNL     1       1.584   8.847  19.150  0.00  0.00    +0.000 NA
ATOM      4  S   UNL     1       0.740  10.199  18.748  0.00  0.00    +0.000 S 
ATOM      5  O   UNL     1      -0.338   9.864  17.841  0.00  0.00    +0.000 OA
ATOM      6  O   UNL     1       1.644  11.303  18.513  0.00  0.00    +0.000 OA
ATOM      7  C   UNL     1       0.031  10.444  20.315  0.00  0.00    +0.000 A 
ATOM      8  C   UNL     1      -0.796  11.467  20.737  0.00  0.00    +0.000 A 
ATOM      9  C   UNL     1      -1.222  11.426  22.066  0.00  0.00    +0.000 A 
ATOM     10  C   UNL     1      -0.822  10.375  22.916  0.00  0.00    +0.000 A 
ATOM     11  C   UNL     1       0.027   9.361  22.456  0.00  0.00    +0.000 A 
ATOM     12  C   UNL     1       0.455   9.421  21.140  0.00  0.00    +0.000 A 
ATOM     13  H   UNL     1       1.572   7.124  21.915  0.00  0.00    +0.000 HD
ENDROOT
BRANCH   1  16
ATOM     14  O   UNL     1       0.722   5.155  20.902  0.00  0.00    +0.000 OA
ATOM     15  C   UNL     1       1.728   5.295  20.206  0.00  0.00    +0.000 C 
ATOM     16  N   UNL     1       2.482   6.449  20.245  0.00  0.00    +0.000 N 
ATOM     17  H   UNL     1       3.272   6.667  19.640  0.00  0.00    +0.000 HD
BRANCH  15  18
ATOM     18  C   UNL     1       2.186   4.190  19.331  0.00  0.00    +0.000 A 
ATOM     19  C   UNL     1       2.173   4.449  17.948  0.00  0.00    +0.000 A 
ATOM     20  C   UNL     1       2.620   3.491  17.037  0.00  0.00    +0.000 A 
ATOM     21  C   UNL     1       3.094   2.267  17.499  0.00  0.00    +0.000 A 
ATOM     22  C   UNL     1       3.119   2.002  18.870  0.00  0.00    +0.000 A 
ATOM     23  C   UNL     1       2.666   2.958  19.790  0.00  0.00    +0.000 A 
ATOM     24 CL   UNL     1       2.793   2.550  21.463  0.00  0.00    +0.000 Cl
ENDBRANCH  15  18
ENDBRANCH   1  16
TORSDOF 2
ENDMDL
MODEL 5
REMARK VINA RESULT:      -8.2      2.455      7.658
REMARK  Name = 
REMARK  2 active torsions:
REMARK  status: ('A' for Active; 'I' for Inactive)
REMARK    1  A    between atoms: C_2  and  C_16
REMARK    2  A    between atoms: N_3  and  N_4
REMARK                            x       y       z     vdW  Elec       q    Type
REMARK                         _______ _______ _______ _____ _____    ______ ____
ROOT
ATOM      1  N   UNL     1       2.072   7.260  20.872  0.00  0.00    +0.000 N 
ATOM      2  C   UNL     1       1.468   8.360  20.308  0.00  0.00    +0.000 C 
ATOM      3  N   UNL     1       1.629   8.742  19.069  0.00  0.00    +0.000 NA
ATOM      4  S   UNL     1       0.808  10.135  18.781  0.00  0.00    +0.000 S 
ATOM      5  O   UNL     1      -0.315   9.881  17.903  0.00  0.00    +0.000 OA
ATOM      6  O   UNL     1       1.731  11.228  18.570  0.00  0.00    +0.000 OA
ATOM      7  C   UNL     1       0.170  10.308  20.388  0.00  0.00    +0.000 A 
ATOM      8  C   UNL     1      -0.610  11.326  20.902  0.00  0.00    +0.000 A 
ATOM      9  C   UNL     1      -0.982  11.219  22.243  0.00  0.00    +0.000 A 
ATOM     10  C   UNL     1      -0.577  10.112  23.015  0.00  0.00    +0.000 A 
ATOM     11  C   UNL     1       0.224   9.105  22.463  0.00  0.00    +0.000 A 
ATOM     12  C   UNL     1       0.599   9.229  21.136  0.00  0.00    +0.000 A 
ATOM     13  H   UNL     1       1.684   6.864  21.732  0.00  0.00    +0.000 HD
ENDROOT
BRANCH   1  16
ATOM     14  O   UNL     1       2.002   4.703  21.576  0.00  0.00    +0.000 OA
ATOM     15  C   UNL     1       2.389   4.964  20.437  0.00  0.00    +0.000 C 
ATOM     16  N   UNL     1       2.505   6.264  19.989  0.00  0.00    +0.000 N 
ATOM     17  H   UNL     1       2.736   6.550  19.039  0.00  0.00    +0.000 HD
BRANCH  15  18
ATOM     18  C   UNL     1       2.791   3.871  19.520  0.00  0.00    +0.000 A 
ATOM     19  C   UNL     1       3.690   2.923  20.044  0.00  0.00    +0.000 A 
ATOM     20  C   UNL     1       4.104   1.832  19.278  0.00  0.00    +0.000 A 
ATOM     21  C   UNL     1       3.616   1.671  17.985  0.00  0.00    +0.000 A 
ATOM     22  C   UNL     1       2.718   2.601  17.458  0.00  0.00    +0.000 A 
ATOM     23  C   UNL     1       2.303   3.702  18.219  0.00  0.00    +0.000 A 
ATOM     24 CL   UNL     1       1.148   4.760  17.493  0.00  0.00    +0.000 Cl
ENDBRANCH  15  18
ENDBRANCH   1  16
TORSDOF 2
ENDMDL
MODEL 6
REMARK VINA RESULT:      -8.2      2.452      3.035
REMARK  Name = 
REMARK  2 active torsions:
REMARK  status: ('A' for Active; 'I' for Inactive)
REMARK    1  A    between atoms: C_2  and  C_16
REMARK    2  A    between atoms: N_3  and  N_4
REMARK                            x       y       z     vdW  Elec       q    Type
REMARK                         _______ _______ _______ _____ _____    ______ ____
ROOT
ATOM      1  N   UNL     1       2.967   7.909  18.281  0.00  0.00    +0.000 N 
ATOM      2  C   UNL     1       2.984   6.545  18.098  0.00  0.00    +0.000 C 
ATOM      3  N   UNL     1       2.125   5.715  18.626  0.00  0.00    +0.000 NA
ATOM      4  S   UNL     1       2.508   4.164  18.243  0.00  0.00    +0.000 S 
ATOM      5  O   UNL     1       1.528   3.620  17.326  0.00  0.00    +0.000 OA
ATOM      6  O   UNL     1       2.956   3.452  19.419  0.00  0.00    +0.000 OA
ATOM      7  C   UNL     1       3.921   4.550  17.309  0.00  0.00    +0.000 A 
ATOM      8  C   UNL     1       4.808   3.689  16.690  0.00  0.00    +0.000 A 
ATOM      9  C   UNL     1       5.875   4.270  16.003  0.00  0.00    +0.000 A 
ATOM     10  C   UNL     1       6.016   5.672  15.949  0.00  0.00    +0.000 A 
ATOM     11  C   UNL     1       5.104   6.513  16.598  0.00  0.00    +0.000 A 
ATOM     12  C   UNL     1       4.058   5.924  17.289  0.00  0.00    +0.000 A 
ATOM     13  H   UNL     1       3.474   8.507  17.623  0.00  0.00    +0.000 HD
ENDROOT
BRANCH   1  16
ATOM     14  O   UNL     1       2.287  10.341  17.469  0.00  0.00    +0.000 OA
ATOM     15  C   UNL     1       1.469   9.725  18.153  0.00  0.00    +0.000 C 
ATOM     16  N   UNL     1       1.744   8.474  18.662  0.00  0.00    +0.000 N 
ATOM     17  H   UNL     1       1.088   7.874  19.161  0.00  0.00    +0.000 HD
BRANCH  15  18
ATOM     18  C   UNL     1       0.165  10.346  18.490  0.00  0.00    +0.000 A 
ATOM     19  C   UNL     1      -0.921   9.991  17.668  0.00  0.00    +0.000 A 
ATOM     20  C   UNL     1      -2.200  10.488  17.919  0.00  0.00    +0.000 A 
ATOM     21  C   UNL     1      -2.410  11.338  19.002  0.00  0.00    +0.000 A 
ATOM     22  C   UNL     1      -1.341  11.690  19.828  0.00  0.00    +0.000 A 
ATOM     23  C   UNL     1      -0.053  11.199  19.578  0.00  0.00    +0.000 A 
ATOM     24 CL   UNL     1       1.184  11.652  20.694  0.00  0.00    +0.000 Cl
ENDBRANCH  15  18
ENDBRANCH   1  16
TORSDOF 2
ENDMDL
MODEL 7
REMARK VINA RESULT:      -8.0      1.142      1.271
REMARK  Name = 
REMARK  2 active torsions:
REMARK  status: ('A' for Active; 'I' for Inactive)
REMARK    1  A    between atoms: C_2  and  C_16
REMARK    2  A    between atoms: N_3  and  N_4
REMARK                            x       y       z     vdW  Elec       q    Type
REMARK                         _______ _______ _______ _____ _____    ______ ____
ROOT
ATOM      1  N   UNL     1       2.617   7.104  19.443  0.00  0.00    +0.000 N 
ATOM      2  C   UNL     1       2.374   5.778  19.719  0.00  0.00    +0.000 C 
ATOM      3  N   UNL     1       1.685   5.347  20.741  0.00  0.00    +0.000 NA
ATOM      4  S   UNL     1       1.671   3.704  20.778  0.00  0.00    +0.000 S 
ATOM      5  O   UNL     1       0.347   3.208  20.467  0.00  0.00    +0.000 OA
ATOM      6  O   UNL     1       2.441   3.221  21.903  0.00  0.00    +0.000 OA
ATOM      7  C   UNL     1       2.647   3.480  19.358  0.00  0.00    +0.000 A 
ATOM      8  C   UNL     1       3.096   2.300  18.796  0.00  0.00    +0.000 A 
ATOM      9  C   UNL     1       3.879   2.407  17.646  0.00  0.00    +0.000 A 
ATOM     10  C   UNL     1       4.177   3.670  17.096  0.00  0.00    +0.000 A 
ATOM     11  C   UNL     1       3.715   4.846  17.699  0.00  0.00    +0.000 A 
ATOM     12  C   UNL     1       2.951   4.727  18.849  0.00  0.00    +0.000 A 
ATOM     13  H   UNL     1       2.903   7.373  18.498  0.00  0.00    +0.000 HD
ENDROOT
BRANCH   1  16
ATOM     14  O   UNL     1       1.880   9.261  18.086  0.00  0.00    +0.000 OA
ATOM     15  C   UNL     1       1.378   9.096  19.199  0.00  0.00    +0.000 C 
ATOM     16  N   UNL     1       1.729   8.031  20.002  0.00  0.00    +0.000 N 
ATOM     17  H   UNL     1       1.296   7.786  20.891  0.00  0.00    +0.000 HD
BRANCH  15  18
ATOM     18  C   UNL     1       0.404  10.080  19.728  0.00  0.00    +0.000 A 
ATOM     19  C   UNL     1       0.722  10.661  20.970  0.00  0.00    +0.000 A 
ATOM     20  C   UNL     1      -0.107  11.627  21.540  0.00  0.00    +0.000 A 
ATOM     21  C   UNL     1      -1.258  12.031  20.871  0.00  0.00    +0.000 A 
ATOM     22  C   UNL     1      -1.580  11.467  19.635  0.00  0.00    +0.000 A 
ATOM     23  C   UNL     1      -0.755  10.493  19.059  0.00  0.00    +0.000 A 
ATOM     24 CL   UNL     1      -1.215   9.903  17.503  0.00  0.00    +0.000 Cl
ENDBRANCH  15  18
ENDBRANCH   1  16
TORSDOF 2
ENDMDL
MODEL 8
REMARK VINA RESULT:      -8.0      7.184      8.219
REMARK  Name = 
REMARK  2 active torsions:
REMARK  status: ('A' for Active; 'I' for Inactive)
REMARK    1  A    between atoms: C_2  and  C_16
REMARK    2  A    between atoms: N_3  and  N_4
REMARK                            x       y       z     vdW  Elec       q    Type
REMARK                         _______ _______ _______ _____ _____    ______ ____
ROOT
ATOM      1  N   UNL     1       7.149   8.743  17.595  0.00  0.00    +0.000 N 
ATOM      2  C   UNL     1       7.019   7.376  17.511  0.00  0.00    +0.000 C 
ATOM      3  N   UNL     1       8.017   6.542  17.387  0.00  0.00    +0.000 NA
ATOM      4  S   UNL     1       7.468   5.000  17.245  0.00  0.00    +0.000 S 
ATOM      5  O   UNL     1       7.795   4.242  18.435  0.00  0.00    +0.000 OA
ATOM      6  O   UNL     1       7.712   4.500  15.910  0.00  0.00    +0.000 OA
ATOM      7  C   UNL     1       5.779   5.397  17.341  0.00  0.00    +0.000 A 
ATOM      8  C   UNL     1       4.688   4.555  17.244  0.00  0.00    +0.000 A 
ATOM      9  C   UNL     1       3.426   5.143  17.350  0.00  0.00    +0.000 A 
ATOM     10  C   UNL     1       3.296   6.531  17.555  0.00  0.00    +0.000 A 
ATOM     11  C   UNL     1       4.425   7.356  17.636  0.00  0.00    +0.000 A 
ATOM     12  C   UNL     1       5.671   6.763  17.515  0.00  0.00    +0.000 A 
ATOM     13  H   UNL     1       6.377   9.295  17.976  0.00  0.00    +0.000 HD
ENDROOT
BRANCH   1  16
ATOM     14  O   UNL     1       7.666  11.345  17.578  0.00  0.00    +0.000 OA
ATOM     15  C   UNL     1       8.545  10.598  18.009  0.00  0.00    +0.000 C 
ATOM     16  N   UNL     1       8.393   9.228  18.018  0.00  0.00    +0.000 N 
ATOM     17  H   UNL     1       9.038   8.558  18.435  0.00  0.00    +0.000 HD
BRANCH  15  18
ATOM     18  C   UNL     1       9.829  11.163  18.492  0.00  0.00    +0.000 A 
ATOM     19  C   UNL     1      10.727  11.597  17.499  0.00  0.00    +0.000 A 
ATOM     20  C   UNL     1      11.947  12.179  17.846  0.00  0.00    +0.000 A 
ATOM     21  C   UNL     1      12.278  12.343  19.187  0.00  0.00    +0.000 A 
ATOM     22  C   UNL     1      11.391  11.922  20.180  0.00  0.00    +0.000 A 
ATOM     23  C   UNL     1      10.167  11.332  19.840  0.00  0.00    +0.000 A 
ATOM     24 CL   UNL     1       9.121  10.900  21.143  0.00  0.00    +0.000 Cl
ENDBRANCH  15  18
ENDBRANCH   1  16
TORSDOF 2
ENDMDL
MODEL 9
REMARK VINA RESULT:      -7.9      1.177      1.586
REMARK  Name = 
REMARK  2 active torsions:
REMARK  status: ('A' for Active; 'I' for Inactive)
REMARK    1  A    between atoms: C_2  and  C_16
REMARK    2  A    between atoms: N_3  and  N_4
REMARK                            x       y       z     vdW  Elec       q    Type
REMARK                         _______ _______ _______ _____ _____    ______ ____
ROOT
ATOM      1  N   UNL     1       2.730   6.794  19.715  0.00  0.00    +0.000 N 
ATOM      2  C   UNL     1       2.487   5.463  19.966  0.00  0.00    +0.000 C 
ATOM      3  N   UNL     1       1.855   5.009  21.014  0.00  0.00    +0.000 NA
ATOM      4  S   UNL     1       1.822   3.366  21.004  0.00  0.00    +0.000 S 
ATOM      5  O   UNL     1       0.475   2.894  20.760  0.00  0.00    +0.000 OA
ATOM      6  O   UNL     1       2.652   2.841  22.066  0.00  0.00    +0.000 OA
ATOM      7  C   UNL     1       2.707   3.175  19.521  0.00  0.00    +0.000 A 
ATOM      8  C   UNL     1       3.105   2.007  18.899  0.00  0.00    +0.000 A 
ATOM      9  C   UNL     1       3.819   2.140  17.706  0.00  0.00    +0.000 A 
ATOM     10  C   UNL     1       4.100   3.415  17.176  0.00  0.00    +0.000 A 
ATOM     11  C   UNL     1       3.691   4.578  17.842  0.00  0.00    +0.000 A 
ATOM     12  C   UNL     1       2.997   4.433  19.031  0.00  0.00    +0.000 A 
ATOM     13  H   UNL     1       2.961   7.088  18.763  0.00  0.00    +0.000 HD
ENDROOT
BRANCH   1  16
ATOM     14  O   UNL     1       1.936   8.997  18.468  0.00  0.00    +0.000 OA
ATOM     15  C   UNL     1       1.503   8.805  19.605  0.00  0.00    +0.000 C 
ATOM     16  N   UNL     1       1.889   7.714  20.354  0.00  0.00    +0.000 N 
ATOM     17  H   UNL     1       1.510   7.448  21.262  0.00  0.00    +0.000 HD
BRANCH  15  18
ATOM     18  C   UNL     1       0.575   9.784  20.221  0.00  0.00    +0.000 A 
ATOM     19  C   UNL     1      -0.297  10.450  19.340  0.00  0.00    +0.000 A 
ATOM     20  C   UNL     1      -1.237  11.363  19.820  0.00  0.00    +0.000 A 
ATOM     21  C   UNL     1      -1.321  11.613  21.187  0.00  0.00    +0.000 A 
ATOM     22  C   UNL     1      -0.466  10.953  22.070  0.00  0.00    +0.000 A 
ATOM     23  C   UNL     1       0.484  10.038  21.594  0.00  0.00    +0.000 A 
ATOM     24 CL   UNL     1       1.452   9.235  22.777  0.00  0.00    +0.000 Cl
ENDBRANCH  15  18
ENDBRANCH   1  16
TORSDOF 2
ENDMDL
