MODEL 1
REMARK VINA RESULT:      -7.5      0.000      0.000
REMARK  Name = 
REMARK  9 active torsions:
REMARK  status: ('A' for Active; 'I' for Inactive)
REMARK    1  A    between atoms: C_1  and  C_2
REMARK    2  A    between atoms: C_6  and  C_7
REMARK    3  A    between atoms: C_7  and  C_8
REMARK    4  A    between atoms: C_7  and  C_9
REMARK    5  A    between atoms: C_10  and  N_11
REMARK    6  A    between atoms: C_12  and  C_14
REMARK    7  A    between atoms: C_17  and  O_18
REMARK    8  A    between atoms: O_18  and  C_19
REMARK    9  A    between atoms: C_19  and  C_20
REMARK                            x       y       z     vdW  Elec       q    Type
REMARK                         _______ _______ _______ _____ _____    ______ ____
ROOT
ATOM      1  N   UNL     1       2.215   5.575  18.238  0.00  0.00    +0.000 N 
ATOM      2  C   UNL     1       2.668   6.495  19.168  0.00  0.00    +0.000 C 
ATOM      3  O   UNL     1       3.516   6.272  20.030  0.00  0.00    +0.000 OA
ATOM      4  H   UNL     1       1.251   5.710  17.970  0.00  0.00    +0.000 HD
ENDROOT
BRANCH   1  11
ATOM      5  C   UNL     1       0.733   3.490  19.660  0.00  0.00    +0.000 C 
ATOM      6  C   UNL     1       1.972   3.224  18.846  0.00  0.00    +0.000 A 
ATOM      7  C   UNL     1       2.461   1.905  18.862  0.00  0.00    +0.000 A 
ATOM      8  C   UNL     1       3.610   1.562  18.164  0.00  0.00    +0.000 A 
ATOM      9  C   UNL     1       4.293   2.540  17.452  0.00  0.00    +0.000 A 
ATOM     10  C   UNL     1       3.881   3.892  17.454  0.00  0.00    +0.000 A 
ATOM     11  C   UNL     1       2.710   4.237  18.181  0.00  0.00    +0.000 A 
BRANCH  10  12
ATOM     12  C   UNL     1       4.697   4.873  16.612  0.00  0.00    +0.000 C 
ATOM     13  C   UNL     1       5.792   5.563  17.441  0.00  0.00    +0.000 C 
ATOM     14  C   UNL     1       5.320   4.194  15.385  0.00  0.00    +0.000 C 
ENDBRANCH  10  12
ENDBRANCH   1  11
BRANCH   2  15
ATOM     15  C   UNL     1       2.013   7.838  19.157  0.00  0.00    +0.000 A 
ATOM     16  C   UNL     1       1.977   8.520  17.937  0.00  0.00    +0.000 A 
ATOM     17  C   UNL     1       1.285   9.727  17.811  0.00  0.00    +0.000 A 
ATOM     18  C   UNL     1       0.594  10.270  18.895  0.00  0.00    +0.000 A 
ATOM     19  C   UNL     1       0.660   9.608  20.129  0.00  0.00    +0.000 A 
ATOM     20  C   UNL     1       1.369   8.398  20.266  0.00  0.00    +0.000 A 
BRANCH  18  21
ATOM     21  O   UNL     1      -0.182  11.406  18.846  0.00  0.00    +0.000 OA
BRANCH  21  22
ATOM     22  C   UNL     1      -1.494  11.265  19.406  0.00  0.00    +0.000 C 
BRANCH  22  23
ATOM     23  C   UNL     1      -2.587  11.157  18.343  0.00  0.00    +0.000 C 
ATOM     24  C   UNL     1      -2.926   9.730  17.937  0.00  0.00    +0.000 C 
ATOM     25  C   UNL     1      -3.343   9.903  16.495  0.00  0.00    +0.000 C 
ATOM     26  C   UNL     1      -2.391  10.974  16.016  0.00  0.00    +0.000 C 
ATOM     27  O   UNL     1      -2.136  11.825  17.142  0.00  0.00    +0.000 OA
ENDBRANCH  22  23
ENDBRANCH  21  22
ENDBRANCH  18  21
ENDBRANCH   2  15
TORSDOF 6
ENDMDL
MODEL 2
REMARK VINA RESULT:      -7.4      0.706      1.272
REMARK  Name = 
REMARK  9 active torsions:
REMARK  status: ('A' for Active; 'I' for Inactive)
REMARK    1  A    between atoms: C_1  and  C_2
REMARK    2  A    between atoms: C_6  and  C_7
REMARK    3  A    between atoms: C_7  and  C_8
REMARK    4  A    between atoms: C_7  and  C_9
REMARK    5  A    between atoms: C_10  and  N_11
REMARK    6  A    between atoms: C_12  and  C_14
REMARK    7  A    between atoms: C_17  and  O_18
REMARK    8  A    between atoms: O_18  and  C_19
REMARK    9  A    between atoms: C_19  and  C_20
REMARK                            x       y       z     vdW  Elec       q    Type
REMARK                         _______ _______ _______ _____ _____    ______ ____
ROOT
ATOM      1  N   UNL     1       2.211   5.589  18.217  0.00  0.00    +0.000 N 
ATOM      2  C   UNL     1       2.637   6.495  19.174  0.00  0.00    +0.000 C 
ATOM      3  O   UNL     1       3.458   6.259  20.057  0.00  0.00    +0.000 OA
ATOM      4  H   UNL     1       1.255   5.731  17.922  0.00  0.00    +0.000 HD
ENDROOT
BRANCH   1  11
ATOM      5  C   UNL     1       0.747   3.510  19.666  0.00  0.00    +0.000 C 
ATOM      6  C   UNL     1       1.975   3.241  18.835  0.00  0.00    +0.000 A 
ATOM      7  C   UNL     1       2.463   1.922  18.848  0.00  0.00    +0.000 A 
ATOM      8  C   UNL     1       3.602   1.576  18.135  0.00  0.00    +0.000 A 
ATOM      9  C   UNL     1       4.275   2.551  17.410  0.00  0.00    +0.000 A 
ATOM     10  C   UNL     1       3.864   3.904  17.415  0.00  0.00    +0.000 A 
ATOM     11  C   UNL     1       2.704   4.252  18.157  0.00  0.00    +0.000 A 
BRANCH  10  12
ATOM     12  C   UNL     1       4.669   4.883  16.558  0.00  0.00    +0.000 C 
ATOM     13  C   UNL     1       5.715   5.642  17.391  0.00  0.00    +0.000 C 
ATOM     14  C   UNL     1       5.350   4.181  15.376  0.00  0.00    +0.000 C 
ENDBRANCH  10  12
ENDBRANCH   1  11
BRANCH   2  15
ATOM     15  C   UNL     1       1.986   7.841  19.161  0.00  0.00    +0.000 A 
ATOM     16  C   UNL     1       1.389   8.272  20.350  0.00  0.00    +0.000 A 
ATOM     17  C   UNL     1       0.860   9.561  20.459  0.00  0.00    +0.000 A 
ATOM     18  C   UNL     1       0.935  10.456  19.391  0.00  0.00    +0.000 A 
ATOM     19  C   UNL     1       1.497  10.013  18.186  0.00  0.00    +0.000 A 
ATOM     20  C   UNL     1       2.019   8.711  18.065  0.00  0.00    +0.000 A 
BRANCH  18  21
ATOM     21  O   UNL     1       0.518  11.768  19.432  0.00  0.00    +0.000 OA
BRANCH  21  22
ATOM     22  C   UNL     1      -0.559  12.086  18.540  0.00  0.00    +0.000 C 
BRANCH  22  23
ATOM     23  C   UNL     1      -1.769  11.172  18.719  0.00  0.00    +0.000 C 
ATOM     24  C   UNL     1      -2.100  10.324  17.499  0.00  0.00    +0.000 C 
ATOM     25  C   UNL     1      -3.599  10.178  17.612  0.00  0.00    +0.000 C 
ATOM     26  C   UNL     1      -4.010  11.533  18.141  0.00  0.00    +0.000 C 
ATOM     27  O   UNL     1      -2.936  11.988  18.974  0.00  0.00    +0.000 OA
ENDBRANCH  22  23
ENDBRANCH  21  22
ENDBRANCH  18  21
ENDBRANCH   2  15
TORSDOF 6
ENDMDL
MODEL 3
REMARK VINA RESULT:      -7.1      1.929      8.270
REMARK  Name = 
REMARK  9 active torsions:
REMARK  status: ('A' for Active; 'I' for Inactive)
REMARK    1  A    between atoms: C_1  and  C_2
REMARK    2  A    between atoms: C_6  and  C_7
REMARK    3  A    between atoms: C_7  and  C_8
REMARK    4  A    between atoms: C_7  and  C_9
REMARK    5  A    between atoms: C_10  and  N_11
REMARK    6  A    between atoms: C_12  and  C_14
REMARK    7  A    between atoms: C_17  and  O_18
REMARK    8  A    between atoms: O_18  and  C_19
REMARK    9  A    between atoms: C_19  and  C_20
REMARK                            x       y       z     vdW  Elec       q    Type
REMARK                         _______ _______ _______ _____ _____    ______ ____
ROOT
ATOM      1  N   UNL     1      -0.101   9.483  19.369  0.00  0.00    +0.000 N 
ATOM      2  C   UNL     1       1.151   9.693  18.818  0.00  0.00    +0.000 C 
ATOM      3  O   UNL     1       1.540  10.749  18.323  0.00  0.00    +0.000 OA
ATOM      4  H   UNL     1      -0.437   8.536  19.265  0.00  0.00    +0.000 HD
ENDROOT
BRANCH   1  11
ATOM      5  C   UNL     1      -1.894   9.802  17.078  0.00  0.00    +0.000 C 
ATOM      6  C   UNL     1      -1.980  10.639  18.328  0.00  0.00    +0.000 A 
ATOM      7  C   UNL     1      -2.932  11.675  18.323  0.00  0.00    +0.000 A 
ATOM      8  C   UNL     1      -3.074  12.517  19.416  0.00  0.00    +0.000 A 
ATOM      9  C   UNL     1      -2.254  12.342  20.524  0.00  0.00    +0.000 A 
ATOM     10  C   UNL     1      -1.240  11.358  20.555  0.00  0.00    +0.000 A 
ATOM     11  C   UNL     1      -1.093  10.507  19.427  0.00  0.00    +0.000 A 
BRANCH  10  12
ATOM     12  C   UNL     1      -0.417  11.242  21.839  0.00  0.00    +0.000 C 
ATOM     13  C   UNL     1      -0.863  12.265  22.896  0.00  0.00    +0.000 C 
ATOM     14  C   UNL     1      -0.472   9.826  22.427  0.00  0.00    +0.000 C 
ENDBRANCH  10  12
ENDBRANCH   1  11
BRANCH   2  15
ATOM     15  C   UNL     1       2.066   8.512  18.762  0.00  0.00    +0.000 A 
ATOM     16  C   UNL     1       1.959   7.573  19.792  0.00  0.00    +0.000 A 
ATOM     17  C   UNL     1       2.694   6.385  19.757  0.00  0.00    +0.000 A 
ATOM     18  C   UNL     1       3.536   6.097  18.682  0.00  0.00    +0.000 A 
ATOM     19  C   UNL     1       3.674   7.054  17.667  0.00  0.00    +0.000 A 
ATOM     20  C   UNL     1       2.947   8.260  17.703  0.00  0.00    +0.000 A 
BRANCH  18  21
ATOM     21  O   UNL     1       4.233   4.921  18.519  0.00  0.00    +0.000 OA
BRANCH  21  22
ATOM     22  C   UNL     1       3.785   4.100  17.433  0.00  0.00    +0.000 C 
BRANCH  22  23
ATOM     23  C   UNL     1       2.795   3.022  17.871  0.00  0.00    +0.000 C 
ATOM     24  C   UNL     1       1.355   3.502  17.984  0.00  0.00    +0.000 C 
ATOM     25  C   UNL     1       0.814   2.619  19.085  0.00  0.00    +0.000 C 
ATOM     26  C   UNL     1       2.001   2.507  20.013  0.00  0.00    +0.000 C 
ATOM     27  O   UNL     1       3.170   2.550  19.185  0.00  0.00    +0.000 OA
ENDBRANCH  22  23
ENDBRANCH  21  22
ENDBRANCH  18  21
ENDBRANCH   2  15
TORSDOF 6
ENDMDL
MODEL 4
REMARK VINA RESULT:      -7.1      2.000      2.856
REMARK  Name = 
REMARK  9 active torsions:
REMARK  status: ('A' for Active; 'I' for Inactive)
REMARK    1  A    between atoms: C_1  and  C_2
REMARK    2  A    between atoms: C_6  and  C_7
REMARK    3  A    between atoms: C_7  and  C_8
REMARK    4  A    between atoms: C_7  and  C_9
REMARK    5  A    between atoms: C_10  and  N_11
REMARK    6  A    between atoms: C_12  and  C_14
REMARK    7  A    between atoms: C_17  and  O_18
REMARK    8  A    between atoms: O_18  and  C_19
REMARK    9  A    between atoms: C_19  and  C_20
REMARK                            x       y       z     vdW  Elec       q    Type
REMARK                         _______ _______ _______ _____ _____    ______ ____
ROOT
ATOM      1  N   UNL     1       2.252   5.615  18.228  0.00  0.00    +0.000 N 
ATOM      2  C   UNL     1       2.638   6.466  19.251  0.00  0.00    +0.000 C 
ATOM      3  O   UNL     1       3.392   6.167  20.174  0.00  0.00    +0.000 OA
ATOM      4  H   UNL     1       1.322   5.797  17.879  0.00  0.00    +0.000 HD
ENDROOT
BRANCH   1  11
ATOM      5  C   UNL     1       0.747   3.544  19.645  0.00  0.00    +0.000 C 
ATOM      6  C   UNL     1       1.963   3.262  18.802  0.00  0.00    +0.000 A 
ATOM      7  C   UNL     1       2.420   1.931  18.787  0.00  0.00    +0.000 A 
ATOM      8  C   UNL     1       3.546   1.572  18.061  0.00  0.00    +0.000 A 
ATOM      9  C   UNL     1       4.239   2.545  17.351  0.00  0.00    +0.000 A 
ATOM     10  C   UNL     1       3.860   3.907  17.384  0.00  0.00    +0.000 A 
ATOM     11  C   UNL     1       2.712   4.268  18.139  0.00  0.00    +0.000 A 
BRANCH  10  12
ATOM     12  C   UNL     1       4.684   4.882  16.542  0.00  0.00    +0.000 C 
ATOM     13  C   UNL     1       5.713   5.642  17.393  0.00  0.00    +0.000 C 
ATOM     14  C   UNL     1       5.388   4.177  15.375  0.00  0.00    +0.000 C 
ENDBRANCH  10  12
ENDBRANCH   1  11
BRANCH   2  15
ATOM     15  C   UNL     1       2.025   7.829  19.257  0.00  0.00    +0.000 A 
ATOM     16  C   UNL     1       1.997   8.522  18.042  0.00  0.00    +0.000 A 
ATOM     17  C   UNL     1       1.340   9.750  17.934  0.00  0.00    +0.000 A 
ATOM     18  C   UNL     1       0.678  10.305  19.030  0.00  0.00    +0.000 A 
ATOM     19  C   UNL     1       0.738   9.632  20.258  0.00  0.00    +0.000 A 
ATOM     20  C   UNL     1       1.410   8.400  20.377  0.00  0.00    +0.000 A 
BRANCH  18  21
ATOM     21  O   UNL     1      -0.063  11.465  18.997  0.00  0.00    +0.000 OA
BRANCH  21  22
ATOM     22  C   UNL     1       0.591  12.614  19.553  0.00  0.00    +0.000 C 
BRANCH  22  23
ATOM     23  C   UNL     1       1.241  13.500  18.491  0.00  0.00    +0.000 C 
ATOM     24  C   UNL     1       2.754  13.366  18.404  0.00  0.00    +0.000 C 
ATOM     25  C   UNL     1       3.169  14.748  17.956  0.00  0.00    +0.000 C 
ATOM     26  C   UNL     1       2.194  15.629  18.703  0.00  0.00    +0.000 C 
ATOM     27  O   UNL     1       0.974  14.885  18.812  0.00  0.00    +0.000 OA
ENDBRANCH  22  23
ENDBRANCH  21  22
ENDBRANCH  18  21
ENDBRANCH   2  15
TORSDOF 6
ENDMDL
MODEL 5
REMARK VINA RESULT:      -7.1      2.987      8.622
REMARK  Name = 
REMARK  9 active torsions:
REMARK  status: ('A' for Active; 'I' for Inactive)
REMARK    1  A    between atoms: C_1  and  C_2
REMARK    2  A    between atoms: C_6  and  C_7
REMARK    3  A    between atoms: C_7  and  C_8
REMARK    4  A    between atoms: C_7  and  C_9
REMARK    5  A    between atoms: C_10  and  N_11
REMARK    6  A    between atoms: C_12  and  C_14
REMARK    7  A    between atoms: C_17  and  O_18
REMARK    8  A    between atoms: O_18  and  C_19
REMARK    9  A    between atoms: C_19  and  C_20
REMARK                            x       y       z     vdW  Elec       q    Type
REMARK                         _______ _______ _______ _____ _____    ______ ____
ROOT
ATOM      1  N   UNL     1       1.154  10.201  20.819  0.00  0.00    +0.000 N 
ATOM      2  C   UNL     1       0.872   9.616  19.595  0.00  0.00    +0.000 C 
ATOM      3  O   UNL     1      -0.116   9.857  18.906  0.00  0.00    +0.000 OA
ATOM      4  H   UNL     1       1.655   9.595  21.452  0.00  0.00    +0.000 HD
ENDROOT
BRANCH   1  11
ATOM      5  C   UNL     1      -0.601   9.356  23.003  0.00  0.00    +0.000 C 
ATOM      6  C   UNL     1      -0.527  10.772  22.493  0.00  0.00    +0.000 A 
ATOM      7  C   UNL     1      -1.425  11.691  23.065  0.00  0.00    +0.000 A 
ATOM      8  C   UNL     1      -1.452  13.014  22.648  0.00  0.00    +0.000 A 
ATOM      9  C   UNL     1      -0.590  13.430  21.641  0.00  0.00    +0.000 A 
ATOM     10  C   UNL     1       0.286  12.533  20.989  0.00  0.00    +0.000 A 
ATOM     11  C   UNL     1       0.301  11.178  21.414  0.00  0.00    +0.000 A 
BRANCH  10  12
ATOM     12  C   UNL     1       1.207  13.112  19.913  0.00  0.00    +0.000 C 
ATOM     13  C   UNL     1       0.441  13.429  18.619  0.00  0.00    +0.000 C 
ATOM     14  C   UNL     1       1.944  14.364  20.405  0.00  0.00    +0.000 C 
ENDBRANCH  10  12
ENDBRANCH   1  11
BRANCH   2  15
ATOM     15  C   UNL     1       1.818   8.559  19.124  0.00  0.00    +0.000 A 
ATOM     16  C   UNL     1       2.001   7.450  19.956  0.00  0.00    +0.000 A 
ATOM     17  C   UNL     1       2.776   6.364  19.540  0.00  0.00    +0.000 A 
ATOM     18  C   UNL     1       3.368   6.351  18.277  0.00  0.00    +0.000 A 
ATOM     19  C   UNL     1       3.217   7.477  17.456  0.00  0.00    +0.000 A 
ATOM     20  C   UNL     1       2.449   8.582  17.875  0.00  0.00    +0.000 A 
BRANCH  18  21
ATOM     21  O   UNL     1       4.077   5.294  17.750  0.00  0.00    +0.000 OA
BRANCH  21  22
ATOM     22  C   UNL     1       4.872   5.615  16.601  0.00  0.00    +0.000 C 
BRANCH  22  23
ATOM     23  C   UNL     1       6.357   5.757  16.926  0.00  0.00    +0.000 C 
ATOM     24  C   UNL     1       6.695   5.587  18.400  0.00  0.00    +0.000 C 
ATOM     25  C   UNL     1       7.900   6.484  18.554  0.00  0.00    +0.000 C 
ATOM     26  C   UNL     1       7.554   7.639  17.643  0.00  0.00    +0.000 C 
ATOM     27  O   UNL     1       6.789   7.090  16.563  0.00  0.00    +0.000 OA
ENDBRANCH  22  23
ENDBRANCH  21  22
ENDBRANCH  18  21
ENDBRANCH   2  15
TORSDOF 6
ENDMDL
MODEL 6
REMARK VINA RESULT:      -7.0      1.774      2.860
REMARK  Name = 
REMARK  9 active torsions:
REMARK  status: ('A' for Active; 'I' for Inactive)
REMARK    1  A    between atoms: C_1  and  C_2
REMARK    2  A    between atoms: C_6  and  C_7
REMARK    3  A    between atoms: C_7  and  C_8
REMARK    4  A    between atoms: C_7  and  C_9
REMARK    5  A    between atoms: C_10  and  N_11
REMARK    6  A    between atoms: C_12  and  C_14
REMARK    7  A    between atoms: C_17  and  O_18
REMARK    8  A    between atoms: O_18  and  C_19
REMARK    9  A    between atoms: C_19  and  C_20
REMARK                            x       y       z     vdW  Elec       q    Type
REMARK                         _______ _______ _______ _____ _____    ______ ____
ROOT
ATOM      1  N   UNL     1       2.248   5.620  18.246  0.00  0.00    +0.000 N 
ATOM      2  C   UNL     1       2.644   6.466  19.269  0.00  0.00    +0.000 C 
ATOM      3  O   UNL     1       3.397   6.159  20.190  0.00  0.00    +0.000 OA
ATOM      4  H   UNL     1       1.319   5.810  17.899  0.00  0.00    +0.000 HD
ENDROOT
BRANCH   1  11
ATOM      5  C   UNL     1       0.743   3.562  19.684  0.00  0.00    +0.000 C 
ATOM      6  C   UNL     1       1.948   3.269  18.827  0.00  0.00    +0.000 A 
ATOM      7  C   UNL     1       2.394   1.935  18.810  0.00  0.00    +0.000 A 
ATOM      8  C   UNL     1       3.508   1.567  18.071  0.00  0.00    +0.000 A 
ATOM      9  C   UNL     1       4.201   2.533  17.351  0.00  0.00    +0.000 A 
ATOM     10  C   UNL     1       3.833   3.897  17.387  0.00  0.00    +0.000 A 
ATOM     11  C   UNL     1       2.697   4.269  18.154  0.00  0.00    +0.000 A 
BRANCH  10  12
ATOM     12  C   UNL     1       4.655   4.865  16.533  0.00  0.00    +0.000 C 
ATOM     13  C   UNL     1       5.645   5.675  17.383  0.00  0.00    +0.000 C 
ATOM     14  C   UNL     1       5.403   4.140  15.407  0.00  0.00    +0.000 C 
ENDBRANCH  10  12
ENDBRANCH   1  11
BRANCH   2  15
ATOM     15  C   UNL     1       2.042   7.834  19.278  0.00  0.00    +0.000 A 
ATOM     16  C   UNL     1       2.051   8.544  18.073  0.00  0.00    +0.000 A 
ATOM     17  C   UNL     1       1.408   9.779  17.965  0.00  0.00    +0.000 A 
ATOM     18  C   UNL     1       0.722  10.325  19.051  0.00  0.00    +0.000 A 
ATOM     19  C   UNL     1       0.744   9.634  20.270  0.00  0.00    +0.000 A 
ATOM     20  C   UNL     1       1.403   8.394  20.390  0.00  0.00    +0.000 A 
BRANCH  18  21
ATOM     21  O   UNL     1      -0.008  11.492  19.016  0.00  0.00    +0.000 OA
BRANCH  21  22
ATOM     22  C   UNL     1      -0.299  12.059  20.300  0.00  0.00    +0.000 C 
BRANCH  22  23
ATOM     23  C   UNL     1       0.487  13.340  20.576  0.00  0.00    +0.000 C 
ATOM     24  C   UNL     1       0.928  14.086  19.326  0.00  0.00    +0.000 C 
ATOM     25  C   UNL     1       2.214  14.737  19.783  0.00  0.00    +0.000 C 
ATOM     26  C   UNL     1       2.803  13.676  20.683  0.00  0.00    +0.000 C 
ATOM     27  O   UNL     1       1.696  12.999  21.293  0.00  0.00    +0.000 OA
ENDBRANCH  22  23
ENDBRANCH  21  22
ENDBRANCH  18  21
ENDBRANCH   2  15
TORSDOF 6
ENDMDL
MODEL 7
REMARK VINA RESULT:      -7.0      2.277      3.281
REMARK  Name = 
REMARK  9 active torsions:
REMARK  status: ('A' for Active; 'I' for Inactive)
REMARK    1  A    between atoms: C_1  and  C_2
REMARK    2  A    between atoms: C_6  and  C_7
REMARK    3  A    between atoms: C_7  and  C_8
REMARK    4  A    between atoms: C_7  and  C_9
REMARK    5  A    between atoms: C_10  and  N_11
REMARK    6  A    between atoms: C_12  and  C_14
REMARK    7  A    between atoms: C_17  and  O_18
REMARK    8  A    between atoms: O_18  and  C_19
REMARK    9  A    between atoms: C_19  and  C_20
REMARK                            x       y       z     vdW  Elec       q    Type
REMARK                         _______ _______ _______ _____ _____    ______ ____
ROOT
ATOM      1  N   UNL     1       2.217   5.613  18.155  0.00  0.00    +0.000 N 
ATOM      2  C   UNL     1       2.643   6.528  19.102  0.00  0.00    +0.000 C 
ATOM      3  O   UNL     1       3.445   6.294  20.003  0.00  0.00    +0.000 OA
ATOM      4  H   UNL     1       1.269   5.765  17.841  0.00  0.00    +0.000 HD
ENDROOT
BRANCH   1  11
ATOM      5  C   UNL     1       0.696   3.587  19.621  0.00  0.00    +0.000 C 
ATOM      6  C   UNL     1       1.931   3.281  18.813  0.00  0.00    +0.000 A 
ATOM      7  C   UNL     1       2.395   1.954  18.858  0.00  0.00    +0.000 A 
ATOM      8  C   UNL     1       3.538   1.575  18.168  0.00  0.00    +0.000 A 
ATOM      9  C   UNL     1       4.238   2.524  17.435  0.00  0.00    +0.000 A 
ATOM     10  C   UNL     1       3.851   3.883  17.408  0.00  0.00    +0.000 A 
ATOM     11  C   UNL     1       2.687   4.266  18.127  0.00  0.00    +0.000 A 
BRANCH  10  12
ATOM     12  C   UNL     1       4.685   4.831  16.545  0.00  0.00    +0.000 C 
ATOM     13  C   UNL     1       5.751   5.567  17.372  0.00  0.00    +0.000 C 
ATOM     14  C   UNL     1       5.348   4.101  15.370  0.00  0.00    +0.000 C 
ENDBRANCH  10  12
ENDBRANCH   1  11
BRANCH   2  15
ATOM     15  C   UNL     1       2.016   7.884  19.054  0.00  0.00    +0.000 A 
ATOM     16  C   UNL     1       1.425   8.356  20.231  0.00  0.00    +0.000 A 
ATOM     17  C   UNL     1       0.920   9.657  20.306  0.00  0.00    +0.000 A 
ATOM     18  C   UNL     1       1.012  10.523  19.216  0.00  0.00    +0.000 A 
ATOM     19  C   UNL     1       1.570  10.040  18.024  0.00  0.00    +0.000 A 
ATOM     20  C   UNL     1       2.068   8.726  17.936  0.00  0.00    +0.000 A 
BRANCH  18  21
ATOM     21  O   UNL     1       0.619  11.843  19.224  0.00  0.00    +0.000 OA
BRANCH  21  22
ATOM     22  C   UNL     1       1.656  12.779  19.548  0.00  0.00    +0.000 C 
BRANCH  22  23
ATOM     23  C   UNL     1       1.967  13.742  18.404  0.00  0.00    +0.000 C 
ATOM     24  C   UNL     1       3.448  14.039  18.221  0.00  0.00    +0.000 C 
ATOM     25  C   UNL     1       3.423  15.450  17.680  0.00  0.00    +0.000 C 
ATOM     26  C   UNL     1       2.276  16.063  18.449  0.00  0.00    +0.000 C 
ATOM     27  O   UNL     1       1.329  15.011  18.676  0.00  0.00    +0.000 OA
ENDBRANCH  22  23
ENDBRANCH  21  22
ENDBRANCH  18  21
ENDBRANCH   2  15
TORSDOF 6
ENDMDL
MODEL 8
REMARK VINA RESULT:      -7.0      2.610      8.320
REMARK  Name = 
REMARK  9 active torsions:
REMARK  status: ('A' for Active; 'I' for Inactive)
REMARK    1  A    between atoms: C_1  and  C_2
REMARK    2  A    between atoms: C_6  and  C_7
REMARK    3  A    between atoms: C_7  and  C_8
REMARK    4  A    between atoms: C_7  and  C_9
REMARK    5  A    between atoms: C_10  and  N_11
REMARK    6  A    between atoms: C_12  and  C_14
REMARK    7  A    between atoms: C_17  and  O_18
REMARK    8  A    between atoms: O_18  and  C_19
REMARK    9  A    between atoms: C_19  and  C_20
REMARK                            x       y       z     vdW  Elec       q    Type
REMARK                         _______ _______ _______ _____ _____    ______ ____
ROOT
ATOM      1  N   UNL     1       1.123  10.195  20.846  0.00  0.00    +0.000 N 
ATOM      2  C   UNL     1       0.893   9.554  19.640  0.00  0.00    +0.000 C 
ATOM      3  O   UNL     1      -0.060   9.769  18.894  0.00  0.00    +0.000 OA
ATOM      4  H   UNL     1       1.588   9.617  21.530  0.00  0.00    +0.000 HD
ENDROOT
BRANCH   1  11
ATOM      5  C   UNL     1      -0.621   9.515  23.095  0.00  0.00    +0.000 C 
ATOM      6  C   UNL     1      -0.570  10.882  22.463  0.00  0.00    +0.000 A 
ATOM      7  C   UNL     1      -1.484  11.833  22.952  0.00  0.00    +0.000 A 
ATOM      8  C   UNL     1      -1.533  13.113  22.421  0.00  0.00    +0.000 A 
ATOM      9  C   UNL     1      -0.676  13.454  21.382  0.00  0.00    +0.000 A 
ATOM     10  C   UNL     1       0.216  12.518  20.811  0.00  0.00    +0.000 A 
ATOM     11  C   UNL     1       0.253  11.206  21.353  0.00  0.00    +0.000 A 
BRANCH  10  12
ATOM     12  C   UNL     1       1.129  13.016  19.689  0.00  0.00    +0.000 C 
ATOM     13  C   UNL     1       0.449  14.103  18.841  0.00  0.00    +0.000 C 
ATOM     14  C   UNL     1       2.467  13.535  20.229  0.00  0.00    +0.000 C 
ENDBRANCH  10  12
ENDBRANCH   1  11
BRANCH   2  15
ATOM     15  C   UNL     1       1.849   8.469  19.264  0.00  0.00    +0.000 A 
ATOM     16  C   UNL     1       1.997   7.409  20.165  0.00  0.00    +0.000 A 
ATOM     17  C   UNL     1       2.781   6.298  19.841  0.00  0.00    +0.000 A 
ATOM     18  C   UNL     1       3.417   6.210  18.602  0.00  0.00    +0.000 A 
ATOM     19  C   UNL     1       3.301   7.288  17.713  0.00  0.00    +0.000 A 
ATOM     20  C   UNL     1       2.524   8.417  18.039  0.00  0.00    +0.000 A 
BRANCH  18  21
ATOM     21  O   UNL     1       4.138   5.123  18.163  0.00  0.00    +0.000 OA
BRANCH  21  22
ATOM     22  C   UNL     1       3.515   4.369  17.114  0.00  0.00    +0.000 C 
BRANCH  22  23
ATOM     23  C   UNL     1       2.687   3.197  17.635  0.00  0.00    +0.000 C 
ATOM     24  C   UNL     1       1.256   3.557  18.008  0.00  0.00    +0.000 C 
ATOM     25  C   UNL     1       0.964   2.580  19.123  0.00  0.00    +0.000 C 
ATOM     26  C   UNL     1       2.293   2.511  19.840  0.00  0.00    +0.000 C 
ATOM     27  O   UNL     1       3.305   2.688  18.840  0.00  0.00    +0.000 OA
ENDBRANCH  22  23
ENDBRANCH  21  22
ENDBRANCH  18  21
ENDBRANCH   2  15
TORSDOF 6
ENDMDL
MODEL 9
REMARK VINA RESULT:      -7.0      1.411      2.523
REMARK  Name = 
REMARK  9 active torsions:
REMARK  status: ('A' for Active; 'I' for Inactive)
REMARK    1  A    between atoms: C_1  and  C_2
REMARK    2  A    between atoms: C_6  and  C_7
REMARK    3  A    between atoms: C_7  and  C_8
REMARK    4  A    between atoms: C_7  and  C_9
REMARK    5  A    between atoms: C_10  and  N_11
REMARK    6  A    between atoms: C_12  and  C_14
REMARK    7  A    between atoms: C_17  and  O_18
REMARK    8  A    between atoms: O_18  and  C_19
REMARK    9  A    between atoms: C_19  and  C_20
REMARK                            x       y       z     vdW  Elec       q    Type
REMARK                         _______ _______ _______ _____ _____    ______ ____
ROOT
ATOM      1  N   UNL     1       2.269   5.611  18.240  0.00  0.00    +0.000 N 
ATOM      2  C   UNL     1       2.627   6.454  19.278  0.00  0.00    +0.000 C 
ATOM      3  O   UNL     1       3.338   6.142  20.231  0.00  0.00    +0.000 OA
ATOM      4  H   UNL     1       1.357   5.808  17.853  0.00  0.00    +0.000 HD
ENDROOT
BRANCH   1  11
ATOM      5  C   UNL     1       0.710   3.573  19.649  0.00  0.00    +0.000 C 
ATOM      6  C   UNL     1       1.935   3.266  18.827  0.00  0.00    +0.000 A 
ATOM      7  C   UNL     1       2.372   1.929  18.829  0.00  0.00    +0.000 A 
ATOM      8  C   UNL     1       3.503   1.547  18.123  0.00  0.00    +0.000 A 
ATOM      9  C   UNL     1       4.222   2.504  17.417  0.00  0.00    +0.000 A 
ATOM     10  C   UNL     1       3.864   3.871  17.434  0.00  0.00    +0.000 A 
ATOM     11  C   UNL     1       2.710   4.256  18.168  0.00  0.00    +0.000 A 
BRANCH  10  12
ATOM     12  C   UNL     1       4.715   4.828  16.598  0.00  0.00    +0.000 C 
ATOM     13  C   UNL     1       5.735   5.587  17.461  0.00  0.00    +0.000 C 
ATOM     14  C   UNL     1       5.436   4.101  15.455  0.00  0.00    +0.000 C 
ENDBRANCH  10  12
ENDBRANCH   1  11
BRANCH   2  15
ATOM     15  C   UNL     1       2.037   7.827  19.261  0.00  0.00    +0.000 A 
ATOM     16  C   UNL     1       2.014   8.497  18.033  0.00  0.00    +0.000 A 
ATOM     17  C   UNL     1       1.377   9.734  17.905  0.00  0.00    +0.000 A 
ATOM     18  C   UNL     1       0.731  10.321  18.993  0.00  0.00    +0.000 A 
ATOM     19  C   UNL     1       0.786   9.671  20.233  0.00  0.00    +0.000 A 
ATOM     20  C   UNL     1       1.438   8.430  20.373  0.00  0.00    +0.000 A 
BRANCH  18  21
ATOM     21  O   UNL     1       0.009  11.493  18.942  0.00  0.00    +0.000 OA
BRANCH  21  22
ATOM     22  C   UNL     1      -1.308  11.414  19.502  0.00  0.00    +0.000 C 
BRANCH  22  23
ATOM     23  C   UNL     1      -1.555  12.458  20.590  0.00  0.00    +0.000 C 
ATOM     24  C   UNL     1      -0.348  13.328  20.908  0.00  0.00    +0.000 C 
ATOM     25  C   UNL     1      -0.559  13.639  22.372  0.00  0.00    +0.000 C 
ATOM     26  C   UNL     1      -1.133  12.342  22.891  0.00  0.00    +0.000 C 
ATOM     27  O   UNL     1      -1.899  11.777  21.819  0.00  0.00    +0.000 OA
ENDBRANCH  22  23
ENDBRANCH  21  22
ENDBRANCH  18  21
ENDBRANCH   2  15
TORSDOF 6
ENDMDL
