MODEL 1
REMARK VINA RESULT:      -5.6      0.000      0.000
REMARK  Name = 
REMARK  4 active torsions:
REMARK  status: ('A' for Active; 'I' for Inactive)
REMARK    1  A    between atoms: C_1  and  C_2
REMARK    2  A    between atoms: C_5  and  C_6
REMARK    3  A    between atoms: C_6  and  C_9
REMARK    4  A    between atoms: C_9  and  N_10
REMARK                            x       y       z     vdW  Elec       q    Type
REMARK                         _______ _______ _______ _____ _____    ______ ____
ROOT
ATOM      1  C   UNL     1       0.540   2.854  18.963  0.00  0.00    +0.000 C 
ATOM      2  C   UNL     1       1.823   3.346  18.362  0.00  0.00    +0.000 A 
ATOM      3  C   UNL     1       2.825   2.453  17.960  0.00  0.00    +0.000 A 
ATOM      4  C   UNL     1       4.020   2.930  17.409  0.00  0.00    +0.000 A 
ATOM      5  C   UNL     1       4.237   4.312  17.228  0.00  0.00    +0.000 A 
ATOM      6  C   UNL     1       3.214   5.198  17.640  0.00  0.00    +0.000 A 
ATOM      7  C   UNL     1       2.029   4.719  18.202  0.00  0.00    +0.000 A 
ENDROOT
BRANCH   5   8
ATOM      8  C   UNL     1       5.535   4.810  16.634  0.00  0.00    +0.000 C 
ATOM      9  C   UNL     1       5.809   4.761  15.309  0.00  0.00    +0.000 C 
ATOM     10  F   UNL     1       4.972   4.210  14.392  0.00  0.00    +0.000 F 
BRANCH   8  11
ATOM     11  C   UNL     1       6.599   5.402  17.543  0.00  0.00    +0.000 C 
BRANCH  11  12
ATOM     12  N   UNL     1       7.465   4.338  18.047  0.00  0.00    +0.000 NA
ATOM     13  H   UNL     1       8.067   4.724  18.813  0.00  0.00    +0.000 HD
ATOM     14  H   UNL     1       8.096   4.024  17.275  0.00  0.00    +0.000 HD
ENDBRANCH  11  12
ENDBRANCH   8  11
ENDBRANCH   5   8
TORSDOF 3
ENDMDL
MODEL 2
REMARK VINA RESULT:      -5.5      2.935      4.697
REMARK  Name = 
REMARK  4 active torsions:
REMARK  status: ('A' for Active; 'I' for Inactive)
REMARK    1  A    between atoms: C_1  and  C_2
REMARK    2  A    between atoms: C_5  and  C_6
REMARK    3  A    between atoms: C_6  and  C_9
REMARK    4  A    between atoms: C_9  and  N_10
REMARK                            x       y       z     vdW  Elec       q    Type
REMARK                         _______ _______ _______ _____ _____    ______ ____
ROOT
ATOM      1  C   UNL     1       5.481   5.614  15.603  0.00  0.00    +0.000 C 
ATOM      2  C   UNL     1       4.568   5.125  16.689  0.00  0.00    +0.000 A 
ATOM      3  C   UNL     1       4.436   3.759  16.965  0.00  0.00    +0.000 A 
ATOM      4  C   UNL     1       3.572   3.321  17.977  0.00  0.00    +0.000 A 
ATOM      5  C   UNL     1       2.833   4.240  18.751  0.00  0.00    +0.000 A 
ATOM      6  C   UNL     1       2.980   5.616  18.456  0.00  0.00    +0.000 A 
ATOM      7  C   UNL     1       3.831   6.048  17.437  0.00  0.00    +0.000 A 
ENDROOT
BRANCH   5   8
ATOM      8  C   UNL     1       1.904   3.749  19.837  0.00  0.00    +0.000 C 
ATOM      9  C   UNL     1       0.853   2.931  19.597  0.00  0.00    +0.000 C 
ATOM     10  F   UNL     1       0.495   2.518  18.354  0.00  0.00    +0.000 F 
BRANCH   8  11
ATOM     11  C   UNL     1       2.140   4.174  21.277  0.00  0.00    +0.000 C 
BRANCH  11  12
ATOM     12  N   UNL     1       2.190   2.994  22.137  0.00  0.00    +0.000 NA
ATOM     13  H   UNL     1       1.544   2.264  21.752  0.00  0.00    +0.000 HD
ATOM     14  H   UNL     1       1.842   3.254  23.088  0.00  0.00    +0.000 HD
ENDBRANCH  11  12
ENDBRANCH   8  11
ENDBRANCH   5   8
TORSDOF 3
ENDMDL
MODEL 3
REMARK VINA RESULT:      -5.5      0.788      1.601
REMARK  Name = 
REMARK  4 active torsions:
REMARK  status: ('A' for Active; 'I' for Inactive)
REMARK    1  A    between atoms: C_1  and  C_2
REMARK    2  A    between atoms: C_5  and  C_6
REMARK    3  A    between atoms: C_6  and  C_9
REMARK    4  A    between atoms: C_9  and  N_10
REMARK                            x       y       z     vdW  Elec       q    Type
REMARK                         _______ _______ _______ _____ _____    ______ ____
ROOT
ATOM      1  C   UNL     1       0.636   2.733  18.845  0.00  0.00    +0.000 C 
ATOM      2  C   UNL     1       1.880   3.322  18.249  0.00  0.00    +0.000 A 
ATOM      3  C   UNL     1       2.052   4.709  18.154  0.00  0.00    +0.000 A 
ATOM      4  C   UNL     1       3.216   5.241  17.587  0.00  0.00    +0.000 A 
ATOM      5  C   UNL     1       4.248   4.399  17.118  0.00  0.00    +0.000 A 
ATOM      6  C   UNL     1       4.055   3.002  17.223  0.00  0.00    +0.000 A 
ATOM      7  C   UNL     1       2.886   2.475  17.776  0.00  0.00    +0.000 A 
ENDROOT
BRANCH   5   8
ATOM      8  C   UNL     1       5.497   4.991  16.507  0.00  0.00    +0.000 C 
ATOM      9  C   UNL     1       5.793   4.895  15.189  0.00  0.00    +0.000 C 
ATOM     10  F   UNL     1       5.029   4.210  14.299  0.00  0.00    +0.000 F 
BRANCH   8  11
ATOM     11  C   UNL     1       6.483   5.740  17.388  0.00  0.00    +0.000 C 
BRANCH  11  12
ATOM     12  N   UNL     1       7.387   6.530  16.555  0.00  0.00    +0.000 NA
ATOM     13  H   UNL     1       7.723   7.356  17.105  0.00  0.00    +0.000 HD
ATOM     14  H   UNL     1       6.856   6.893  15.731  0.00  0.00    +0.000 HD
ENDBRANCH  11  12
ENDBRANCH   8  11
ENDBRANCH   5   8
TORSDOF 3
ENDMDL
MODEL 4
REMARK VINA RESULT:      -5.4      1.761      2.455
REMARK  Name = 
REMARK  4 active torsions:
REMARK  status: ('A' for Active; 'I' for Inactive)
REMARK    1  A    between atoms: C_1  and  C_2
REMARK    2  A    between atoms: C_5  and  C_6
REMARK    3  A    between atoms: C_6  and  C_9
REMARK    4  A    between atoms: C_9  and  N_10
REMARK                            x       y       z     vdW  Elec       q    Type
REMARK                         _______ _______ _______ _____ _____    ______ ____
ROOT
ATOM      1  C   UNL     1       0.697   2.506  18.740  0.00  0.00    +0.000 C 
ATOM      2  C   UNL     1       1.922   3.227  18.261  0.00  0.00    +0.000 A 
ATOM      3  C   UNL     1       1.974   4.626  18.227  0.00  0.00    +0.000 A 
ATOM      4  C   UNL     1       3.123   5.282  17.769  0.00  0.00    +0.000 A 
ATOM      5  C   UNL     1       4.257   4.555  17.351  0.00  0.00    +0.000 A 
ATOM      6  C   UNL     1       4.186   3.143  17.391  0.00  0.00    +0.000 A 
ATOM      7  C   UNL     1       3.033   2.492  17.835  0.00  0.00    +0.000 A 
ENDROOT
BRANCH   5   8
ATOM      8  C   UNL     1       5.488   5.280  16.856  0.00  0.00    +0.000 C 
ATOM      9  C   UNL     1       6.403   5.834  17.685  0.00  0.00    +0.000 C 
ATOM     10  F   UNL     1       6.278   5.845  19.038  0.00  0.00    +0.000 F 
BRANCH   8  11
ATOM     11  C   UNL     1       5.739   5.403  15.362  0.00  0.00    +0.000 C 
BRANCH  11  12
ATOM     12  N   UNL     1       7.176   5.383  15.101  0.00  0.00    +0.000 NA
ATOM     13  H   UNL     1       7.384   4.636  14.395  0.00  0.00    +0.000 HD
ATOM     14  H   UNL     1       7.676   5.132  15.984  0.00  0.00    +0.000 HD
ENDBRANCH  11  12
ENDBRANCH   8  11
ENDBRANCH   5   8
TORSDOF 3
ENDMDL
MODEL 5
REMARK VINA RESULT:      -5.4      1.908      2.419
REMARK  Name = 
REMARK  4 active torsions:
REMARK  status: ('A' for Active; 'I' for Inactive)
REMARK    1  A    between atoms: C_1  and  C_2
REMARK    2  A    between atoms: C_5  and  C_6
REMARK    3  A    between atoms: C_6  and  C_9
REMARK    4  A    between atoms: C_9  and  N_10
REMARK                            x       y       z     vdW  Elec       q    Type
REMARK                         _______ _______ _______ _____ _____    ______ ____
ROOT
ATOM      1  C   UNL     1       1.188   3.843  20.615  0.00  0.00    +0.000 C 
ATOM      2  C   UNL     1       2.521   4.163  20.007  0.00  0.00    +0.000 A 
ATOM      3  C   UNL     1       2.820   5.453  19.551  0.00  0.00    +0.000 A 
ATOM      4  C   UNL     1       4.067   5.731  18.978  0.00  0.00    +0.000 A 
ATOM      5  C   UNL     1       5.055   4.731  18.864  0.00  0.00    +0.000 A 
ATOM      6  C   UNL     1       4.735   3.434  19.330  0.00  0.00    +0.000 A 
ATOM      7  C   UNL     1       3.485   3.157  19.888  0.00  0.00    +0.000 A 
ENDROOT
BRANCH   5   8
ATOM      8  C   UNL     1       6.394   5.048  18.241  0.00  0.00    +0.000 C 
ATOM      9  C   UNL     1       6.781   4.570  17.035  0.00  0.00    +0.000 C 
ATOM     10  F   UNL     1       6.031   3.714  16.294  0.00  0.00    +0.000 F 
BRANCH   8  11
ATOM     11  C   UNL     1       7.372   5.949  18.978  0.00  0.00    +0.000 C 
BRANCH  11  12
ATOM     12  N   UNL     1       7.752   5.331  20.246  0.00  0.00    +0.000 NA
ATOM     13  H   UNL     1       7.838   4.295  20.108  0.00  0.00    +0.000 HD
ATOM     14  H   UNL     1       6.991   5.495  20.943  0.00  0.00    +0.000 HD
ENDBRANCH  11  12
ENDBRANCH   8  11
ENDBRANCH   5   8
TORSDOF 3
ENDMDL
MODEL 6
REMARK VINA RESULT:      -5.4      1.713      2.073
REMARK  Name = 
REMARK  4 active torsions:
REMARK  status: ('A' for Active; 'I' for Inactive)
REMARK    1  A    between atoms: C_1  and  C_2
REMARK    2  A    between atoms: C_5  and  C_6
REMARK    3  A    between atoms: C_6  and  C_9
REMARK    4  A    between atoms: C_9  and  N_10
REMARK                            x       y       z     vdW  Elec       q    Type
REMARK                         _______ _______ _______ _____ _____    ______ ____
ROOT
ATOM      1  C   UNL     1       0.885   3.660  20.419  0.00  0.00    +0.000 C 
ATOM      2  C   UNL     1       1.969   4.032  19.450  0.00  0.00    +0.000 A 
ATOM      3  C   UNL     1       2.997   4.911  19.814  0.00  0.00    +0.000 A 
ATOM      4  C   UNL     1       3.995   5.253  18.894  0.00  0.00    +0.000 A 
ATOM      5  C   UNL     1       4.002   4.709  17.592  0.00  0.00    +0.000 A 
ATOM      6  C   UNL     1       2.955   3.824  17.243  0.00  0.00    +0.000 A 
ATOM      7  C   UNL     1       1.953   3.496  18.159  0.00  0.00    +0.000 A 
ENDROOT
BRANCH   5   8
ATOM      8  C   UNL     1       5.086   5.092  16.611  0.00  0.00    +0.000 C 
ATOM      9  C   UNL     1       5.181   6.323  16.056  0.00  0.00    +0.000 C 
ATOM     10  F   UNL     1       4.282   7.315  16.280  0.00  0.00    +0.000 F 
BRANCH   8  11
ATOM     11  C   UNL     1       6.137   4.067  16.214  0.00  0.00    +0.000 C 
BRANCH  11  12
ATOM     12  N   UNL     1       7.391   4.746  15.896  0.00  0.00    +0.000 NA
ATOM     13  H   UNL     1       7.681   4.486  14.922  0.00  0.00    +0.000 HD
ATOM     14  H   UNL     1       8.133   4.407  16.548  0.00  0.00    +0.000 HD
ENDBRANCH  11  12
ENDBRANCH   8  11
ENDBRANCH   5   8
TORSDOF 3
ENDMDL
MODEL 7
REMARK VINA RESULT:      -5.4      3.097      4.953
REMARK  Name = 
REMARK  4 active torsions:
REMARK  status: ('A' for Active; 'I' for Inactive)
REMARK    1  A    between atoms: C_1  and  C_2
REMARK    2  A    between atoms: C_5  and  C_6
REMARK    3  A    between atoms: C_6  and  C_9
REMARK    4  A    between atoms: C_9  and  N_10
REMARK                            x       y       z     vdW  Elec       q    Type
REMARK                         _______ _______ _______ _____ _____    ______ ____
ROOT
ATOM      1  C   UNL     1       5.297   6.036  15.895  0.00  0.00    +0.000 C 
ATOM      2  C   UNL     1       4.487   5.288  16.912  0.00  0.00    +0.000 A 
ATOM      3  C   UNL     1       3.867   5.953  17.977  0.00  0.00    +0.000 A 
ATOM      4  C   UNL     1       3.122   5.236  18.922  0.00  0.00    +0.000 A 
ATOM      5  C   UNL     1       2.961   3.839  18.814  0.00  0.00    +0.000 A 
ATOM      6  C   UNL     1       3.595   3.185  17.731  0.00  0.00    +0.000 A 
ATOM      7  C   UNL     1       4.349   3.901  16.799  0.00  0.00    +0.000 A 
ENDROOT
BRANCH   5   8
ATOM      8  C   UNL     1       2.156   3.081  19.844  0.00  0.00    +0.000 C 
ATOM      9  C   UNL     1       0.965   2.499  19.571  0.00  0.00    +0.000 C 
ATOM     10  F   UNL     1       0.349   2.587  18.363  0.00  0.00    +0.000 F 
BRANCH   8  11
ATOM     11  C   UNL     1       2.686   2.946  21.262  0.00  0.00    +0.000 C 
BRANCH  11  12
ATOM     12  N   UNL     1       1.598   2.567  22.161  0.00  0.00    +0.000 NA
ATOM     13  H   UNL     1       1.975   1.929  22.902  0.00  0.00    +0.000 HD
ATOM     14  H   UNL     1       0.882   2.034  21.618  0.00  0.00    +0.000 HD
ENDBRANCH  11  12
ENDBRANCH   8  11
ENDBRANCH   5   8
TORSDOF 3
ENDMDL
MODEL 8
REMARK VINA RESULT:      -5.3      2.269      4.546
REMARK  Name = 
REMARK  4 active torsions:
REMARK  status: ('A' for Active; 'I' for Inactive)
REMARK    1  A    between atoms: C_1  and  C_2
REMARK    2  A    between atoms: C_5  and  C_6
REMARK    3  A    between atoms: C_6  and  C_9
REMARK    4  A    between atoms: C_9  and  N_10
REMARK                            x       y       z     vdW  Elec       q    Type
REMARK                         _______ _______ _______ _____ _____    ______ ____
ROOT
ATOM      1  C   UNL     1       7.447   7.124  17.552  0.00  0.00    +0.000 C 
ATOM      2  C   UNL     1       6.305   6.178  17.779  0.00  0.00    +0.000 A 
ATOM      3  C   UNL     1       6.145   5.514  19.001  0.00  0.00    +0.000 A 
ATOM      4  C   UNL     1       5.079   4.628  19.192  0.00  0.00    +0.000 A 
ATOM      5  C   UNL     1       4.132   4.397  18.171  0.00  0.00    +0.000 A 
ATOM      6  C   UNL     1       4.311   5.077  16.943  0.00  0.00    +0.000 A 
ATOM      7  C   UNL     1       5.384   5.949  16.752  0.00  0.00    +0.000 A 
ENDROOT
BRANCH   5   8
ATOM      8  C   UNL     1       2.988   3.435  18.394  0.00  0.00    +0.000 C 
ATOM      9  C   UNL     1       1.718   3.692  18.002  0.00  0.00    +0.000 C 
ATOM     10  F   UNL     1       1.336   4.860  17.424  0.00  0.00    +0.000 F 
BRANCH   8  11
ATOM     11  C   UNL     1       3.248   2.106  19.084  0.00  0.00    +0.000 C 
BRANCH  11  12
ATOM     12  N   UNL     1       4.013   1.232  18.198  0.00  0.00    +0.000 NA
ATOM     13  H   UNL     1       4.541   0.537  18.778  0.00  0.00    +0.000 HD
ATOM     14  H   UNL     1       4.713   1.808  17.678  0.00  0.00    +0.000 HD
ENDBRANCH  11  12
ENDBRANCH   8  11
ENDBRANCH   5   8
TORSDOF 3
ENDMDL
MODEL 9
REMARK VINA RESULT:      -5.3      1.419      1.489
REMARK  Name = 
REMARK  4 active torsions:
REMARK  status: ('A' for Active; 'I' for Inactive)
REMARK    1  A    between atoms: C_1  and  C_2
REMARK    2  A    between atoms: C_5  and  C_6
REMARK    3  A    between atoms: C_6  and  C_9
REMARK    4  A    between atoms: C_9  and  N_10
REMARK                            x       y       z     vdW  Elec       q    Type
REMARK                         _______ _______ _______ _____ _____    ______ ____
ROOT
ATOM      1  C   UNL     1       0.650   2.881  19.023  0.00  0.00    +0.000 C 
ATOM      2  C   UNL     1       1.919   3.609  18.690  0.00  0.00    +0.000 A 
ATOM      3  C   UNL     1       2.685   3.256  17.572  0.00  0.00    +0.000 A 
ATOM      4  C   UNL     1       3.871   3.941  17.282  0.00  0.00    +0.000 A 
ATOM      5  C   UNL     1       4.311   5.010  18.092  0.00  0.00    +0.000 A 
ATOM      6  C   UNL     1       3.523   5.351  19.216  0.00  0.00    +0.000 A 
ATOM      7  C   UNL     1       2.349   4.656  19.511  0.00  0.00    +0.000 A 
ENDROOT
BRANCH   5   8
ATOM      8  C   UNL     1       5.595   5.737  17.765  0.00  0.00    +0.000 C 
ATOM      9  C   UNL     1       5.699   6.641  16.763  0.00  0.00    +0.000 C 
ATOM     10  F   UNL     1       4.680   6.942  15.918  0.00  0.00    +0.000 F 
BRANCH   8  11
ATOM     11  C   UNL     1       6.844   5.463  18.586  0.00  0.00    +0.000 C 
BRANCH  11  12
ATOM     12  N   UNL     1       7.626   4.401  17.955  0.00  0.00    +0.000 NA
ATOM     13  H   UNL     1       8.470   4.203  18.545  0.00  0.00    +0.000 HD
ATOM     14  H   UNL     1       7.962   4.737  17.024  0.00  0.00    +0.000 HD
ENDBRANCH  11  12
ENDBRANCH   8  11
ENDBRANCH   5   8
TORSDOF 3
ENDMDL
