MODEL 1
REMARK VINA RESULT:      -8.8      0.000      0.000
REMARK  Name = 
REMARK  3 active torsions:
REMARK  status: ('A' for Active; 'I' for Inactive)
REMARK    1  A    between atoms: C_1  and  N_2
REMARK    2  A    between atoms: C_11  and  C_12
REMARK    3  A    between atoms: C_21  and  N_22
REMARK                            x       y       z     vdW  Elec       q    Type
REMARK                         _______ _______ _______ _____ _____    ______ ____
ROOT
ATOM      1  C   UNL     1      -5.595  12.997  20.437  0.00  0.00    +0.000 C 
ATOM      2  N   UNL     1      -4.349  12.704  19.742  0.00  0.00    +0.000 N 
ATOM      3  N   UNL     1      -4.349  11.954  18.579  0.00  0.00    +0.000 NA
ATOM      4  C   UNL     1      -3.127  11.530  18.466  0.00  0.00    +0.000 A 
ATOM      5  C   UNL     1      -2.649  10.618  17.436  0.00  0.00    +0.000 A 
ATOM      6  C   UNL     1      -1.453  10.060  17.647  0.00  0.00    +0.000 A 
ATOM      7  C   UNL     1      -0.661  10.411  18.869  0.00  0.00    +0.000 A 
ATOM      8  N   UNL     1       0.554   9.756  18.991  0.00  0.00    +0.000 N 
ATOM      9  C   UNL     1       1.591   9.957  17.988  0.00  0.00    +0.000 C 
ATOM     10  C   UNL     1       2.090   8.602  17.509  0.00  0.00    +0.000 C 
ATOM     11  C   UNL     1       2.600   7.750  18.688  0.00  0.00    +0.000 C 
ATOM     12  C   UNL     1       1.526   7.645  19.818  0.00  0.00    +0.000 C 
ATOM     13  C   UNL     1       0.980   9.058  20.204  0.00  0.00    +0.000 C 
ATOM     14  N   UNL     1      -1.082  11.291  19.744  0.00  0.00    +0.000 NA
ATOM     15  N   UNL     1      -2.291  11.899  19.461  0.00  0.00    +0.000 N 
ATOM     16  C   UNL     1      -3.052  12.652  20.349  0.00  0.00    +0.000 A 
ATOM     17  O   UNL     1      -2.773  13.070  21.468  0.00  0.00    +0.000 OA
ENDROOT
BRANCH  11  18
ATOM     18  C   UNL     1       3.092   6.391  18.200  0.00  0.00    +0.000 A 
ATOM     19  C   UNL     1       2.223   5.287  18.199  0.00  0.00    +0.000 A 
ATOM     20  C   UNL     1       2.660   4.052  17.719  0.00  0.00    +0.000 A 
ATOM     21  F   UNL     1       1.811   3.015  17.717  0.00  0.00    +0.000 F 
ATOM     22  C   UNL     1       3.954   3.897  17.240  0.00  0.00    +0.000 A 
ATOM     23  F   UNL     1       4.362   2.711  16.768  0.00  0.00    +0.000 F 
ATOM     24  C   UNL     1       4.834   4.969  17.236  0.00  0.00    +0.000 A 
ATOM     25  C   UNL     1       4.397   6.203  17.714  0.00  0.00    +0.000 A 
ATOM     26  F   UNL     1       5.261   7.228  17.697  0.00  0.00    +0.000 F 
ENDBRANCH  11  18
BRANCH  12  27
ATOM     27  N   UNL     1       2.055   6.932  20.996  0.00  0.00    +0.000 NA
ATOM     28  H   UNL     1       1.982   7.516  21.830  0.00  0.00    +0.000 HD
ATOM     29  H   UNL     1       3.051   6.748  20.869  0.00  0.00    +0.000 HD
ENDBRANCH  12  27
TORSDOF 2
ENDMDL
MODEL 2
REMARK VINA RESULT:      -8.5      0.938      1.583
REMARK  Name = 
REMARK  3 active torsions:
REMARK  status: ('A' for Active; 'I' for Inactive)
REMARK    1  A    between atoms: C_1  and  N_2
REMARK    2  A    between atoms: C_11  and  C_12
REMARK    3  A    between atoms: C_21  and  N_22
REMARK                            x       y       z     vdW  Elec       q    Type
REMARK                         _______ _______ _______ _____ _____    ______ ____
ROOT
ATOM      1  C   UNL     1      -5.318  12.996  20.137  0.00  0.00    +0.000 C 
ATOM      2  N   UNL     1      -4.056  12.650  19.498  0.00  0.00    +0.000 N 
ATOM      3  N   UNL     1      -4.036  11.878  18.349  0.00  0.00    +0.000 NA
ATOM      4  C   UNL     1      -2.825  11.412  18.294  0.00  0.00    +0.000 A 
ATOM      5  C   UNL     1      -2.337  10.466  17.300  0.00  0.00    +0.000 A 
ATOM      6  C   UNL     1      -1.170   9.872  17.569  0.00  0.00    +0.000 A 
ATOM      7  C   UNL     1      -0.416  10.220  18.815  0.00  0.00    +0.000 A 
ATOM      8  N   UNL     1       0.770   9.528  18.999  0.00  0.00    +0.000 N 
ATOM      9  C   UNL     1       1.853   9.675  18.035  0.00  0.00    +0.000 C 
ATOM     10  C   UNL     1       2.325   8.296  17.600  0.00  0.00    +0.000 C 
ATOM     11  C   UNL     1       2.758   7.449  18.813  0.00  0.00    +0.000 C 
ATOM     12  C   UNL     1       1.636   7.402  19.900  0.00  0.00    +0.000 C 
ATOM     13  C   UNL     1       1.124   8.838  20.239  0.00  0.00    +0.000 C 
ATOM     14  N   UNL     1      -0.842  11.130  19.658  0.00  0.00    +0.000 NA
ATOM     15  N   UNL     1      -2.017  11.772  19.315  0.00  0.00    +0.000 N 
ATOM     16  C   UNL     1      -2.787  12.566  20.158  0.00  0.00    +0.000 A 
ATOM     17  O   UNL     1      -2.540  12.995  21.280  0.00  0.00    +0.000 OA
ENDROOT
BRANCH  11  18
ATOM     18  C   UNL     1       3.222   6.066  18.369  0.00  0.00    +0.000 A 
ATOM     19  C   UNL     1       4.560   5.681  18.552  0.00  0.00    +0.000 A 
ATOM     20  C   UNL     1       4.979   4.402  18.180  0.00  0.00    +0.000 A 
ATOM     21  F   UNL     1       6.257   4.051  18.374  0.00  0.00    +0.000 F 
ATOM     22  C   UNL     1       4.082   3.499  17.625  0.00  0.00    +0.000 A 
ATOM     23  F   UNL     1       4.488   2.269  17.283  0.00  0.00    +0.000 F 
ATOM     24  C   UNL     1       2.756   3.857  17.427  0.00  0.00    +0.000 A 
ATOM     25  C   UNL     1       2.339   5.133  17.800  0.00  0.00    +0.000 A 
ATOM     26  F   UNL     1       1.053   5.458  17.605  0.00  0.00    +0.000 F 
ENDBRANCH  11  18
BRANCH  12  27
ATOM     27  N   UNL     1       2.093   6.693  21.112  0.00  0.00    +0.000 NA
ATOM     28  H   UNL     1       3.109   6.599  21.108  0.00  0.00    +0.000 HD
ATOM     29  H   UNL     1       1.723   5.741  21.113  0.00  0.00    +0.000 HD
ENDBRANCH  12  27
TORSDOF 2
ENDMDL
MODEL 3
REMARK VINA RESULT:      -8.2      1.321      1.507
REMARK  Name = 
REMARK  3 active torsions:
REMARK  status: ('A' for Active; 'I' for Inactive)
REMARK    1  A    between atoms: C_1  and  N_2
REMARK    2  A    between atoms: C_11  and  C_12
REMARK    3  A    between atoms: C_21  and  N_22
REMARK                            x       y       z     vdW  Elec       q    Type
REMARK                         _______ _______ _______ _____ _____    ______ ____
ROOT
ATOM      1  C   UNL     1      -3.656  14.056  21.676  0.00  0.00    +0.000 C 
ATOM      2  N   UNL     1      -2.654  13.449  20.812  0.00  0.00    +0.000 N 
ATOM      3  N   UNL     1      -3.031  12.722  19.697  0.00  0.00    +0.000 NA
ATOM      4  C   UNL     1      -1.991  11.995  19.417  0.00  0.00    +0.000 A 
ATOM      5  C   UNL     1      -1.933  10.987  18.367  0.00  0.00    +0.000 A 
ATOM      6  C   UNL     1      -0.901  10.139  18.417  0.00  0.00    +0.000 A 
ATOM      7  C   UNL     1       0.139  10.277  19.486  0.00  0.00    +0.000 A 
ATOM      8  N   UNL     1       1.149   9.330  19.450  0.00  0.00    +0.000 N 
ATOM      9  C   UNL     1       2.030   9.252  18.292  0.00  0.00    +0.000 C 
ATOM     10  C   UNL     1       2.084   7.813  17.802  0.00  0.00    +0.000 C 
ATOM     11  C   UNL     1       2.540   6.861  18.925  0.00  0.00    +0.000 C 
ATOM     12  C   UNL     1       1.669   7.042  20.210  0.00  0.00    +0.000 C 
ATOM     13  C   UNL     1       1.571   8.548  20.612  0.00  0.00    +0.000 C 
ATOM     14  N   UNL     1       0.101  11.238  20.376  0.00  0.00    +0.000 NA
ATOM     15  N   UNL     1      -0.941  12.138  20.255  0.00  0.00    +0.000 N 
ATOM     16  C   UNL     1      -1.334  13.065  21.215  0.00  0.00    +0.000 A 
ATOM     17  O   UNL     1      -0.783  13.399  22.259  0.00  0.00    +0.000 OA
ENDROOT
BRANCH  11  18
ATOM     18  C   UNL     1       2.584   5.420  18.428  0.00  0.00    +0.000 A 
ATOM     19  C   UNL     1       1.526   4.543  18.717  0.00  0.00    +0.000 A 
ATOM     20  C   UNL     1       1.547   3.235  18.232  0.00  0.00    +0.000 A 
ATOM     21  F   UNL     1       0.521   2.418  18.509  0.00  0.00    +0.000 F 
ATOM     22  C   UNL     1       2.612   2.783  17.463  0.00  0.00    +0.000 A 
ATOM     23  F   UNL     1       2.619   1.530  16.989  0.00  0.00    +0.000 F 
ATOM     24  C   UNL     1       3.673   3.626  17.169  0.00  0.00    +0.000 A 
ATOM     25  C   UNL     1       3.651   4.934  17.652  0.00  0.00    +0.000 A 
ATOM     26  F   UNL     1       4.683   5.734  17.353  0.00  0.00    +0.000 F 
ENDBRANCH  11  18
BRANCH  12  27
ATOM     27  N   UNL     1       2.179   6.219  21.324  0.00  0.00    +0.000 NA
ATOM     28  H   UNL     1       3.139   6.479  21.550  0.00  0.00    +0.000 HD
ATOM     29  H   UNL     1       2.214   5.238  21.039  0.00  0.00    +0.000 HD
ENDBRANCH  12  27
TORSDOF 2
ENDMDL
MODEL 4
REMARK VINA RESULT:      -8.1      4.809      8.935
REMARK  Name = 
REMARK  3 active torsions:
REMARK  status: ('A' for Active; 'I' for Inactive)
REMARK    1  A    between atoms: C_1  and  N_2
REMARK    2  A    between atoms: C_11  and  C_12
REMARK    3  A    between atoms: C_21  and  N_22
REMARK                            x       y       z     vdW  Elec       q    Type
REMARK                         _______ _______ _______ _____ _____    ______ ____
ROOT
ATOM      1  C   UNL     1       4.450   0.970  18.588  0.00  0.00    +0.000 C 
ATOM      2  N   UNL     1       3.932   2.067  19.393  0.00  0.00    +0.000 N 
ATOM      3  N   UNL     1       2.605   2.085  19.789  0.00  0.00    +0.000 NA
ATOM      4  C   UNL     1       2.374   3.328  20.091  0.00  0.00    +0.000 A 
ATOM      5  C   UNL     1       1.079   3.867  20.480  0.00  0.00    +0.000 A 
ATOM      6  C   UNL     1       0.962   5.199  20.462  0.00  0.00    +0.000 A 
ATOM      7  C   UNL     1       2.135   6.055  20.095  0.00  0.00    +0.000 A 
ATOM      8  N   UNL     1       1.891   7.418  20.091  0.00  0.00    +0.000 N 
ATOM      9  C   UNL     1       1.502   8.090  21.324  0.00  0.00    +0.000 C 
ATOM     10  C   UNL     1       0.252   8.917  21.069  0.00  0.00    +0.000 C 
ATOM     11  C   UNL     1       0.475   9.923  19.923  0.00  0.00    +0.000 C 
ATOM     12  C   UNL     1       1.014   9.210  18.641  0.00  0.00    +0.000 C 
ATOM     13  C   UNL     1       2.239   8.302  18.978  0.00  0.00    +0.000 C 
ATOM     14  N   UNL     1       3.311   5.546  19.819  0.00  0.00    +0.000 NA
ATOM     15  N   UNL     1       3.416   4.170  19.914  0.00  0.00    +0.000 N 
ATOM     16  C   UNL     1       4.463   3.397  19.424  0.00  0.00    +0.000 A 
ATOM     17  O   UNL     1       5.551   3.739  18.972  0.00  0.00    +0.000 OA
ENDROOT
BRANCH  11  18
ATOM     18  C   UNL     1      -0.786  10.743  19.669  0.00  0.00    +0.000 A 
ATOM     19  C   UNL     1      -1.659  10.386  18.629  0.00  0.00    +0.000 A 
ATOM     20  C   UNL     1      -2.832  11.112  18.418  0.00  0.00    +0.000 A 
ATOM     21  F   UNL     1      -3.658  10.747  17.428  0.00  0.00    +0.000 F 
ATOM     22  C   UNL     1      -3.148  12.195  19.228  0.00  0.00    +0.000 A 
ATOM     23  F   UNL     1      -4.282  12.879  19.028  0.00  0.00    +0.000 F 
ATOM     24  C   UNL     1      -2.299  12.573  20.257  0.00  0.00    +0.000 A 
ATOM     25  C   UNL     1      -1.128  11.846  20.469  0.00  0.00    +0.000 A 
ATOM     26  F   UNL     1      -0.323  12.224  21.471  0.00  0.00    +0.000 F 
ENDBRANCH  11  18
BRANCH  12  27
ATOM     27  N   UNL     1       1.342  10.186  17.583  0.00  0.00    +0.000 NA
ATOM     28  H   UNL     1       0.744  11.009  17.657  0.00  0.00    +0.000 HD
ATOM     29  H   UNL     1       1.146   9.779  16.667  0.00  0.00    +0.000 HD
ENDBRANCH  12  27
TORSDOF 2
ENDMDL
MODEL 5
REMARK VINA RESULT:      -7.4      5.352      9.773
REMARK  Name = 
REMARK  3 active torsions:
REMARK  status: ('A' for Active; 'I' for Inactive)
REMARK    1  A    between atoms: C_1  and  N_2
REMARK    2  A    between atoms: C_11  and  C_12
REMARK    3  A    between atoms: C_21  and  N_22
REMARK                            x       y       z     vdW  Elec       q    Type
REMARK                         _______ _______ _______ _____ _____    ______ ____
ROOT
ATOM      1  C   UNL     1       2.909   5.720  17.992  0.00  0.00    +0.000 C 
ATOM      2  N   UNL     1       2.665   6.903  18.804  0.00  0.00    +0.000 N 
ATOM      3  N   UNL     1       2.187   6.784  20.098  0.00  0.00    +0.000 NA
ATOM      4  C   UNL     1       1.691   7.954  20.369  0.00  0.00    +0.000 A 
ATOM      5  C   UNL     1       0.985   8.300  21.594  0.00  0.00    +0.000 A 
ATOM      6  C   UNL     1       0.291   9.442  21.577  0.00  0.00    +0.000 A 
ATOM      7  C   UNL     1       0.298  10.311  20.357  0.00  0.00    +0.000 A 
ATOM      8  N   UNL     1      -0.472  11.458  20.446  0.00  0.00    +0.000 N 
ATOM      9  C   UNL     1      -0.152  12.472  21.443  0.00  0.00    +0.000 C 
ATOM     10  C   UNL     1      -1.410  12.816  22.226  0.00  0.00    +0.000 C 
ATOM     11  C   UNL     1      -2.538  13.283  21.287  0.00  0.00    +0.000 C 
ATOM     12  C   UNL     1      -2.789  12.248  20.144  0.00  0.00    +0.000 C 
ATOM     13  C   UNL     1      -1.451  11.860  19.436  0.00  0.00    +0.000 C 
ATOM     14  N   UNL     1       1.002  10.012  19.292  0.00  0.00    +0.000 NA
ATOM     15  N   UNL     1       1.761   8.859  19.368  0.00  0.00    +0.000 N 
ATOM     16  C   UNL     1       2.368   8.211  18.299  0.00  0.00    +0.000 A 
ATOM     17  O   UNL     1       2.507   8.571  17.134  0.00  0.00    +0.000 OA
ENDROOT
BRANCH  11  18
ATOM     18  C   UNL     1      -3.798  13.619  22.079  0.00  0.00    +0.000 A 
ATOM     19  C   UNL     1      -4.241  12.757  23.095  0.00  0.00    +0.000 A 
ATOM     20  C   UNL     1      -5.371  13.081  23.846  0.00  0.00    +0.000 A 
ATOM     21  F   UNL     1      -5.770  12.250  24.819  0.00  0.00    +0.000 F 
ATOM     22  C   UNL     1      -6.073  14.254  23.597  0.00  0.00    +0.000 A 
ATOM     23  F   UNL     1      -7.150  14.565  24.331  0.00  0.00    +0.000 F 
ATOM     24  C   UNL     1      -5.661  15.119  22.594  0.00  0.00    +0.000 A 
ATOM     25  C   UNL     1      -4.530  14.796  21.846  0.00  0.00    +0.000 A 
ATOM     26  F   UNL     1      -4.145  15.648  20.885  0.00  0.00    +0.000 F 
ENDBRANCH  11  18
BRANCH  12  27
ATOM     27  N   UNL     1      -3.785  12.747  19.176  0.00  0.00    +0.000 NA
ATOM     28  H   UNL     1      -4.487  13.318  19.648  0.00  0.00    +0.000 HD
ATOM     29  H   UNL     1      -4.292  11.961  18.766  0.00  0.00    +0.000 HD
ENDBRANCH  12  27
TORSDOF 2
ENDMDL
MODEL 6
REMARK VINA RESULT:      -7.1      1.330      1.909
REMARK  Name = 
REMARK  3 active torsions:
REMARK  status: ('A' for Active; 'I' for Inactive)
REMARK    1  A    between atoms: C_1  and  N_2
REMARK    2  A    between atoms: C_11  and  C_12
REMARK    3  A    between atoms: C_21  and  N_22
REMARK                            x       y       z     vdW  Elec       q    Type
REMARK                         _______ _______ _______ _____ _____    ______ ____
ROOT
ATOM      1  C   UNL     1      -4.125  13.701  21.320  0.00  0.00    +0.000 C 
ATOM      2  N   UNL     1      -3.061  13.151  20.492  0.00  0.00    +0.000 N 
ATOM      3  N   UNL     1      -3.359  12.377  19.384  0.00  0.00    +0.000 NA
ATOM      4  C   UNL     1      -2.263  11.721  19.143  0.00  0.00    +0.000 A 
ATOM      5  C   UNL     1      -2.107  10.700  18.116  0.00  0.00    +0.000 A 
ATOM      6  C   UNL     1      -1.019   9.929  18.207  0.00  0.00    +0.000 A 
ATOM      7  C   UNL     1      -0.018  10.162  19.297  0.00  0.00    +0.000 A 
ATOM      8  N   UNL     1       1.058   9.290  19.304  0.00  0.00    +0.000 N 
ATOM      9  C   UNL     1       1.970   9.253  18.167  0.00  0.00    +0.000 C 
ATOM     10  C   UNL     1       2.138   7.812  17.710  0.00  0.00    +0.000 C 
ATOM     11  C   UNL     1       2.634   6.918  18.863  0.00  0.00    +0.000 C 
ATOM     12  C   UNL     1       1.721   7.061  20.123  0.00  0.00    +0.000 C 
ATOM     13  C   UNL     1       1.507   8.564  20.491  0.00  0.00    +0.000 C 
ATOM     14  N   UNL     1      -0.146  11.136  20.165  0.00  0.00    +0.000 NA
ATOM     15  N   UNL     1      -1.247  11.956  20.001  0.00  0.00    +0.000 N 
ATOM     16  C   UNL     1      -1.727  12.870  20.933  0.00  0.00    +0.000 A 
ATOM     17  O   UNL     1      -1.227  13.264  21.981  0.00  0.00    +0.000 OA
ENDROOT
BRANCH  11  18
ATOM     18  C   UNL     1       2.793   5.474  18.398  0.00  0.00    +0.000 A 
ATOM     19  C   UNL     1       3.914   5.098  17.640  0.00  0.00    +0.000 A 
ATOM     20  C   UNL     1       4.080   3.770  17.245  0.00  0.00    +0.000 A 
ATOM     21  F   UNL     1       5.163   3.431  16.533  0.00  0.00    +0.000 F 
ATOM     22  C   UNL     1       3.141   2.807  17.591  0.00  0.00    +0.000 A 
ATOM     23  F   UNL     1       3.314   1.532  17.220  0.00  0.00    +0.000 F 
ATOM     24  C   UNL     1       2.021   3.153  18.333  0.00  0.00    +0.000 A 
ATOM     25  C   UNL     1       1.857   4.480  18.729  0.00  0.00    +0.000 A 
ATOM     26  F   UNL     1       0.771   4.793  19.449  0.00  0.00    +0.000 F 
ENDBRANCH  11  18
BRANCH  12  27
ATOM     27  N   UNL     1       2.262   6.298  21.266  0.00  0.00    +0.000 NA
ATOM     28  H   UNL     1       1.696   6.456  22.100  0.00  0.00    +0.000 HD
ATOM     29  H   UNL     1       3.198   6.638  21.494  0.00  0.00    +0.000 HD
ENDBRANCH  12  27
TORSDOF 2
ENDMDL
MODEL 7
REMARK VINA RESULT:      -7.1      4.632      9.037
REMARK  Name = 
REMARK  3 active torsions:
REMARK  status: ('A' for Active; 'I' for Inactive)
REMARK    1  A    between atoms: C_1  and  N_2
REMARK    2  A    between atoms: C_11  and  C_12
REMARK    3  A    between atoms: C_21  and  N_22
REMARK                            x       y       z     vdW  Elec       q    Type
REMARK                         _______ _______ _______ _____ _____    ______ ____
ROOT
ATOM      1  C   UNL     1       4.150   1.084  18.213  0.00  0.00    +0.000 C 
ATOM      2  N   UNL     1       3.717   2.161  19.092  0.00  0.00    +0.000 N 
ATOM      3  N   UNL     1       2.417   2.204  19.567  0.00  0.00    +0.000 NA
ATOM      4  C   UNL     1       2.246   3.438  19.933  0.00  0.00    +0.000 A 
ATOM      5  C   UNL     1       0.995   4.001  20.421  0.00  0.00    +0.000 A 
ATOM      6  C   UNL     1       0.922   5.335  20.464  0.00  0.00    +0.000 A 
ATOM      7  C   UNL     1       2.100   6.169  20.063  0.00  0.00    +0.000 A 
ATOM      8  N   UNL     1       1.902   7.538  20.129  0.00  0.00    +0.000 N 
ATOM      9  C   UNL     1       1.609   8.168  21.410  0.00  0.00    +0.000 C 
ATOM     10  C   UNL     1       0.374   9.044  21.264  0.00  0.00    +0.000 C 
ATOM     11  C   UNL     1       0.564  10.091  20.150  0.00  0.00    +0.000 C 
ATOM     12  C   UNL     1       1.003   9.418  18.809  0.00  0.00    +0.000 C 
ATOM     13  C   UNL     1       2.215   8.458  19.035  0.00  0.00    +0.000 C 
ATOM     14  N   UNL     1       3.240   5.636  19.697  0.00  0.00    +0.000 NA
ATOM     15  N   UNL     1       3.303   4.255  19.728  0.00  0.00    +0.000 N 
ATOM     16  C   UNL     1       4.293   3.471  19.146  0.00  0.00    +0.000 A 
ATOM     17  O   UNL     1       5.364   3.798  18.644  0.00  0.00    +0.000 OA
ENDROOT
BRANCH  11  18
ATOM     18  C   UNL     1      -0.681  10.960  20.005  0.00  0.00    +0.000 A 
ATOM     19  C   UNL     1      -0.827  12.117  20.787  0.00  0.00    +0.000 A 
ATOM     20  C   UNL     1      -1.947  12.933  20.631  0.00  0.00    +0.000 A 
ATOM     21  F   UNL     1      -2.061  14.039  21.379  0.00  0.00    +0.000 F 
ATOM     22  C   UNL     1      -2.931  12.611  19.705  0.00  0.00    +0.000 A 
ATOM     23  F   UNL     1      -3.999  13.407  19.550  0.00  0.00    +0.000 F 
ATOM     24  C   UNL     1      -2.816  11.470  18.924  0.00  0.00    +0.000 A 
ATOM     25  C   UNL     1      -1.695  10.657  19.080  0.00  0.00    +0.000 A 
ATOM     26  F   UNL     1      -1.599   9.561  18.314  0.00  0.00    +0.000 F 
ENDBRANCH  11  18
BRANCH  12  27
ATOM     27  N   UNL     1       1.301  10.427  17.774  0.00  0.00    +0.000 NA
ATOM     28  H   UNL     1       1.560   9.974  16.898  0.00  0.00    +0.000 HD
ATOM     29  H   UNL     1       2.114  10.978  18.056  0.00  0.00    +0.000 HD
ENDBRANCH  12  27
TORSDOF 2
ENDMDL
MODEL 8
REMARK VINA RESULT:      -7.0      1.381      1.953
REMARK  Name = 
REMARK  3 active torsions:
REMARK  status: ('A' for Active; 'I' for Inactive)
REMARK    1  A    between atoms: C_1  and  N_2
REMARK    2  A    between atoms: C_11  and  C_12
REMARK    3  A    between atoms: C_21  and  N_22
REMARK                            x       y       z     vdW  Elec       q    Type
REMARK                         _______ _______ _______ _____ _____    ______ ____
ROOT
ATOM      1  C   UNL     1      -6.378  12.933  19.656  0.00  0.00    +0.000 C 
ATOM      2  N   UNL     1      -5.120  12.548  19.032  0.00  0.00    +0.000 N 
ATOM      3  N   UNL     1      -5.069  11.486  18.145  0.00  0.00    +0.000 NA
ATOM      4  C   UNL     1      -3.816  11.148  18.116  0.00  0.00    +0.000 A 
ATOM      5  C   UNL     1      -3.272  10.012  17.385  0.00  0.00    +0.000 A 
ATOM      6  C   UNL     1      -2.029   9.640  17.706  0.00  0.00    +0.000 A 
ATOM      7  C   UNL     1      -1.255  10.404  18.736  0.00  0.00    +0.000 A 
ATOM      8  N   UNL     1       0.014   9.916  19.001  0.00  0.00    +0.000 N 
ATOM      9  C   UNL     1       1.017   9.890  17.944  0.00  0.00    +0.000 C 
ATOM     10  C   UNL     1       1.628   8.499  17.870  0.00  0.00    +0.000 C 
ATOM     11  C   UNL     1       2.226   8.083  19.227  0.00  0.00    +0.000 C 
ATOM     12  C   UNL     1       1.180   8.234  20.378  0.00  0.00    +0.000 C 
ATOM     13  C   UNL     1       0.516   9.649  20.348  0.00  0.00    +0.000 C 
ATOM     14  N   UNL     1      -1.742  11.468  19.327  0.00  0.00    +0.000 NA
ATOM     15  N   UNL     1      -3.003  11.864  18.923  0.00  0.00    +0.000 N 
ATOM     16  C   UNL     1      -3.816  12.784  19.576  0.00  0.00    +0.000 A 
ATOM     17  O   UNL     1      -3.562  13.538  20.509  0.00  0.00    +0.000 OA
ENDROOT
BRANCH  11  18
ATOM     18  C   UNL     1       2.830   6.684  19.146  0.00  0.00    +0.000 A 
ATOM     19  C   UNL     1       4.089   6.495  18.554  0.00  0.00    +0.000 A 
ATOM     20  C   UNL     1       4.659   5.222  18.512  0.00  0.00    +0.000 A 
ATOM     21  F   UNL     1       5.867   5.065  17.953  0.00  0.00    +0.000 F 
ATOM     22  C   UNL     1       3.991   4.130  19.050  0.00  0.00    +0.000 A 
ATOM     23  F   UNL     1       4.551   2.913  19.018  0.00  0.00    +0.000 F 
ATOM     24  C   UNL     1       2.743   4.288  19.634  0.00  0.00    +0.000 A 
ATOM     25  C   UNL     1       2.174   5.560  19.677  0.00  0.00    +0.000 A 
ATOM     26  F   UNL     1       0.970   5.694  20.251  0.00  0.00    +0.000 F 
ENDBRANCH  11  18
BRANCH  12  27
ATOM     27  N   UNL     1       1.785   7.951  21.694  0.00  0.00    +0.000 NA
ATOM     28  H   UNL     1       2.715   7.549  21.580  0.00  0.00    +0.000 HD
ATOM     29  H   UNL     1       1.232   7.244  22.182  0.00  0.00    +0.000 HD
ENDBRANCH  12  27
TORSDOF 2
ENDMDL
MODEL 9
REMARK VINA RESULT:      -7.0      5.370      9.831
REMARK  Name = 
REMARK  3 active torsions:
REMARK  status: ('A' for Active; 'I' for Inactive)
REMARK    1  A    between atoms: C_1  and  N_2
REMARK    2  A    between atoms: C_11  and  C_12
REMARK    3  A    between atoms: C_21  and  N_22
REMARK                            x       y       z     vdW  Elec       q    Type
REMARK                         _______ _______ _______ _____ _____    ______ ____
ROOT
ATOM      1  C   UNL     1       2.774   5.561  17.963  0.00  0.00    +0.000 C 
ATOM      2  N   UNL     1       2.604   6.758  18.773  0.00  0.00    +0.000 N 
ATOM      3  N   UNL     1       2.163   6.667  20.082  0.00  0.00    +0.000 NA
ATOM      4  C   UNL     1       1.723   7.857  20.360  0.00  0.00    +0.000 A 
ATOM      5  C   UNL     1       1.071   8.239  21.605  0.00  0.00    +0.000 A 
ATOM      6  C   UNL     1       0.423   9.408  21.600  0.00  0.00    +0.000 A 
ATOM      7  C   UNL     1       0.427  10.268  20.374  0.00  0.00    +0.000 A 
ATOM      8  N   UNL     1      -0.294  11.447  20.479  0.00  0.00    +0.000 N 
ATOM      9  C   UNL     1       0.099  12.452  21.459  0.00  0.00    +0.000 C 
ATOM     10  C   UNL     1      -1.119  12.852  22.278  0.00  0.00    +0.000 C 
ATOM     11  C   UNL     1      -2.256  13.359  21.371  0.00  0.00    +0.000 C 
ATOM     12  C   UNL     1      -2.585  12.328  20.244  0.00  0.00    +0.000 C 
ATOM     13  C   UNL     1      -1.287  11.881  19.498  0.00  0.00    +0.000 C 
ATOM     14  N   UNL     1       1.084   9.935  19.290  0.00  0.00    +0.000 NA
ATOM     15  N   UNL     1       1.798   8.753  19.352  0.00  0.00    +0.000 N 
ATOM     16  C   UNL     1       2.344   8.073  18.268  0.00  0.00    +0.000 A 
ATOM     17  O   UNL     1       2.462   8.421  17.098  0.00  0.00    +0.000 OA
ENDROOT
BRANCH  11  18
ATOM     18  C   UNL     1      -3.476  13.751  22.199  0.00  0.00    +0.000 A 
ATOM     19  C   UNL     1      -4.128  14.970  21.958  0.00  0.00    +0.000 A 
ATOM     20  C   UNL     1      -5.266  15.314  22.690  0.00  0.00    +0.000 A 
ATOM     21  F   UNL     1      -5.880  16.477  22.435  0.00  0.00    +0.000 F 
ATOM     22  C   UNL     1      -5.763  14.459  23.665  0.00  0.00    +0.000 A 
ATOM     23  F   UNL     1      -6.864  14.789  24.354  0.00  0.00    +0.000 F 
ATOM     24  C   UNL     1      -5.134  13.252  23.928  0.00  0.00    +0.000 A 
ATOM     25  C   UNL     1      -3.999  12.908  23.195  0.00  0.00    +0.000 A 
ATOM     26  F   UNL     1      -3.407  11.735  23.461  0.00  0.00    +0.000 F 
ENDBRANCH  11  18
BRANCH  12  27
ATOM     27  N   UNL     1      -3.590  12.862  19.303  0.00  0.00    +0.000 NA
ATOM     28  H   UNL     1      -4.508  12.462  19.497  0.00  0.00    +0.000 HD
ATOM     29  H   UNL     1      -3.355  12.577  18.351  0.00  0.00    +0.000 HD
ENDBRANCH  12  27
TORSDOF 2
ENDMDL
