MODEL 1
REMARK VINA RESULT:      -8.6      0.000      0.000
REMARK  Name = 
REMARK  7 active torsions:
REMARK  status: ('A' for Active; 'I' for Inactive)
REMARK    1  A    between atoms: C_1  and  N_2
REMARK    2  A    between atoms: N_2  and  C_3
REMARK    3  A    between atoms: N_2  and  C_4
REMARK    4  A    between atoms: C_4  and  C_5
REMARK    5  A    between atoms: C_5  and  N_6
REMARK    6  A    between atoms: C_14  and  N_15
REMARK    7  A    between atoms: C_17  and  C_18
REMARK                            x       y       z     vdW  Elec       q    Type
REMARK                         _______ _______ _______ _____ _____    ______ ____
ROOT
ATOM      1  N   UNL     1      -1.776  13.372  21.200  0.00  0.00    +0.000 N 
ATOM      2  C   UNL     1      -1.710  12.544  22.314  0.00  0.00    +0.000 C 
ATOM      3  O   UNL     1      -2.221  12.806  23.401  0.00  0.00    +0.000 OA
ATOM      4  C   UNL     1      -0.939  11.285  22.170  0.00  0.00    +0.000 A 
ATOM      5  C   UNL     1      -0.894  10.406  23.257  0.00  0.00    +0.000 A 
ATOM      6  C   UNL     1      -0.179   9.226  23.157  0.00  0.00    +0.000 A 
ATOM      7  C   UNL     1       0.481   8.923  21.966  0.00  0.00    +0.000 A 
ATOM      8  C   UNL     1       0.455   9.777  20.830  0.00  0.00    +0.000 A 
ATOM      9  C   UNL     1       1.137   9.537  19.590  0.00  0.00    +0.000 A 
ATOM     10  C   UNL     1       1.128  10.503  18.570  0.00  0.00    +0.000 A 
ATOM     11  C   UNL     1       0.423  11.686  18.734  0.00  0.00    +0.000 A 
ATOM     12  C   UNL     1      -0.274  11.926  19.921  0.00  0.00    +0.000 A 
ATOM     13  C   UNL     1      -0.264  10.999  20.971  0.00  0.00    +0.000 A 
ATOM     14  C   UNL     1      -1.021  13.195  20.050  0.00  0.00    +0.000 C 
ATOM     15  O   UNL     1      -0.924  14.042  19.160  0.00  0.00    +0.000 OA
ENDROOT
BRANCH   9  16
ATOM     16  N   UNL     1       1.843   8.324  19.331  0.00  0.00    +0.000 N 
ATOM     17  C   UNL     1       2.481   7.975  18.157  0.00  0.00    +0.000 A 
ATOM     18  C   UNL     1       3.047   6.733  18.347  0.00  0.00    +0.000 A 
ATOM     19  C   UNL     1       2.641   6.375  19.645  0.00  0.00    +0.000 A 
ATOM     20  N   UNL     1       1.921   7.323  20.239  0.00  0.00    +0.000 NA
BRANCH  18  21
ATOM     21  C   UNL     1       3.863   6.032  17.376  0.00  0.00    +0.000 A 
ATOM     22  C   UNL     1       4.666   6.736  16.467  0.00  0.00    +0.000 A 
ATOM     23  C   UNL     1       5.458   6.052  15.541  0.00  0.00    +0.000 A 
ATOM     24  C   UNL     1       5.452   4.661  15.521  0.00  0.00    +0.000 A 
ATOM     25 CL   UNL     1       6.422   3.818  14.379  0.00  0.00    +0.000 Cl
ATOM     26  C   UNL     1       4.665   3.946  16.421  0.00  0.00    +0.000 A 
ATOM     27  C   UNL     1       3.874   4.630  17.348  0.00  0.00    +0.000 A 
ENDBRANCH  18  21
ENDBRANCH   9  16
BRANCH   1  28
ATOM     28  C   UNL     1      -2.608  14.573  21.272  0.00  0.00    +0.000 C 
BRANCH  28  29
ATOM     29  C   UNL     1      -4.050  14.338  20.763  0.00  0.00    +0.000 C 
BRANCH  29  31
ATOM     30  C   UNL     1      -5.536  13.157  22.293  0.00  0.00    +0.000 C 
ATOM     31  N   UNL     1      -5.113  14.465  21.785  0.00  0.00    +0.000 NA
ATOM     32  C   UNL     1      -4.635  15.293  22.897  0.00  0.00    +0.000 C 
ENDBRANCH  29  31
ENDBRANCH  28  29
ENDBRANCH   1  28
TORSDOF 5
ENDMDL
MODEL 2
REMARK VINA RESULT:      -8.4      4.697     10.449
REMARK  Name = 
REMARK  7 active torsions:
REMARK  status: ('A' for Active; 'I' for Inactive)
REMARK    1  A    between atoms: C_1  and  N_2
REMARK    2  A    between atoms: N_2  and  C_3
REMARK    3  A    between atoms: N_2  and  C_4
REMARK    4  A    between atoms: C_4  and  C_5
REMARK    5  A    between atoms: C_5  and  N_6
REMARK    6  A    between atoms: C_14  and  N_15
REMARK    7  A    between atoms: C_17  and  C_18
REMARK                            x       y       z     vdW  Elec       q    Type
REMARK                         _______ _______ _______ _____ _____    ______ ____
ROOT
ATOM      1  N   UNL     1       4.975   4.813  16.933  0.00  0.00    +0.000 N 
ATOM      2  C   UNL     1       4.361   3.993  17.872  0.00  0.00    +0.000 C 
ATOM      3  O   UNL     1       4.526   2.777  17.939  0.00  0.00    +0.000 OA
ATOM      4  C   UNL     1       3.423   4.642  18.820  0.00  0.00    +0.000 A 
ATOM      5  C   UNL     1       2.825   3.852  19.808  0.00  0.00    +0.000 A 
ATOM      6  C   UNL     1       1.942   4.426  20.705  0.00  0.00    +0.000 A 
ATOM      7  C   UNL     1       1.665   5.790  20.617  0.00  0.00    +0.000 A 
ATOM      8  C   UNL     1       2.256   6.637  19.640  0.00  0.00    +0.000 A 
ATOM      9  C   UNL     1       1.989   8.037  19.478  0.00  0.00    +0.000 A 
ATOM     10  C   UNL     1       2.551   8.754  18.408  0.00  0.00    +0.000 A 
ATOM     11  C   UNL     1       3.404   8.123  17.515  0.00  0.00    +0.000 A 
ATOM     12  C   UNL     1       3.702   6.767  17.673  0.00  0.00    +0.000 A 
ATOM     13  C   UNL     1       3.139   6.013  18.711  0.00  0.00    +0.000 A 
ATOM     14  C   UNL     1       4.625   6.136  16.706  0.00  0.00    +0.000 C 
ATOM     15  O   UNL     1       5.019   6.789  15.739  0.00  0.00    +0.000 OA
ENDROOT
BRANCH   9  16
ATOM     16  N   UNL     1       1.159   8.764  20.383  0.00  0.00    +0.000 N 
ATOM     17  C   UNL     1       0.434   9.906  20.102  0.00  0.00    +0.000 A 
ATOM     18  C   UNL     1      -0.238  10.262  21.252  0.00  0.00    +0.000 A 
ATOM     19  C   UNL     1       0.195   9.318  22.199  0.00  0.00    +0.000 A 
ATOM     20  N   UNL     1       1.030   8.418  21.685  0.00  0.00    +0.000 NA
BRANCH  18  21
ATOM     21  C   UNL     1      -1.163  11.372  21.367  0.00  0.00    +0.000 A 
ATOM     22  C   UNL     1      -1.758  11.935  20.227  0.00  0.00    +0.000 A 
ATOM     23  C   UNL     1      -2.657  12.998  20.348  0.00  0.00    +0.000 A 
ATOM     24  C   UNL     1      -2.967  13.501  21.607  0.00  0.00    +0.000 A 
ATOM     25 CL   UNL     1      -4.069  14.812  21.755  0.00  0.00    +0.000 Cl
ATOM     26  C   UNL     1      -2.390  12.950  22.748  0.00  0.00    +0.000 A 
ATOM     27  C   UNL     1      -1.491  11.886  22.629  0.00  0.00    +0.000 A 
ENDBRANCH  18  21
ENDBRANCH   9  16
BRANCH   1  28
ATOM     28  C   UNL     1       5.980   4.228  16.046  0.00  0.00    +0.000 C 
BRANCH  28  29
ATOM     29  C   UNL     1       5.411   3.855  14.656  0.00  0.00    +0.000 C 
BRANCH  29  31
ATOM     30  C   UNL     1       5.789   3.373  12.296  0.00  0.00    +0.000 C 
ATOM     31  N   UNL     1       6.417   3.676  13.585  0.00  0.00    +0.000 NA
ATOM     32  C   UNL     1       7.230   4.891  13.461  0.00  0.00    +0.000 C 
ENDBRANCH  29  31
ENDBRANCH  28  29
ENDBRANCH   1  28
TORSDOF 5
ENDMDL
MODEL 3
REMARK VINA RESULT:      -8.4      0.520      1.036
REMARK  Name = 
REMARK  7 active torsions:
REMARK  status: ('A' for Active; 'I' for Inactive)
REMARK    1  A    between atoms: C_1  and  N_2
REMARK    2  A    between atoms: N_2  and  C_3
REMARK    3  A    between atoms: N_2  and  C_4
REMARK    4  A    between atoms: C_4  and  C_5
REMARK    5  A    between atoms: C_5  and  N_6
REMARK    6  A    between atoms: C_14  and  N_15
REMARK    7  A    between atoms: C_17  and  C_18
REMARK                            x       y       z     vdW  Elec       q    Type
REMARK                         _______ _______ _______ _____ _____    ______ ____
ROOT
ATOM      1  N   UNL     1      -1.853  13.313  21.161  0.00  0.00    +0.000 N 
ATOM      2  C   UNL     1      -1.775  12.499  22.285  0.00  0.00    +0.000 C 
ATOM      3  O   UNL     1      -2.288  12.767  23.369  0.00  0.00    +0.000 OA
ATOM      4  C   UNL     1      -0.987  11.249  22.154  0.00  0.00    +0.000 A 
ATOM      5  C   UNL     1      -0.929  10.383  23.252  0.00  0.00    +0.000 A 
ATOM      6  C   UNL     1      -0.199   9.211  23.164  0.00  0.00    +0.000 A 
ATOM      7  C   UNL     1       0.463   8.903  21.976  0.00  0.00    +0.000 A 
ATOM      8  C   UNL     1       0.424   9.743  20.830  0.00  0.00    +0.000 A 
ATOM      9  C   UNL     1       1.108   9.498  19.592  0.00  0.00    +0.000 A 
ATOM     10  C   UNL     1       1.084  10.452  18.560  0.00  0.00    +0.000 A 
ATOM     11  C   UNL     1       0.365  11.628  18.711  0.00  0.00    +0.000 A 
ATOM     12  C   UNL     1      -0.335  11.872  19.896  0.00  0.00    +0.000 A 
ATOM     13  C   UNL     1      -0.311  10.957  20.958  0.00  0.00    +0.000 A 
ATOM     14  C   UNL     1      -1.097  13.133  20.012  0.00  0.00    +0.000 C 
ATOM     15  O   UNL     1      -1.013  13.970  19.112  0.00  0.00    +0.000 OA
ENDROOT
BRANCH   9  16
ATOM     16  N   UNL     1       1.829   8.292  19.346  0.00  0.00    +0.000 N 
ATOM     17  C   UNL     1       2.468   7.936  18.174  0.00  0.00    +0.000 A 
ATOM     18  C   UNL     1       3.052   6.705  18.378  0.00  0.00    +0.000 A 
ATOM     19  C   UNL     1       2.655   6.358  19.682  0.00  0.00    +0.000 A 
ATOM     20  N   UNL     1       1.924   7.304  20.267  0.00  0.00    +0.000 NA
BRANCH  18  21
ATOM     21  C   UNL     1       3.874   6.002  17.414  0.00  0.00    +0.000 A 
ATOM     22  C   UNL     1       3.900   4.600  17.375  0.00  0.00    +0.000 A 
ATOM     23  C   UNL     1       4.688   3.930  16.435  0.00  0.00    +0.000 A 
ATOM     24  C   UNL     1       5.451   4.658  15.529  0.00  0.00    +0.000 A 
ATOM     25 CL   UNL     1       6.424   3.835  14.375  0.00  0.00    +0.000 Cl
ATOM     26  C   UNL     1       5.433   6.051  15.550  0.00  0.00    +0.000 A 
ATOM     27  C   UNL     1       4.644   6.721  16.489  0.00  0.00    +0.000 A 
ENDBRANCH  18  21
ENDBRANCH   9  16
BRANCH   1  28
ATOM     28  C   UNL     1      -2.701  14.504  21.220  0.00  0.00    +0.000 C 
BRANCH  28  29
ATOM     29  C   UNL     1      -4.160  14.227  20.784  0.00  0.00    +0.000 C 
BRANCH  29  31
ATOM     30  C   UNL     1      -6.313  15.333  20.502  0.00  0.00    +0.000 C 
ATOM     31  N   UNL     1      -5.184  15.095  21.406  0.00  0.00    +0.000 NA
ATOM     32  C   UNL     1      -5.669  14.481  22.646  0.00  0.00    +0.000 C 
ENDBRANCH  29  31
ENDBRANCH  28  29
ENDBRANCH   1  28
TORSDOF 5
ENDMDL
MODEL 4
REMARK VINA RESULT:      -8.3      4.716     10.453
REMARK  Name = 
REMARK  7 active torsions:
REMARK  status: ('A' for Active; 'I' for Inactive)
REMARK    1  A    between atoms: C_1  and  N_2
REMARK    2  A    between atoms: N_2  and  C_3
REMARK    3  A    between atoms: N_2  and  C_4
REMARK    4  A    between atoms: C_4  and  C_5
REMARK    5  A    between atoms: C_5  and  N_6
REMARK    6  A    between atoms: C_14  and  N_15
REMARK    7  A    between atoms: C_17  and  C_18
REMARK                            x       y       z     vdW  Elec       q    Type
REMARK                         _______ _______ _______ _____ _____    ______ ____
ROOT
ATOM      1  N   UNL     1       4.934   4.952  17.122  0.00  0.00    +0.000 N 
ATOM      2  C   UNL     1       4.404   4.119  18.100  0.00  0.00    +0.000 C 
ATOM      3  O   UNL     1       4.655   2.920  18.196  0.00  0.00    +0.000 OA
ATOM      4  C   UNL     1       3.448   4.730  19.056  0.00  0.00    +0.000 A 
ATOM      5  C   UNL     1       2.934   3.931  20.082  0.00  0.00    +0.000 A 
ATOM      6  C   UNL     1       2.036   4.469  20.987  0.00  0.00    +0.000 A 
ATOM      7  C   UNL     1       1.663   5.807  20.870  0.00  0.00    +0.000 A 
ATOM      8  C   UNL     1       2.167   6.663  19.853  0.00  0.00    +0.000 A 
ATOM      9  C   UNL     1       1.800   8.037  19.661  0.00  0.00    +0.000 A 
ATOM     10  C   UNL     1       2.281   8.759  18.556  0.00  0.00    +0.000 A 
ATOM     11  C   UNL     1       3.153   8.162  17.657  0.00  0.00    +0.000 A 
ATOM     12  C   UNL     1       3.549   6.835  17.844  0.00  0.00    +0.000 A 
ATOM     13  C   UNL     1       3.067   6.075  18.917  0.00  0.00    +0.000 A 
ATOM     14  C   UNL     1       4.488   6.241  16.868  0.00  0.00    +0.000 C 
ATOM     15  O   UNL     1       4.810   6.891  15.873  0.00  0.00    +0.000 OA
ENDROOT
BRANCH   9  16
ATOM     16  N   UNL     1       0.945   8.731  20.568  0.00  0.00    +0.000 N 
ATOM     17  C   UNL     1       0.849  10.100  20.728  0.00  0.00    +0.000 A 
ATOM     18  C   UNL     1      -0.107  10.337  21.692  0.00  0.00    +0.000 A 
ATOM     19  C   UNL     1      -0.488   9.050  22.111  0.00  0.00    +0.000 A 
ATOM     20  N   UNL     1       0.138   8.085  21.442  0.00  0.00    +0.000 NA
BRANCH  18  21
ATOM     21  C   UNL     1      -0.559  11.649  22.113  0.00  0.00    +0.000 A 
ATOM     22  C   UNL     1      -1.645  11.790  22.990  0.00  0.00    +0.000 A 
ATOM     23  C   UNL     1      -2.067  13.057  23.399  0.00  0.00    +0.000 A 
ATOM     24  C   UNL     1      -1.404  14.189  22.936  0.00  0.00    +0.000 A 
ATOM     25 CL   UNL     1      -1.926  15.749  23.436  0.00  0.00    +0.000 Cl
ATOM     26  C   UNL     1      -0.320  14.066  22.070  0.00  0.00    +0.000 A 
ATOM     27  C   UNL     1       0.103  12.799  21.661  0.00  0.00    +0.000 A 
ENDBRANCH  18  21
ENDBRANCH   9  16
BRANCH   1  28
ATOM     28  C   UNL     1       5.954   4.411  16.223  0.00  0.00    +0.000 C 
BRANCH  28  29
ATOM     29  C   UNL     1       5.406   4.100  14.810  0.00  0.00    +0.000 C 
BRANCH  29  31
ATOM     30  C   UNL     1       5.819   3.448  12.498  0.00  0.00    +0.000 C 
ATOM     31  N   UNL     1       6.428   3.775  13.790  0.00  0.00    +0.000 NA
ATOM     32  C   UNL     1       7.345   4.907  13.628  0.00  0.00    +0.000 C 
ENDBRANCH  29  31
ENDBRANCH  28  29
ENDBRANCH   1  28
TORSDOF 5
ENDMDL
MODEL 5
REMARK VINA RESULT:      -8.2      4.610     10.134
REMARK  Name = 
REMARK  7 active torsions:
REMARK  status: ('A' for Active; 'I' for Inactive)
REMARK    1  A    between atoms: C_1  and  N_2
REMARK    2  A    between atoms: N_2  and  C_3
REMARK    3  A    between atoms: N_2  and  C_4
REMARK    4  A    between atoms: C_4  and  C_5
REMARK    5  A    between atoms: C_5  and  N_6
REMARK    6  A    between atoms: C_14  and  N_15
REMARK    7  A    between atoms: C_17  and  C_18
REMARK                            x       y       z     vdW  Elec       q    Type
REMARK                         _______ _______ _______ _____ _____    ______ ____
ROOT
ATOM      1  N   UNL     1       4.568   4.987  16.997  0.00  0.00    +0.000 N 
ATOM      2  C   UNL     1       4.022   4.163  17.974  0.00  0.00    +0.000 C 
ATOM      3  O   UNL     1       4.194   2.948  18.026  0.00  0.00    +0.000 OA
ATOM      4  C   UNL     1       3.150   4.809  18.985  0.00  0.00    +0.000 A 
ATOM      5  C   UNL     1       2.624   4.016  20.010  0.00  0.00    +0.000 A 
ATOM      6  C   UNL     1       1.803   4.586  20.967  0.00  0.00    +0.000 A 
ATOM      7  C   UNL     1       1.519   5.949  20.902  0.00  0.00    +0.000 A 
ATOM      8  C   UNL     1       2.039   6.799  19.888  0.00  0.00    +0.000 A 
ATOM      9  C   UNL     1       1.759   8.200  19.748  0.00  0.00    +0.000 A 
ATOM     10  C   UNL     1       2.245   8.921  18.644  0.00  0.00    +0.000 A 
ATOM     11  C   UNL     1       3.036   8.293  17.693  0.00  0.00    +0.000 A 
ATOM     12  C   UNL     1       3.347   6.937  17.827  0.00  0.00    +0.000 A 
ATOM     13  C   UNL     1       2.857   6.180  18.899  0.00  0.00    +0.000 A 
ATOM     14  C   UNL     1       4.202   6.310  16.797  0.00  0.00    +0.000 C 
ATOM     15  O   UNL     1       4.527   6.966  15.806  0.00  0.00    +0.000 OA
ENDROOT
BRANCH   9  16
ATOM     16  N   UNL     1       0.992   8.923  20.710  0.00  0.00    +0.000 N 
ATOM     17  C   UNL     1       0.151   9.991  20.461  0.00  0.00    +0.000 A 
ATOM     18  C   UNL     1      -0.400  10.372  21.666  0.00  0.00    +0.000 A 
ATOM     19  C   UNL     1       0.219   9.524  22.601  0.00  0.00    +0.000 A 
ATOM     20  N   UNL     1       1.052   8.654  22.035  0.00  0.00    +0.000 NA
BRANCH  18  21
ATOM     21  C   UNL     1      -1.389  11.418  21.836  0.00  0.00    +0.000 A 
ATOM     22  C   UNL     1      -1.849  12.159  20.737  0.00  0.00    +0.000 A 
ATOM     23  C   UNL     1      -2.810  13.159  20.908  0.00  0.00    +0.000 A 
ATOM     24  C   UNL     1      -3.316  13.421  22.177  0.00  0.00    +0.000 A 
ATOM     25 CL   UNL     1      -4.494  14.655  22.389  0.00  0.00    +0.000 Cl
ATOM     26  C   UNL     1      -2.873  12.691  23.277  0.00  0.00    +0.000 A 
ATOM     27  C   UNL     1      -1.913  11.690  23.107  0.00  0.00    +0.000 A 
ENDBRANCH  18  21
ENDBRANCH   9  16
BRANCH   1  28
ATOM     28  C   UNL     1       5.511   4.406  16.041  0.00  0.00    +0.000 C 
BRANCH  28  29
ATOM     29  C   UNL     1       6.987   4.715  16.387  0.00  0.00    +0.000 C 
BRANCH  29  31
ATOM     30  C   UNL     1       8.176   4.732  18.515  0.00  0.00    +0.000 C 
ATOM     31  N   UNL     1       7.204   5.426  17.667  0.00  0.00    +0.000 NA
ATOM     32  C   UNL     1       7.669   6.792  17.404  0.00  0.00    +0.000 C 
ENDBRANCH  29  31
ENDBRANCH  28  29
ENDBRANCH   1  28
TORSDOF 5
ENDMDL
MODEL 6
REMARK VINA RESULT:      -8.2      1.190      1.993
REMARK  Name = 
REMARK  7 active torsions:
REMARK  status: ('A' for Active; 'I' for Inactive)
REMARK    1  A    between atoms: C_1  and  N_2
REMARK    2  A    between atoms: N_2  and  C_3
REMARK    3  A    between atoms: N_2  and  C_4
REMARK    4  A    between atoms: C_4  and  C_5
REMARK    5  A    between atoms: C_5  and  N_6
REMARK    6  A    between atoms: C_14  and  N_15
REMARK    7  A    between atoms: C_17  and  C_18
REMARK                            x       y       z     vdW  Elec       q    Type
REMARK                         _______ _______ _______ _____ _____    ______ ____
ROOT
ATOM      1  N   UNL     1      -1.658  13.693  21.059  0.00  0.00    +0.000 N 
ATOM      2  C   UNL     1      -1.697  12.867  22.176  0.00  0.00    +0.000 C 
ATOM      3  O   UNL     1      -2.253  13.159  23.232  0.00  0.00    +0.000 OA
ATOM      4  C   UNL     1      -0.984  11.570  22.077  0.00  0.00    +0.000 A 
ATOM      5  C   UNL     1      -1.044  10.694  23.167  0.00  0.00    +0.000 A 
ATOM      6  C   UNL     1      -0.386   9.479  23.108  0.00  0.00    +0.000 A 
ATOM      7  C   UNL     1       0.323   9.138  21.957  0.00  0.00    +0.000 A 
ATOM      8  C   UNL     1       0.404   9.987  20.820  0.00  0.00    +0.000 A 
ATOM      9  C   UNL     1       1.141   9.708  19.621  0.00  0.00    +0.000 A 
ATOM     10  C   UNL     1       1.238  10.668  18.600  0.00  0.00    +0.000 A 
ATOM     11  C   UNL     1       0.587  11.887  18.722  0.00  0.00    +0.000 A 
ATOM     12  C   UNL     1      -0.163  12.166  19.868  0.00  0.00    +0.000 A 
ATOM     13  C   UNL     1      -0.259  11.245  20.919  0.00  0.00    +0.000 A 
ATOM     14  C   UNL     1      -0.850  13.473  19.953  0.00  0.00    +0.000 C 
ATOM     15  O   UNL     1      -0.660  14.309  19.070  0.00  0.00    +0.000 OA
ENDROOT
BRANCH   9  16
ATOM     16  N   UNL     1       1.798   8.460  19.403  0.00  0.00    +0.000 N 
ATOM     17  C   UNL     1       2.462   8.065  18.258  0.00  0.00    +0.000 A 
ATOM     18  C   UNL     1       2.961   6.800  18.485  0.00  0.00    +0.000 A 
ATOM     19  C   UNL     1       2.490   6.480  19.770  0.00  0.00    +0.000 A 
ATOM     20  N   UNL     1       1.794   7.469  20.326  0.00  0.00    +0.000 NA
BRANCH  18  21
ATOM     21  C   UNL     1       3.778   6.048  17.554  0.00  0.00    +0.000 A 
ATOM     22  C   UNL     1       3.725   4.646  17.518  0.00  0.00    +0.000 A 
ATOM     23  C   UNL     1       4.508   3.929  16.611  0.00  0.00    +0.000 A 
ATOM     24  C   UNL     1       5.347   4.609  15.734  0.00  0.00    +0.000 A 
ATOM     25 CL   UNL     1       6.315   3.726  14.621  0.00  0.00    +0.000 Cl
ATOM     26  C   UNL     1       5.408   6.000  15.753  0.00  0.00    +0.000 A 
ATOM     27  C   UNL     1       4.623   6.718  16.659  0.00  0.00    +0.000 A 
ENDBRANCH  18  21
ENDBRANCH   9  16
BRANCH   1  28
ATOM     28  C   UNL     1      -2.430  14.935  21.083  0.00  0.00    +0.000 C 
BRANCH  28  29
ATOM     29  C   UNL     1      -1.712  16.076  21.842  0.00  0.00    +0.000 C 
BRANCH  29  31
ATOM     30  C   UNL     1       0.006  17.302  20.622  0.00  0.00    +0.000 C 
ATOM     31  N   UNL     1      -1.400  17.277  21.036  0.00  0.00    +0.000 NA
ATOM     32  C   UNL     1      -2.262  17.316  19.850  0.00  0.00    +0.000 C 
ENDBRANCH  29  31
ENDBRANCH  28  29
ENDBRANCH   1  28
TORSDOF 5
ENDMDL
MODEL 7
REMARK VINA RESULT:      -8.2      1.014      1.322
REMARK  Name = 
REMARK  7 active torsions:
REMARK  status: ('A' for Active; 'I' for Inactive)
REMARK    1  A    between atoms: C_1  and  N_2
REMARK    2  A    between atoms: N_2  and  C_3
REMARK    3  A    between atoms: N_2  and  C_4
REMARK    4  A    between atoms: C_4  and  C_5
REMARK    5  A    between atoms: C_5  and  N_6
REMARK    6  A    between atoms: C_14  and  N_15
REMARK    7  A    between atoms: C_17  and  C_18
REMARK                            x       y       z     vdW  Elec       q    Type
REMARK                         _______ _______ _______ _____ _____    ______ ____
ROOT
ATOM      1  N   UNL     1      -1.778  13.413  21.168  0.00  0.00    +0.000 N 
ATOM      2  C   UNL     1      -1.746  12.576  22.277  0.00  0.00    +0.000 C 
ATOM      3  O   UNL     1      -2.280  12.836  23.353  0.00  0.00    +0.000 OA
ATOM      4  C   UNL     1      -0.982  11.312  22.142  0.00  0.00    +0.000 A 
ATOM      5  C   UNL     1      -0.971  10.425  23.224  0.00  0.00    +0.000 A 
ATOM      6  C   UNL     1      -0.265   9.239  23.133  0.00  0.00    +0.000 A 
ATOM      7  C   UNL     1       0.420   8.938  21.956  0.00  0.00    +0.000 A 
ATOM      8  C   UNL     1       0.429   9.800  20.825  0.00  0.00    +0.000 A 
ATOM      9  C   UNL     1       1.138   9.562  19.601  0.00  0.00    +0.000 A 
ATOM     10  C   UNL     1       1.162  10.535  18.587  0.00  0.00    +0.000 A 
ATOM     11  C   UNL     1       0.465  11.724  18.742  0.00  0.00    +0.000 A 
ATOM     12  C   UNL     1      -0.259  11.961  19.914  0.00  0.00    +0.000 A 
ATOM     13  C   UNL     1      -0.282  11.027  20.958  0.00  0.00    +0.000 A 
ATOM     14  C   UNL     1      -0.997  13.237  20.034  0.00  0.00    +0.000 C 
ATOM     15  O   UNL     1      -0.871  14.088  19.153  0.00  0.00    +0.000 OA
ENDROOT
BRANCH   9  16
ATOM     16  N   UNL     1       1.839   8.345  19.350  0.00  0.00    +0.000 N 
ATOM     17  C   UNL     1       2.472   7.983  18.176  0.00  0.00    +0.000 A 
ATOM     18  C   UNL     1       3.034   6.741  18.376  0.00  0.00    +0.000 A 
ATOM     19  C   UNL     1       2.633   6.396  19.678  0.00  0.00    +0.000 A 
ATOM     20  N   UNL     1       1.918   7.352  20.267  0.00  0.00    +0.000 NA
BRANCH  18  21
ATOM     21  C   UNL     1       3.844   6.028  17.408  0.00  0.00    +0.000 A 
ATOM     22  C   UNL     1       4.664   6.721  16.504  0.00  0.00    +0.000 A 
ATOM     23  C   UNL     1       5.449   6.025  15.581  0.00  0.00    +0.000 A 
ATOM     24  C   UNL     1       5.420   4.634  15.559  0.00  0.00    +0.000 A 
ATOM     25 CL   UNL     1       6.383   3.778  14.421  0.00  0.00    +0.000 Cl
ATOM     26  C   UNL     1       4.617   3.931  16.454  0.00  0.00    +0.000 A 
ATOM     27  C   UNL     1       3.832   4.627  17.378  0.00  0.00    +0.000 A 
ENDBRANCH  18  21
ENDBRANCH   9  16
BRANCH   1  28
ATOM     28  C   UNL     1      -2.600  14.621  21.228  0.00  0.00    +0.000 C 
BRANCH  28  29
ATOM     29  C   UNL     1      -1.906  15.785  21.976  0.00  0.00    +0.000 C 
BRANCH  29  31
ATOM     30  C   UNL     1      -2.060  16.536  24.290  0.00  0.00    +0.000 C 
ATOM     31  N   UNL     1      -2.736  16.472  22.991  0.00  0.00    +0.000 NA
ATOM     32  C   UNL     1      -3.054  17.829  22.535  0.00  0.00    +0.000 C 
ENDBRANCH  29  31
ENDBRANCH  28  29
ENDBRANCH   1  28
TORSDOF 5
ENDMDL
MODEL 8
REMARK VINA RESULT:      -8.1      4.611     10.166
REMARK  Name = 
REMARK  7 active torsions:
REMARK  status: ('A' for Active; 'I' for Inactive)
REMARK    1  A    between atoms: C_1  and  N_2
REMARK    2  A    between atoms: N_2  and  C_3
REMARK    3  A    between atoms: N_2  and  C_4
REMARK    4  A    between atoms: C_4  and  C_5
REMARK    5  A    between atoms: C_5  and  N_6
REMARK    6  A    between atoms: C_14  and  N_15
REMARK    7  A    between atoms: C_17  and  C_18
REMARK                            x       y       z     vdW  Elec       q    Type
REMARK                         _______ _______ _______ _____ _____    ______ ____
ROOT
ATOM      1  N   UNL     1       4.592   5.007  17.017  0.00  0.00    +0.000 N 
ATOM      2  C   UNL     1       4.063   4.189  18.008  0.00  0.00    +0.000 C 
ATOM      3  O   UNL     1       4.246   2.975  18.072  0.00  0.00    +0.000 OA
ATOM      4  C   UNL     1       3.196   4.838  19.022  0.00  0.00    +0.000 A 
ATOM      5  C   UNL     1       2.687   4.051  20.061  0.00  0.00    +0.000 A 
ATOM      6  C   UNL     1       1.872   4.625  21.020  0.00  0.00    +0.000 A 
ATOM      7  C   UNL     1       1.575   5.985  20.943  0.00  0.00    +0.000 A 
ATOM      8  C   UNL     1       2.077   6.828  19.915  0.00  0.00    +0.000 A 
ATOM      9  C   UNL     1       1.784   8.225  19.763  0.00  0.00    +0.000 A 
ATOM     10  C   UNL     1       2.252   8.938  18.646  0.00  0.00    +0.000 A 
ATOM     11  C   UNL     1       3.038   8.306  17.693  0.00  0.00    +0.000 A 
ATOM     12  C   UNL     1       3.362   6.955  17.839  0.00  0.00    +0.000 A 
ATOM     13  C   UNL     1       2.891   6.205  18.924  0.00  0.00    +0.000 A 
ATOM     14  C   UNL     1       4.212   6.324  16.807  0.00  0.00    +0.000 C 
ATOM     15  O   UNL     1       4.522   6.972  15.806  0.00  0.00    +0.000 OA
ENDROOT
BRANCH   9  16
ATOM     16  N   UNL     1       1.021   8.952  20.725  0.00  0.00    +0.000 N 
ATOM     17  C   UNL     1       0.132   9.979  20.469  0.00  0.00    +0.000 A 
ATOM     18  C   UNL     1      -0.395  10.380  21.677  0.00  0.00    +0.000 A 
ATOM     19  C   UNL     1       0.285   9.588  22.619  0.00  0.00    +0.000 A 
ATOM     20  N   UNL     1       1.133   8.731  22.056  0.00  0.00    +0.000 NA
BRANCH  18  21
ATOM     21  C   UNL     1      -1.416  11.395  21.845  0.00  0.00    +0.000 A 
ATOM     22  C   UNL     1      -1.986  11.642  23.103  0.00  0.00    +0.000 A 
ATOM     23  C   UNL     1      -2.963  12.629  23.257  0.00  0.00    +0.000 A 
ATOM     24  C   UNL     1      -3.373  13.374  22.157  0.00  0.00    +0.000 A 
ATOM     25 CL   UNL     1      -4.578  14.585  22.346  0.00  0.00    +0.000 Cl
ATOM     26  C   UNL     1      -2.813  13.145  20.902  0.00  0.00    +0.000 A 
ATOM     27  C   UNL     1      -1.835  12.159  20.747  0.00  0.00    +0.000 A 
ENDBRANCH  18  21
ENDBRANCH   9  16
BRANCH   1  28
ATOM     28  C   UNL     1       5.530   4.423  16.058  0.00  0.00    +0.000 C 
BRANCH  28  29
ATOM     29  C   UNL     1       6.689   5.380  15.690  0.00  0.00    +0.000 C 
BRANCH  29  31
ATOM     30  C   UNL     1       7.547   6.830  17.452  0.00  0.00    +0.000 C 
ATOM     31  N   UNL     1       7.719   5.562  16.738  0.00  0.00    +0.000 NA
ATOM     32  C   UNL     1       7.658   4.449  17.691  0.00  0.00    +0.000 C 
ENDBRANCH  29  31
ENDBRANCH  28  29
ENDBRANCH   1  28
TORSDOF 5
ENDMDL
MODEL 9
REMARK VINA RESULT:      -8.1      1.072      2.540
REMARK  Name = 
REMARK  7 active torsions:
REMARK  status: ('A' for Active; 'I' for Inactive)
REMARK    1  A    between atoms: C_1  and  N_2
REMARK    2  A    between atoms: N_2  and  C_3
REMARK    3  A    between atoms: N_2  and  C_4
REMARK    4  A    between atoms: C_4  and  C_5
REMARK    5  A    between atoms: C_5  and  N_6
REMARK    6  A    between atoms: C_14  and  N_15
REMARK    7  A    between atoms: C_17  and  C_18
REMARK                            x       y       z     vdW  Elec       q    Type
REMARK                         _______ _______ _______ _____ _____    ______ ____
ROOT
ATOM      1  N   UNL     1      -1.005  12.880  22.007  0.00  0.00    +0.000 N 
ATOM      2  C   UNL     1      -0.393  13.192  20.799  0.00  0.00    +0.000 C 
ATOM      3  O   UNL     1      -0.452  14.295  20.260  0.00  0.00    +0.000 OA
ATOM      4  C   UNL     1       0.341  12.099  20.116  0.00  0.00    +0.000 A 
ATOM      5  C   UNL     1       1.009  12.393  18.923  0.00  0.00    +0.000 A 
ATOM      6  C   UNL     1       1.700  11.395  18.259  0.00  0.00    +0.000 A 
ATOM      7  C   UNL     1       1.728  10.108  18.795  0.00  0.00    +0.000 A 
ATOM      8  C   UNL     1       1.077   9.763  20.010  0.00  0.00    +0.000 A 
ATOM      9  C   UNL     1       1.043   8.453  20.596  0.00  0.00    +0.000 A 
ATOM     10  C   UNL     1       0.277   8.203  21.748  0.00  0.00    +0.000 A 
ATOM     11  C   UNL     1      -0.426   9.233  22.356  0.00  0.00    +0.000 A 
ATOM     12  C   UNL     1      -0.380  10.522  21.820  0.00  0.00    +0.000 A 
ATOM     13  C   UNL     1       0.349  10.803  20.657  0.00  0.00    +0.000 A 
ATOM     14  C   UNL     1      -1.136  11.592  22.506  0.00  0.00    +0.000 C 
ATOM     15  O   UNL     1      -1.858  11.300  23.460  0.00  0.00    +0.000 OA
ENDROOT
BRANCH   9  16
ATOM     16  N   UNL     1       1.777   7.356  20.053  0.00  0.00    +0.000 N 
ATOM     17  C   UNL     1       2.456   7.332  18.850  0.00  0.00    +0.000 A 
ATOM     18  C   UNL     1       3.037   6.088  18.729  0.00  0.00    +0.000 A 
ATOM     19  C   UNL     1       2.598   5.400  19.874  0.00  0.00    +0.000 A 
ATOM     20  N   UNL     1       1.845   6.154  20.671  0.00  0.00    +0.000 NA
BRANCH  18  21
ATOM     21  C   UNL     1       3.893   5.671  17.636  0.00  0.00    +0.000 A 
ATOM     22  C   UNL     1       4.543   6.617  16.829  0.00  0.00    +0.000 A 
ATOM     23  C   UNL     1       5.375   6.207  15.785  0.00  0.00    +0.000 A 
ATOM     24  C   UNL     1       5.563   4.850  15.543  0.00  0.00    +0.000 A 
ATOM     25 CL   UNL     1       6.584   4.345  14.255  0.00  0.00    +0.000 Cl
ATOM     26  C   UNL     1       4.930   3.898  16.339  0.00  0.00    +0.000 A 
ATOM     27  C   UNL     1       4.099   4.308  17.385  0.00  0.00    +0.000 A 
ENDBRANCH  18  21
ENDBRANCH   9  16
BRANCH   1  28
ATOM     28  C   UNL     1      -1.655  13.954  22.758  0.00  0.00    +0.000 C 
BRANCH  28  29
ATOM     29  C   UNL     1      -3.155  14.110  22.409  0.00  0.00    +0.000 C 
BRANCH  29  31
ATOM     30  C   UNL     1      -4.996  13.207  23.727  0.00  0.00    +0.000 C 
ATOM     31  N   UNL     1      -4.057  14.320  23.564  0.00  0.00    +0.000 NA
ATOM     32  C   UNL     1      -3.266  14.478  24.789  0.00  0.00    +0.000 C 
ENDBRANCH  29  31
ENDBRANCH  28  29
ENDBRANCH   1  28
TORSDOF 5
ENDMDL
