MODEL 1
REMARK VINA RESULT:      -7.4      0.000      0.000
REMARK  Name = 
REMARK  11 active torsions:
REMARK  status: ('A' for Active; 'I' for Inactive)
REMARK    1  A    between atoms: C_1  and  C_2
REMARK    2  A    between atoms: C_2  and  C_3
REMARK    3  A    between atoms: C_3  and  C_4
REMARK    4  A    between atoms: C_6  and  O_7
REMARK    5  A    between atoms: C_10  and  C_11
REMARK    6  A    between atoms: C_13  and  O_14
REMARK    7  A    between atoms: O_14  and  C_15
REMARK    8  A    between atoms: C_16  and  O_17
REMARK    9  A    between atoms: O_17  and  C_18
REMARK   10  A    between atoms: C_19  and  O_20
REMARK   11  A    between atoms: O_20  and  C_21
REMARK                            x       y       z     vdW  Elec       q    Type
REMARK                         _______ _______ _______ _____ _____    ______ ____
ROOT
ATOM      1  C   UNL     1      -0.172  10.020  21.655  0.00  0.00    +0.000 A 
ATOM      2  C   UNL     1      -0.430  10.880  20.449  0.00  0.00    +0.000 A 
ATOM      3  C   UNL     1       0.180  10.508  19.316  0.00  0.00    +0.000 A 
ATOM      4  N   UNL     1       0.984   9.355  19.322  0.00  0.00    +0.000 N 
ATOM      5  N   UNL     1       1.693   8.808  18.314  0.00  0.00    +0.000 NA
ATOM      6  C   UNL     1       2.244   7.730  18.886  0.00  0.00    +0.000 A 
ATOM      7  N   UNL     1       1.927   7.563  20.212  0.00  0.00    +0.000 NA
ATOM      8  C   UNL     1       1.148   8.591  20.478  0.00  0.00    +0.000 A 
ATOM      9  N   UNL     1       0.554   8.943  21.659  0.00  0.00    +0.000 NA
ENDROOT
BRANCH   6  10
ATOM     10  C   UNL     1       3.139   6.829  18.168  0.00  0.00    +0.000 A 
ATOM     11  C   UNL     1       2.783   5.488  18.018  0.00  0.00    +0.000 A 
ATOM     12  C   UNL     1       3.587   4.599  17.302  0.00  0.00    +0.000 A 
ATOM     13  C   UNL     1       4.814   5.044  16.756  0.00  0.00    +0.000 A 
ATOM     14  C   UNL     1       5.194   6.396  16.924  0.00  0.00    +0.000 A 
ATOM     15  C   UNL     1       4.344   7.275  17.619  0.00  0.00    +0.000 A 
BRANCH  12  16
ATOM     16  O   UNL     1       3.234   3.274  17.131  0.00  0.00    +0.000 OA
ATOM     17  C   UNL     1       3.268   2.473  18.311  0.00  0.00    +0.000 C 
ENDBRANCH  12  16
BRANCH  13  18
ATOM     18  O   UNL     1       5.572   4.063  16.157  0.00  0.00    +0.000 OA
ATOM     19  C   UNL     1       5.703   4.081  14.740  0.00  0.00    +0.000 C 
ENDBRANCH  13  18
BRANCH  14  20
ATOM     20  O   UNL     1       6.406   6.795  16.424  0.00  0.00    +0.000 OA
ATOM     21  C   UNL     1       7.494   6.957  17.324  0.00  0.00    +0.000 C 
ENDBRANCH  14  20
ENDBRANCH   6  10
BRANCH   3  22
ATOM     22  O   UNL     1       0.036  11.225  18.138  0.00  0.00    +0.000 OA
ATOM     23  H   UNL     1       0.019  12.177  18.325  0.00  0.00    +0.000 HD
ENDBRANCH   3  22
BRANCH   1  24
ATOM     24  C   UNL     1      -0.835  10.459  22.949  0.00  0.00    +0.000 C 
BRANCH  24  26
ATOM     25  C   UNL     1      -2.781  12.083  23.252  0.00  0.00    +0.000 C 
ATOM     26  C   UNL     1      -1.308  11.914  22.905  0.00  0.00    +0.000 C 
ENDBRANCH  24  26
ENDBRANCH   1  24
TORSDOF 7
ENDMDL
MODEL 2
REMARK VINA RESULT:      -7.3      6.316      9.603
REMARK  Name = 
REMARK  11 active torsions:
REMARK  status: ('A' for Active; 'I' for Inactive)
REMARK    1  A    between atoms: C_1  and  C_2
REMARK    2  A    between atoms: C_2  and  C_3
REMARK    3  A    between atoms: C_3  and  C_4
REMARK    4  A    between atoms: C_6  and  O_7
REMARK    5  A    between atoms: C_10  and  C_11
REMARK    6  A    between atoms: C_13  and  O_14
REMARK    7  A    between atoms: O_14  and  C_15
REMARK    8  A    between atoms: C_16  and  O_17
REMARK    9  A    between atoms: O_17  and  C_18
REMARK   10  A    between atoms: C_19  and  O_20
REMARK   11  A    between atoms: O_20  and  C_21
REMARK                            x       y       z     vdW  Elec       q    Type
REMARK                         _______ _______ _______ _____ _____    ______ ____
ROOT
ATOM      1  C   UNL     1       6.774   5.574  16.844  0.00  0.00    +0.000 A 
ATOM      2  C   UNL     1       7.247   4.947  18.127  0.00  0.00    +0.000 A 
ATOM      3  C   UNL     1       7.926   5.747  18.959  0.00  0.00    +0.000 A 
ATOM      4  N   UNL     1       8.129   7.090  18.600  0.00  0.00    +0.000 N 
ATOM      5  N   UNL     1       8.785   8.060  19.269  0.00  0.00    +0.000 NA
ATOM      6  C   UNL     1       8.647   9.123  18.467  0.00  0.00    +0.000 A 
ATOM      7  N   UNL     1       7.938   8.882  17.316  0.00  0.00    +0.000 NA
ATOM      8  C   UNL     1       7.629   7.605  17.402  0.00  0.00    +0.000 A 
ATOM      9  N   UNL     1       6.943   6.819  16.517  0.00  0.00    +0.000 NA
ENDROOT
BRANCH   6  10
ATOM     10  C   UNL     1       9.233  10.423  18.776  0.00  0.00    +0.000 A 
ATOM     11  C   UNL     1       9.282  10.854  20.102  0.00  0.00    +0.000 A 
ATOM     12  C   UNL     1       9.873  12.071  20.449  0.00  0.00    +0.000 A 
ATOM     13  C   UNL     1      10.390  12.915  19.438  0.00  0.00    +0.000 A 
ATOM     14  C   UNL     1      10.322  12.497  18.088  0.00  0.00    +0.000 A 
ATOM     15  C   UNL     1       9.755  11.249  17.777  0.00  0.00    +0.000 A 
BRANCH  12  16
ATOM     16  O   UNL     1       9.944  12.498  21.761  0.00  0.00    +0.000 OA
ATOM     17  C   UNL     1       8.689  12.721  22.403  0.00  0.00    +0.000 C 
ENDBRANCH  12  16
BRANCH  13  18
ATOM     18  O   UNL     1      10.858  14.132  19.881  0.00  0.00    +0.000 OA
ATOM     19  C   UNL     1      10.002  15.264  19.773  0.00  0.00    +0.000 C 
ENDBRANCH  13  18
BRANCH  14  20
ATOM     20  O   UNL     1      10.790  13.349  17.122  0.00  0.00    +0.000 OA
ATOM     21  C   UNL     1      12.158  13.265  16.745  0.00  0.00    +0.000 C 
ENDBRANCH  14  20
ENDBRANCH   6  10
BRANCH   3  22
ATOM     22  O   UNL     1       8.429   5.288  20.167  0.00  0.00    +0.000 OA
ATOM     23  H   UNL     1       7.784   4.708  20.600  0.00  0.00    +0.000 HD
ENDBRANCH   3  22
BRANCH   1  24
ATOM     24  C   UNL     1       6.033   4.660  15.883  0.00  0.00    +0.000 C 
BRANCH  24  26
ATOM     25  C   UNL     1       3.829   4.368  17.136  0.00  0.00    +0.000 C 
ATOM     26  C   UNL     1       5.084   3.696  16.598  0.00  0.00    +0.000 C 
ENDBRANCH  24  26
ENDBRANCH   1  24
TORSDOF 7
ENDMDL
MODEL 3
REMARK VINA RESULT:      -7.1      6.520      9.903
REMARK  Name = 
REMARK  11 active torsions:
REMARK  status: ('A' for Active; 'I' for Inactive)
REMARK    1  A    between atoms: C_1  and  C_2
REMARK    2  A    between atoms: C_2  and  C_3
REMARK    3  A    between atoms: C_3  and  C_4
REMARK    4  A    between atoms: C_6  and  O_7
REMARK    5  A    between atoms: C_10  and  C_11
REMARK    6  A    between atoms: C_13  and  O_14
REMARK    7  A    between atoms: O_14  and  C_15
REMARK    8  A    between atoms: C_16  and  O_17
REMARK    9  A    between atoms: O_17  and  C_18
REMARK   10  A    between atoms: C_19  and  O_20
REMARK   11  A    between atoms: O_20  and  C_21
REMARK                            x       y       z     vdW  Elec       q    Type
REMARK                         _______ _______ _______ _____ _____    ______ ____
ROOT
ATOM      1  C   UNL     1       6.633   5.989  16.803  0.00  0.00    +0.000 A 
ATOM      2  C   UNL     1       7.116   5.213  17.997  0.00  0.00    +0.000 A 
ATOM      3  C   UNL     1       7.871   5.888  18.873  0.00  0.00    +0.000 A 
ATOM      4  N   UNL     1       8.140   7.247  18.637  0.00  0.00    +0.000 N 
ATOM      5  N   UNL     1       8.877   8.108  19.368  0.00  0.00    +0.000 NA
ATOM      6  C   UNL     1       8.771   9.251  18.680  0.00  0.00    +0.000 A 
ATOM      7  N   UNL     1       8.007   9.165  17.542  0.00  0.00    +0.000 NA
ATOM      8  C   UNL     1       7.626   7.904  17.518  0.00  0.00    +0.000 A 
ATOM      9  N   UNL     1       6.862   7.249  16.591  0.00  0.00    +0.000 NA
ENDROOT
BRANCH   6  10
ATOM     10  C   UNL     1       9.445  10.480  19.088  0.00  0.00    +0.000 A 
ATOM     11  C   UNL     1       9.214  10.996  20.363  0.00  0.00    +0.000 A 
ATOM     12  C   UNL     1       9.869  12.145  20.811  0.00  0.00    +0.000 A 
ATOM     13  C   UNL     1      10.749  12.836  19.946  0.00  0.00    +0.000 A 
ATOM     14  C   UNL     1      10.970  12.333  18.642  0.00  0.00    +0.000 A 
ATOM     15  C   UNL     1      10.323  11.153  18.235  0.00  0.00    +0.000 A 
BRANCH  12  16
ATOM     16  O   UNL     1       9.662  12.653  22.079  0.00  0.00    +0.000 OA
ATOM     17  C   UNL     1       8.451  12.244  22.715  0.00  0.00    +0.000 C 
ENDBRANCH  12  16
BRANCH  13  18
ATOM     18  O   UNL     1      11.262  14.008  20.454  0.00  0.00    +0.000 OA
ATOM     19  C   UNL     1      10.621  15.231  20.109  0.00  0.00    +0.000 C 
ENDBRANCH  13  18
BRANCH  14  20
ATOM     20  O   UNL     1      11.793  13.042  17.805  0.00  0.00    +0.000 OA
ATOM     21  C   UNL     1      11.290  13.451  16.541  0.00  0.00    +0.000 C 
ENDBRANCH  14  20
ENDBRANCH   6  10
BRANCH   3  22
ATOM     22  O   UNL     1       8.392   5.284  20.007  0.00  0.00    +0.000 OA
ATOM     23  H   UNL     1       8.409   4.321  19.897  0.00  0.00    +0.000 HD
ENDBRANCH   3  22
BRANCH   1  24
ATOM     24  C   UNL     1       5.804   5.217  15.790  0.00  0.00    +0.000 C 
BRANCH  24  26
ATOM     25  C   UNL     1       5.842   3.828  13.650  0.00  0.00    +0.000 C 
ATOM     26  C   UNL     1       6.660   4.557  14.707  0.00  0.00    +0.000 C 
ENDBRANCH  24  26
ENDBRANCH   1  24
TORSDOF 7
ENDMDL
MODEL 4
REMARK VINA RESULT:      -7.0      0.548      2.546
REMARK  Name = 
REMARK  11 active torsions:
REMARK  status: ('A' for Active; 'I' for Inactive)
REMARK    1  A    between atoms: C_1  and  C_2
REMARK    2  A    between atoms: C_2  and  C_3
REMARK    3  A    between atoms: C_3  and  C_4
REMARK    4  A    between atoms: C_6  and  O_7
REMARK    5  A    between atoms: C_10  and  C_11
REMARK    6  A    between atoms: C_13  and  O_14
REMARK    7  A    between atoms: O_14  and  C_15
REMARK    8  A    between atoms: C_16  and  O_17
REMARK    9  A    between atoms: O_17  and  C_18
REMARK   10  A    between atoms: C_19  and  O_20
REMARK   11  A    between atoms: O_20  and  C_21
REMARK                            x       y       z     vdW  Elec       q    Type
REMARK                         _______ _______ _______ _____ _____    ______ ____
ROOT
ATOM      1  C   UNL     1      -0.211  10.030  21.699  0.00  0.00    +0.000 A 
ATOM      2  C   UNL     1      -0.503  10.895  20.503  0.00  0.00    +0.000 A 
ATOM      3  C   UNL     1       0.101  10.545  19.361  0.00  0.00    +0.000 A 
ATOM      4  N   UNL     1       0.930   9.410  19.346  0.00  0.00    +0.000 N 
ATOM      5  N   UNL     1       1.638   8.887  18.325  0.00  0.00    +0.000 NA
ATOM      6  C   UNL     1       2.219   7.817  18.882  0.00  0.00    +0.000 A 
ATOM      7  N   UNL     1       1.922   7.631  20.210  0.00  0.00    +0.000 NA
ATOM      8  C   UNL     1       1.124   8.640  20.494  0.00  0.00    +0.000 A 
ATOM      9  N   UNL     1       0.538   8.969  21.685  0.00  0.00    +0.000 NA
ENDROOT
BRANCH   6  10
ATOM     10  C   UNL     1       3.124   6.941  18.145  0.00  0.00    +0.000 A 
ATOM     11  C   UNL     1       4.296   7.468  17.602  0.00  0.00    +0.000 A 
ATOM     12  C   UNL     1       5.212   6.659  16.927  0.00  0.00    +0.000 A 
ATOM     13  C   UNL     1       4.933   5.285  16.741  0.00  0.00    +0.000 A 
ATOM     14  C   UNL     1       3.735   4.746  17.266  0.00  0.00    +0.000 A 
ATOM     15  C   UNL     1       2.852   5.581  17.974  0.00  0.00    +0.000 A 
BRANCH  12  16
ATOM     16  O   UNL     1       6.385   7.168  16.403  0.00  0.00    +0.000 OA
ATOM     17  C   UNL     1       7.319   7.668  17.359  0.00  0.00    +0.000 C 
ENDBRANCH  12  16
BRANCH  13  18
ATOM     18  O   UNL     1       5.854   4.604  15.977  0.00  0.00    +0.000 OA
ATOM     19  C   UNL     1       7.065   4.183  16.595  0.00  0.00    +0.000 C 
ENDBRANCH  13  18
BRANCH  14  20
ATOM     20  O   UNL     1       3.464   3.423  17.037  0.00  0.00    +0.000 OA
ATOM     21  C   UNL     1       2.578   2.746  17.918  0.00  0.00    +0.000 C 
ENDBRANCH  14  20
ENDBRANCH   6  10
BRANCH   3  22
ATOM     22  O   UNL     1      -0.073  11.269  18.191  0.00  0.00    +0.000 OA
ATOM     23  H   UNL     1      -0.226  10.668  17.445  0.00  0.00    +0.000 HD
ENDBRANCH   3  22
BRANCH   1  24
ATOM     24  C   UNL     1      -0.868  10.444  23.005  0.00  0.00    +0.000 C 
BRANCH  24  26
ATOM     25  C   UNL     1      -2.801  12.085  23.294  0.00  0.00    +0.000 C 
ATOM     26  C   UNL     1      -1.317  11.906  23.002  0.00  0.00    +0.000 C 
ENDBRANCH  24  26
ENDBRANCH   1  24
TORSDOF 7
ENDMDL
MODEL 5
REMARK VINA RESULT:      -7.0      1.675      3.488
REMARK  Name = 
REMARK  11 active torsions:
REMARK  status: ('A' for Active; 'I' for Inactive)
REMARK    1  A    between atoms: C_1  and  C_2
REMARK    2  A    between atoms: C_2  and  C_3
REMARK    3  A    between atoms: C_3  and  C_4
REMARK    4  A    between atoms: C_6  and  O_7
REMARK    5  A    between atoms: C_10  and  C_11
REMARK    6  A    between atoms: C_13  and  O_14
REMARK    7  A    between atoms: O_14  and  C_15
REMARK    8  A    between atoms: C_16  and  O_17
REMARK    9  A    between atoms: O_17  and  C_18
REMARK   10  A    between atoms: C_19  and  O_20
REMARK   11  A    between atoms: O_20  and  C_21
REMARK                            x       y       z     vdW  Elec       q    Type
REMARK                         _______ _______ _______ _____ _____    ______ ____
ROOT
ATOM      1  C   UNL     1      -0.551  10.814  19.109  0.00  0.00    +0.000 A 
ATOM      2  C   UNL     1      -0.413  10.366  20.538  0.00  0.00    +0.000 A 
ATOM      3  C   UNL     1       0.456   9.374  20.765  0.00  0.00    +0.000 A 
ATOM      4  N   UNL     1       1.180   8.841  19.684  0.00  0.00    +0.000 N 
ATOM      5  N   UNL     1       2.087   7.843  19.677  0.00  0.00    +0.000 NA
ATOM      6  C   UNL     1       2.450   7.778  18.390  0.00  0.00    +0.000 A 
ATOM      7  N   UNL     1       1.819   8.682  17.572  0.00  0.00    +0.000 NA
ATOM      8  C   UNL     1       1.017   9.335  18.388  0.00  0.00    +0.000 A 
ATOM      9  N   UNL     1       0.130  10.338  18.111  0.00  0.00    +0.000 NA
ENDROOT
BRANCH   6  10
ATOM     10  C   UNL     1       3.413   6.801  17.893  0.00  0.00    +0.000 A 
ATOM     11  C   UNL     1       4.653   7.239  17.425  0.00  0.00    +0.000 A 
ATOM     12  C   UNL     1       5.621   6.336  16.980  0.00  0.00    +0.000 A 
ATOM     13  C   UNL     1       5.332   4.952  16.952  0.00  0.00    +0.000 A 
ATOM     14  C   UNL     1       4.069   4.501  17.402  0.00  0.00    +0.000 A 
ATOM     15  C   UNL     1       3.130   5.433  17.879  0.00  0.00    +0.000 A 
BRANCH  12  16
ATOM     16  O   UNL     1       6.858   6.758  16.533  0.00  0.00    +0.000 OA
ATOM     17  C   UNL     1       7.627   7.509  17.472  0.00  0.00    +0.000 C 
ENDBRANCH  12  16
BRANCH  13  18
ATOM     18  O   UNL     1       6.319   4.164  16.403  0.00  0.00    +0.000 OA
ATOM     19  C   UNL     1       6.249   3.866  15.013  0.00  0.00    +0.000 C 
ENDBRANCH  13  18
BRANCH  14  20
ATOM     20  O   UNL     1       3.794   3.161  17.326  0.00  0.00    +0.000 OA
ATOM     21  C   UNL     1       2.465   2.722  17.573  0.00  0.00    +0.000 C 
ENDBRANCH  14  20
ENDBRANCH   6  10
BRANCH   3  22
ATOM     22  O   UNL     1       0.664   8.859  22.035  0.00  0.00    +0.000 OA
ATOM     23  H   UNL     1      -0.145   8.436  22.363  0.00  0.00    +0.000 HD
ENDBRANCH   3  22
BRANCH   1  24
ATOM     24  C   UNL     1      -1.561  11.917  18.844  0.00  0.00    +0.000 C 
BRANCH  24  26
ATOM     25  C   UNL     1      -3.858  11.407  17.857  0.00  0.00    +0.000 C 
ATOM     26  C   UNL     1      -2.385  11.672  17.579  0.00  0.00    +0.000 C 
ENDBRANCH  24  26
ENDBRANCH   1  24
TORSDOF 7
ENDMDL
MODEL 6
REMARK VINA RESULT:      -7.0      1.647      3.117
REMARK  Name = 
REMARK  11 active torsions:
REMARK  status: ('A' for Active; 'I' for Inactive)
REMARK    1  A    between atoms: C_1  and  C_2
REMARK    2  A    between atoms: C_2  and  C_3
REMARK    3  A    between atoms: C_3  and  C_4
REMARK    4  A    between atoms: C_6  and  O_7
REMARK    5  A    between atoms: C_10  and  C_11
REMARK    6  A    between atoms: C_13  and  O_14
REMARK    7  A    between atoms: O_14  and  C_15
REMARK    8  A    between atoms: C_16  and  O_17
REMARK    9  A    between atoms: O_17  and  C_18
REMARK   10  A    between atoms: C_19  and  O_20
REMARK   11  A    between atoms: O_20  and  C_21
REMARK                            x       y       z     vdW  Elec       q    Type
REMARK                         _______ _______ _______ _____ _____    ______ ____
ROOT
ATOM      1  C   UNL     1      -0.290  11.164  21.782  0.00  0.00    +0.000 A 
ATOM      2  C   UNL     1      -0.024  11.777  20.435  0.00  0.00    +0.000 A 
ATOM      3  C   UNL     1       0.618  11.004  19.551  0.00  0.00    +0.000 A 
ATOM      4  N   UNL     1       0.974   9.695  19.920  0.00  0.00    +0.000 N 
ATOM      5  N   UNL     1       1.626   8.756  19.205  0.00  0.00    +0.000 NA
ATOM      6  C   UNL     1       1.671   7.716  20.047  0.00  0.00    +0.000 A 
ATOM      7  N   UNL     1       1.084   7.943  21.268  0.00  0.00    +0.000 NA
ATOM      8  C   UNL     1       0.661   9.188  21.183  0.00  0.00    +0.000 A 
ATOM      9  N   UNL     1       0.019   9.949  22.121  0.00  0.00    +0.000 NA
ENDROOT
BRANCH   6  10
ATOM     10  C   UNL     1       2.324   6.456  19.707  0.00  0.00    +0.000 A 
ATOM     11  C   UNL     1       3.089   6.374  18.543  0.00  0.00    +0.000 A 
ATOM     12  C   UNL     1       3.767   5.203  18.200  0.00  0.00    +0.000 A 
ATOM     13  C   UNL     1       3.643   4.054  19.017  0.00  0.00    +0.000 A 
ATOM     14  C   UNL     1       2.850   4.121  20.186  0.00  0.00    +0.000 A 
ATOM     15  C   UNL     1       2.210   5.328  20.523  0.00  0.00    +0.000 A 
BRANCH  12  16
ATOM     16  O   UNL     1       4.541   5.117  17.060  0.00  0.00    +0.000 OA
ATOM     17  C   UNL     1       4.947   6.364  16.498  0.00  0.00    +0.000 C 
ENDBRANCH  12  16
BRANCH  13  18
ATOM     18  O   UNL     1       4.270   2.928  18.534  0.00  0.00    +0.000 OA
ATOM     19  C   UNL     1       3.469   1.905  17.954  0.00  0.00    +0.000 C 
ENDBRANCH  13  18
BRANCH  14  20
ATOM     20  O   UNL     1       2.709   2.984  20.939  0.00  0.00    +0.000 OA
ATOM     21  C   UNL     1       1.495   2.785  21.651  0.00  0.00    +0.000 C 
ENDBRANCH  14  20
ENDBRANCH   6  10
BRANCH   3  22
ATOM     22  O   UNL     1       0.937  11.456  18.280  0.00  0.00    +0.000 OA
ATOM     23  H   UNL     1       1.892  11.382  18.128  0.00  0.00    +0.000 HD
ENDBRANCH   3  22
BRANCH   1  24
ATOM     24  C   UNL     1      -0.988  12.050  22.799  0.00  0.00    +0.000 C 
BRANCH  24  26
ATOM     25  C   UNL     1      -3.359  12.433  23.661  0.00  0.00    +0.000 C 
ATOM     26  C   UNL     1      -2.452  12.317  22.444  0.00  0.00    +0.000 C 
ENDBRANCH  24  26
ENDBRANCH   1  24
TORSDOF 7
ENDMDL
MODEL 7
REMARK VINA RESULT:      -6.9      1.900      2.427
REMARK  Name = 
REMARK  11 active torsions:
REMARK  status: ('A' for Active; 'I' for Inactive)
REMARK    1  A    between atoms: C_1  and  C_2
REMARK    2  A    between atoms: C_2  and  C_3
REMARK    3  A    between atoms: C_3  and  C_4
REMARK    4  A    between atoms: C_6  and  O_7
REMARK    5  A    between atoms: C_10  and  C_11
REMARK    6  A    between atoms: C_13  and  O_14
REMARK    7  A    between atoms: O_14  and  C_15
REMARK    8  A    between atoms: C_16  and  O_17
REMARK    9  A    between atoms: O_17  and  C_18
REMARK   10  A    between atoms: C_19  and  O_20
REMARK   11  A    between atoms: O_20  and  C_21
REMARK                            x       y       z     vdW  Elec       q    Type
REMARK                         _______ _______ _______ _____ _____    ______ ____
ROOT
ATOM      1  C   UNL     1       0.306  10.956  20.858  0.00  0.00    +0.000 A 
ATOM      2  C   UNL     1       0.760  11.359  19.482  0.00  0.00    +0.000 A 
ATOM      3  C   UNL     1       1.419  10.429  18.781  0.00  0.00    +0.000 A 
ATOM      4  N   UNL     1       1.621   9.160  19.352  0.00  0.00    +0.000 N 
ATOM      5  N   UNL     1       2.259   8.088  18.840  0.00  0.00    +0.000 NA
ATOM      6  C   UNL     1       2.128   7.172  19.806  0.00  0.00    +0.000 A 
ATOM      7  N   UNL     1       1.441   7.604  20.914  0.00  0.00    +0.000 NA
ATOM      8  C   UNL     1       1.138   8.853  20.625  0.00  0.00    +0.000 A 
ATOM      9  N   UNL     1       0.472   9.779  21.381  0.00  0.00    +0.000 NA
ENDROOT
BRANCH   6  10
ATOM     10  C   UNL     1       2.700   5.834  19.705  0.00  0.00    +0.000 A 
ATOM     11  C   UNL     1       1.889   4.722  19.935  0.00  0.00    +0.000 A 
ATOM     12  C   UNL     1       2.383   3.423  19.806  0.00  0.00    +0.000 A 
ATOM     13  C   UNL     1       3.745   3.217  19.486  0.00  0.00    +0.000 A 
ATOM     14  C   UNL     1       4.582   4.338  19.275  0.00  0.00    +0.000 A 
ATOM     15  C   UNL     1       4.043   5.633  19.375  0.00  0.00    +0.000 A 
BRANCH  12  16
ATOM     16  O   UNL     1       1.582   2.316  20.013  0.00  0.00    +0.000 OA
ATOM     17  C   UNL     1       0.577   2.092  19.025  0.00  0.00    +0.000 C 
ENDBRANCH  12  16
BRANCH  13  18
ATOM     18  O   UNL     1       4.148   1.900  19.483  0.00  0.00    +0.000 OA
ATOM     19  C   UNL     1       4.014   1.156  18.278  0.00  0.00    +0.000 C 
ENDBRANCH  13  18
BRANCH  14  20
ATOM     20  O   UNL     1       5.908   4.116  19.008  0.00  0.00    +0.000 OA
ATOM     21  C   UNL     1       6.462   4.655  17.816  0.00  0.00    +0.000 C 
ENDBRANCH  14  20
ENDBRANCH   6  10
BRANCH   3  22
ATOM     22  O   UNL     1       1.904  10.680  17.507  0.00  0.00    +0.000 OA
ATOM     23  H   UNL     1       2.871  10.607  17.495  0.00  0.00    +0.000 HD
ENDBRANCH   3  22
BRANCH   1  24
ATOM     24  C   UNL     1      -0.412  12.020  21.669  0.00  0.00    +0.000 C 
BRANCH  24  26
ATOM     25  C   UNL     1      -2.384  12.368  23.251  0.00  0.00    +0.000 C 
ATOM     26  C   UNL     1      -1.282  11.429  22.780  0.00  0.00    +0.000 C 
ENDBRANCH  24  26
ENDBRANCH   1  24
TORSDOF 7
ENDMDL
MODEL 8
REMARK VINA RESULT:      -6.9      1.648      2.371
REMARK  Name = 
REMARK  11 active torsions:
REMARK  status: ('A' for Active; 'I' for Inactive)
REMARK    1  A    between atoms: C_1  and  C_2
REMARK    2  A    between atoms: C_2  and  C_3
REMARK    3  A    between atoms: C_3  and  C_4
REMARK    4  A    between atoms: C_6  and  O_7
REMARK    5  A    between atoms: C_10  and  C_11
REMARK    6  A    between atoms: C_13  and  O_14
REMARK    7  A    between atoms: O_14  and  C_15
REMARK    8  A    between atoms: C_16  and  O_17
REMARK    9  A    between atoms: O_17  and  C_18
REMARK   10  A    between atoms: C_19  and  O_20
REMARK   11  A    between atoms: O_20  and  C_21
REMARK                            x       y       z     vdW  Elec       q    Type
REMARK                         _______ _______ _______ _____ _____    ______ ____
ROOT
ATOM      1  C   UNL     1      -0.649  10.743  19.357  0.00  0.00    +0.000 A 
ATOM      2  C   UNL     1      -0.411  10.307  20.776  0.00  0.00    +0.000 A 
ATOM      3  C   UNL     1       0.506   9.348  20.953  0.00  0.00    +0.000 A 
ATOM      4  N   UNL     1       1.185   8.838  19.833  0.00  0.00    +0.000 N 
ATOM      5  N   UNL     1       2.126   7.875  19.774  0.00  0.00    +0.000 NA
ATOM      6  C   UNL     1       2.417   7.819  18.469  0.00  0.00    +0.000 A 
ATOM      7  N   UNL     1       1.705   8.696  17.687  0.00  0.00    +0.000 NA
ATOM      8  C   UNL     1       0.929   9.321  18.548  0.00  0.00    +0.000 A 
ATOM      9  N   UNL     1      -0.010  10.290  18.322  0.00  0.00    +0.000 NA
ENDROOT
BRANCH   6  10
ATOM     10  C   UNL     1       3.385   6.876  17.918  0.00  0.00    +0.000 A 
ATOM     11  C   UNL     1       3.067   5.519  17.870  0.00  0.00    +0.000 A 
ATOM     12  C   UNL     1       3.944   4.587  17.311  0.00  0.00    +0.000 A 
ATOM     13  C   UNL     1       5.204   5.010  16.827  0.00  0.00    +0.000 A 
ATOM     14  C   UNL     1       5.545   6.381  16.894  0.00  0.00    +0.000 A 
ATOM     15  C   UNL     1       4.623   7.299  17.428  0.00  0.00    +0.000 A 
BRANCH  12  16
ATOM     16  O   UNL     1       3.631   3.243  17.241  0.00  0.00    +0.000 OA
ATOM     17  C   UNL     1       2.329   2.891  17.708  0.00  0.00    +0.000 C 
ENDBRANCH  12  16
BRANCH  13  18
ATOM     18  O   UNL     1       6.028   3.996  16.391  0.00  0.00    +0.000 OA
ATOM     19  C   UNL     1       6.171   3.799  14.989  0.00  0.00    +0.000 C 
ENDBRANCH  13  18
BRANCH  14  20
ATOM     20  O   UNL     1       6.787   6.762  16.459  0.00  0.00    +0.000 OA
ATOM     21  C   UNL     1       7.668   7.393  17.379  0.00  0.00    +0.000 C 
ENDBRANCH  14  20
ENDBRANCH   6  10
BRANCH   3  22
ATOM     22  O   UNL     1       0.807   8.846  22.210  0.00  0.00    +0.000 OA
ATOM     23  H   UNL     1       0.702   9.539  22.882  0.00  0.00    +0.000 HD
ENDBRANCH   3  22
BRANCH   1  24
ATOM     24  C   UNL     1      -1.713  11.807  19.150  0.00  0.00    +0.000 C 
BRANCH  24  26
ATOM     25  C   UNL     1      -3.825  11.008  17.961  0.00  0.00    +0.000 C 
ATOM     26  C   UNL     1      -2.453  11.651  17.820  0.00  0.00    +0.000 C 
ENDBRANCH  24  26
ENDBRANCH   1  24
TORSDOF 7
ENDMDL
MODEL 9
REMARK VINA RESULT:      -6.9      1.625      3.429
REMARK  Name = 
REMARK  11 active torsions:
REMARK  status: ('A' for Active; 'I' for Inactive)
REMARK    1  A    between atoms: C_1  and  C_2
REMARK    2  A    between atoms: C_2  and  C_3
REMARK    3  A    between atoms: C_3  and  C_4
REMARK    4  A    between atoms: C_6  and  O_7
REMARK    5  A    between atoms: C_10  and  C_11
REMARK    6  A    between atoms: C_13  and  O_14
REMARK    7  A    between atoms: O_14  and  C_15
REMARK    8  A    between atoms: C_16  and  O_17
REMARK    9  A    between atoms: O_17  and  C_18
REMARK   10  A    between atoms: C_19  and  O_20
REMARK   11  A    between atoms: O_20  and  C_21
REMARK                            x       y       z     vdW  Elec       q    Type
REMARK                         _______ _______ _______ _____ _____    ______ ____
ROOT
ATOM      1  C   UNL     1      -0.406  10.888  19.157  0.00  0.00    +0.000 A 
ATOM      2  C   UNL     1      -0.341  10.368  20.567  0.00  0.00    +0.000 A 
ATOM      3  C   UNL     1       0.479   9.331  20.777  0.00  0.00    +0.000 A 
ATOM      4  N   UNL     1       1.223   8.820  19.699  0.00  0.00    +0.000 N 
ATOM      5  N   UNL     1       2.089   7.788  19.676  0.00  0.00    +0.000 NA
ATOM      6  C   UNL     1       2.500   7.769  18.402  0.00  0.00    +0.000 A 
ATOM      7  N   UNL     1       1.936   8.736  17.606  0.00  0.00    +0.000 NA
ATOM      8  C   UNL     1       1.130   9.381  18.423  0.00  0.00    +0.000 A 
ATOM      9  N   UNL     1       0.294  10.432  18.163  0.00  0.00    +0.000 NA
ENDROOT
BRANCH   6  10
ATOM     10  C   UNL     1       3.442   6.778  17.894  0.00  0.00    +0.000 A 
ATOM     11  C   UNL     1       4.682   7.197  17.411  0.00  0.00    +0.000 A 
ATOM     12  C   UNL     1       5.632   6.280  16.955  0.00  0.00    +0.000 A 
ATOM     13  C   UNL     1       5.322   4.900  16.931  0.00  0.00    +0.000 A 
ATOM     14  C   UNL     1       4.058   4.468  17.395  0.00  0.00    +0.000 A 
ATOM     15  C   UNL     1       3.138   5.414  17.883  0.00  0.00    +0.000 A 
BRANCH  12  16
ATOM     16  O   UNL     1       6.870   6.684  16.494  0.00  0.00    +0.000 OA
ATOM     17  C   UNL     1       7.629   7.487  17.395  0.00  0.00    +0.000 C 
ENDBRANCH  12  16
BRANCH  13  18
ATOM     18  O   UNL     1       6.290   4.098  16.370  0.00  0.00    +0.000 OA
ATOM     19  C   UNL     1       6.214   3.822  14.976  0.00  0.00    +0.000 C 
ENDBRANCH  13  18
BRANCH  14  20
ATOM     20  O   UNL     1       3.763   3.132  17.323  0.00  0.00    +0.000 OA
ATOM     21  C   UNL     1       2.431   2.713  17.590  0.00  0.00    +0.000 C 
ENDBRANCH  14  20
ENDBRANCH   6  10
BRANCH   3  22
ATOM     22  O   UNL     1       0.618   8.749  22.027  0.00  0.00    +0.000 OA
ATOM     23  H   UNL     1      -0.243   8.442  22.352  0.00  0.00    +0.000 HD
ENDBRANCH   3  22
BRANCH   1  24
ATOM     24  C   UNL     1      -1.361  12.043  18.909  0.00  0.00    +0.000 C 
BRANCH  24  26
ATOM     25  C   UNL     1      -0.367  14.361  19.298  0.00  0.00    +0.000 C 
ATOM     26  C   UNL     1      -0.668  13.259  18.292  0.00  0.00    +0.000 C 
ENDBRANCH  24  26
ENDBRANCH   1  24
TORSDOF 7
ENDMDL
