MODEL 1
REMARK VINA RESULT:      -8.3      0.000      0.000
REMARK  Name = 
REMARK  10 active torsions:
REMARK  status: ('A' for Active; 'I' for Inactive)
REMARK    1  A    between atoms: C_1  and  O_2
REMARK    2  A    between atoms: O_2  and  C_3
REMARK    3  A    between atoms: C_3  and  C_5
REMARK    4  A    between atoms: C_8  and  C_9
REMARK    5  A    between atoms: C_10  and  C_11
REMARK    6  A    between atoms: C_11  and  C_13
REMARK    7  A    between atoms: C_19  and  O_20
REMARK    8  A    between atoms: N_23  and  C_24
REMARK    9  A    between atoms: C_24  and  C_25
REMARK   10  A    between atoms: C_25  and  N_26
REMARK                            x       y       z     vdW  Elec       q    Type
REMARK                         _______ _______ _______ _____ _____    ______ ____
ROOT
ATOM      1  C   UNL     1       0.705  10.648  19.705  0.00  0.00    +0.000 C 
ATOM      2  C   UNL     1       0.477  11.019  21.154  0.00  0.00    +0.000 C 
ATOM      3  C   UNL     1       0.666   9.961  21.959  0.00  0.00    +0.000 C 
ATOM      4  C   UNL     1       1.117   8.840  21.135  0.00  0.00    +0.000 C 
ATOM      5  O   UNL     1       1.393   7.704  21.548  0.00  0.00    +0.000 OA
ATOM      6  N   UNL     1       1.211   9.272  19.808  0.00  0.00    +0.000 N 
ENDROOT
BRANCH   1  10
ATOM      7  C   UNL     1      -2.787  10.947  17.117  0.00  0.00    +0.000 A 
ATOM      8  C   UNL     1      -2.588   9.837  17.946  0.00  0.00    +0.000 A 
ATOM      9  C   UNL     1      -1.475   9.769  18.791  0.00  0.00    +0.000 A 
ATOM     10  C   UNL     1      -0.545  10.819  18.852  0.00  0.00    +0.000 A 
ATOM     11  C   UNL     1      -0.782  11.949  18.042  0.00  0.00    +0.000 A 
ATOM     12  C   UNL     1      -1.873  12.003  17.166  0.00  0.00    +0.000 A 
BRANCH   7  13
ATOM     13  C   UNL     1      -3.973  10.951  16.219  0.00  0.00    +0.000 C 
ATOM     14  O   UNL     1      -4.854  11.796  16.278  0.00  0.00    +0.000 OA
BRANCH  13  16
ATOM     15  C   UNL     1      -3.216  10.185  14.146  0.00  0.00    +0.000 C 
ATOM     16  O   UNL     1      -3.929   9.908  15.353  0.00  0.00    +0.000 OA
ENDBRANCH  13  16
ENDBRANCH   7  13
ENDBRANCH   1  10
BRANCH   2  17
ATOM     17  C   UNL     1      -0.098  12.261  21.734  0.00  0.00    +0.000 C 
ATOM     18  O   UNL     1       0.640  13.224  21.954  0.00  0.00    +0.000 OA
BRANCH  17  19
ATOM     19  C   UNL     1      -1.533  12.400  22.066  0.00  0.00    +0.000 A 
ATOM     20  C   UNL     1      -2.441  12.686  21.040  0.00  0.00    +0.000 A 
ATOM     21  C   UNL     1      -3.787  12.758  21.355  0.00  0.00    +0.000 A 
ATOM     22  N   UNL     1      -4.265  12.560  22.600  0.00  0.00    +0.000 NA
ATOM     23  C   UNL     1      -3.372  12.247  23.560  0.00  0.00    +0.000 A 
ATOM     24  C   UNL     1      -2.008  12.142  23.342  0.00  0.00    +0.000 A 
ENDBRANCH  17  19
ENDBRANCH   2  17
BRANCH   3  25
ATOM     25  O   UNL     1       0.435   9.886  23.320  0.00  0.00    +0.000 OA
ATOM     26  H   UNL     1      -0.531   9.768  23.453  0.00  0.00    +0.000 HD
ENDBRANCH   3  25
BRANCH   6  27
ATOM     27  C   UNL     1       1.701   8.323  18.755  0.00  0.00    +0.000 C 
BRANCH  27  28
ATOM     28  C   UNL     1       3.009   7.435  18.882  0.00  0.00    +0.000 C 
BRANCH  28  29
ATOM     29  N   UNL     1       2.833   6.005  18.680  0.00  0.00    +0.000 N 
ATOM     30  C   UNL     1       3.572   5.336  17.755  0.00  0.00    +0.000 A 
ATOM     31  N   UNL     1       2.846   4.395  17.205  0.00  0.00    +0.000 NA
ATOM     32  C   UNL     1       2.050   4.036  18.246  0.00  0.00    +0.000 A 
ATOM     33  C   UNL     1       1.433   2.793  18.408  0.00  0.00    +0.000 A 
ATOM     34  C   UNL     1       1.024   2.431  19.683  0.00  0.00    +0.000 A 
ATOM     35  C   UNL     1       1.080   3.359  20.726  0.00  0.00    +0.000 A 
ATOM     36  C   UNL     1       1.527   4.696  20.541  0.00  0.00    +0.000 A 
ATOM     37  C   UNL     1       2.081   5.001  19.274  0.00  0.00    +0.000 A 
ENDBRANCH  28  29
ENDBRANCH  27  28
ENDBRANCH   6  27
TORSDOF 9
ENDMDL
MODEL 2
REMARK VINA RESULT:      -8.2      1.081      1.659
REMARK  Name = 
REMARK  10 active torsions:
REMARK  status: ('A' for Active; 'I' for Inactive)
REMARK    1  A    between atoms: C_1  and  O_2
REMARK    2  A    between atoms: O_2  and  C_3
REMARK    3  A    between atoms: C_3  and  C_5
REMARK    4  A    between atoms: C_8  and  C_9
REMARK    5  A    between atoms: C_10  and  C_11
REMARK    6  A    between atoms: C_11  and  C_13
REMARK    7  A    between atoms: C_19  and  O_20
REMARK    8  A    between atoms: N_23  and  C_24
REMARK    9  A    between atoms: C_24  and  C_25
REMARK   10  A    between atoms: C_25  and  N_26
REMARK                            x       y       z     vdW  Elec       q    Type
REMARK                         _______ _______ _______ _____ _____    ______ ____
ROOT
ATOM      1  C   UNL     1       0.811  10.471  19.287  0.00  0.00    +0.000 C 
ATOM      2  C   UNL     1       0.722  10.747  20.771  0.00  0.00    +0.000 C 
ATOM      3  C   UNL     1       0.998   9.645  21.486  0.00  0.00    +0.000 C 
ATOM      4  C   UNL     1       1.377   8.584  20.553  0.00  0.00    +0.000 C 
ATOM      5  O   UNL     1       1.702   7.429  20.865  0.00  0.00    +0.000 OA
ATOM      6  N   UNL     1       1.338   9.098  19.253  0.00  0.00    +0.000 N 
ENDROOT
BRANCH   1  10
ATOM      7  C   UNL     1      -2.922  10.868  17.077  0.00  0.00    +0.000 A 
ATOM      8  C   UNL     1      -2.652   9.736  17.853  0.00  0.00    +0.000 A 
ATOM      9  C   UNL     1      -1.460   9.635  18.578  0.00  0.00    +0.000 A 
ATOM     10  C   UNL     1      -0.517  10.675  18.570  0.00  0.00    +0.000 A 
ATOM     11  C   UNL     1      -0.821  11.828  17.818  0.00  0.00    +0.000 A 
ATOM     12  C   UNL     1      -1.996  11.915  17.060  0.00  0.00    +0.000 A 
BRANCH   7  13
ATOM     13  C   UNL     1      -4.193  10.906  16.306  0.00  0.00    +0.000 C 
ATOM     14  O   UNL     1      -4.246  10.750  15.095  0.00  0.00    +0.000 OA
BRANCH  13  16
ATOM     15  C   UNL     1      -5.738  12.475  17.090  0.00  0.00    +0.000 C 
ATOM     16  O   UNL     1      -5.251  11.132  17.125  0.00  0.00    +0.000 OA
ENDBRANCH  13  16
ENDBRANCH   7  13
ENDBRANCH   1  10
BRANCH   2  17
ATOM     17  C   UNL     1       0.194  11.943  21.481  0.00  0.00    +0.000 C 
ATOM     18  O   UNL     1       0.963  12.861  21.773  0.00  0.00    +0.000 OA
BRANCH  17  19
ATOM     19  C   UNL     1      -1.229  12.085  21.860  0.00  0.00    +0.000 A 
ATOM     20  C   UNL     1      -1.611  11.797  23.175  0.00  0.00    +0.000 A 
ATOM     21  C   UNL     1      -2.935  11.987  23.531  0.00  0.00    +0.000 A 
ATOM     22  N   UNL     1      -3.872  12.442  22.675  0.00  0.00    +0.000 NA
ATOM     23  C   UNL     1      -3.466  12.749  21.426  0.00  0.00    +0.000 A 
ATOM     24  C   UNL     1      -2.163  12.602  20.978  0.00  0.00    +0.000 A 
ENDBRANCH  17  19
ENDBRANCH   2  17
BRANCH   3  25
ATOM     25  O   UNL     1       0.900   9.482  22.855  0.00  0.00    +0.000 OA
ATOM     26  H   UNL     1       1.164   8.560  23.067  0.00  0.00    +0.000 HD
ENDBRANCH   3  25
BRANCH   6  27
ATOM     27  C   UNL     1       1.732   8.225  18.101  0.00  0.00    +0.000 C 
BRANCH  27  28
ATOM     28  C   UNL     1       3.221   7.788  17.770  0.00  0.00    +0.000 C 
BRANCH  28  29
ATOM     29  N   UNL     1       3.546   6.390  18.007  0.00  0.00    +0.000 N 
ATOM     30  C   UNL     1       4.751   6.033  18.526  0.00  0.00    +0.000 A 
ATOM     31  N   UNL     1       5.142   4.900  17.996  0.00  0.00    +0.000 NA
ATOM     32  C   UNL     1       3.952   4.275  17.806  0.00  0.00    +0.000 A 
ATOM     33  C   UNL     1       3.760   2.892  17.732  0.00  0.00    +0.000 A 
ATOM     34  C   UNL     1       2.485   2.399  17.966  0.00  0.00    +0.000 A 
ATOM     35  C   UNL     1       1.407   3.279  18.098  0.00  0.00    +0.000 A 
ATOM     36  C   UNL     1       1.549   4.689  17.984  0.00  0.00    +0.000 A 
ATOM     37  C   UNL     1       2.874   5.180  17.899  0.00  0.00    +0.000 A 
ENDBRANCH  28  29
ENDBRANCH  27  28
ENDBRANCH   6  27
TORSDOF 9
ENDMDL
MODEL 3
REMARK VINA RESULT:      -8.0      0.884      1.472
REMARK  Name = 
REMARK  10 active torsions:
REMARK  status: ('A' for Active; 'I' for Inactive)
REMARK    1  A    between atoms: C_1  and  O_2
REMARK    2  A    between atoms: O_2  and  C_3
REMARK    3  A    between atoms: C_3  and  C_5
REMARK    4  A    between atoms: C_8  and  C_9
REMARK    5  A    between atoms: C_10  and  C_11
REMARK    6  A    between atoms: C_11  and  C_13
REMARK    7  A    between atoms: C_19  and  O_20
REMARK    8  A    between atoms: N_23  and  C_24
REMARK    9  A    between atoms: C_24  and  C_25
REMARK   10  A    between atoms: C_25  and  N_26
REMARK                            x       y       z     vdW  Elec       q    Type
REMARK                         _______ _______ _______ _____ _____    ______ ____
ROOT
ATOM      1  C   UNL     1       0.861  10.366  19.353  0.00  0.00    +0.000 C 
ATOM      2  C   UNL     1       0.776  10.749  20.814  0.00  0.00    +0.000 C 
ATOM      3  C   UNL     1       1.030   9.696  21.606  0.00  0.00    +0.000 C 
ATOM      4  C   UNL     1       1.389   8.563  20.752  0.00  0.00    +0.000 C 
ATOM      5  O   UNL     1       1.690   7.428  21.146  0.00  0.00    +0.000 OA
ATOM      6  N   UNL     1       1.361   8.985  19.419  0.00  0.00    +0.000 N 
ENDROOT
BRANCH   1  10
ATOM      7  C   UNL     1      -2.980  11.063  17.419  0.00  0.00    +0.000 A 
ATOM      8  C   UNL     1      -1.940  11.995  17.330  0.00  0.00    +0.000 A 
ATOM      9  C   UNL     1      -0.704  11.745  17.934  0.00  0.00    +0.000 A 
ATOM     10  C   UNL     1      -0.462  10.544  18.621  0.00  0.00    +0.000 A 
ATOM     11  C   UNL     1      -1.506   9.595  18.666  0.00  0.00    +0.000 A 
ATOM     12  C   UNL     1      -2.757   9.860  18.095  0.00  0.00    +0.000 A 
BRANCH   7  13
ATOM     13  C   UNL     1      -4.281  11.397  16.780  0.00  0.00    +0.000 C 
ATOM     14  O   UNL     1      -4.481  11.300  15.579  0.00  0.00    +0.000 OA
BRANCH  13  16
ATOM     15  C   UNL     1      -6.166  12.715  17.196  0.00  0.00    +0.000 C 
ATOM     16  O   UNL     1      -5.183  11.811  17.705  0.00  0.00    +0.000 OA
ENDBRANCH  13  16
ENDBRANCH   7  13
ENDBRANCH   1  10
BRANCH   2  17
ATOM     17  C   UNL     1       0.271  12.003  21.435  0.00  0.00    +0.000 C 
ATOM     18  O   UNL     1       1.046  12.947  21.608  0.00  0.00    +0.000 OA
BRANCH  17  19
ATOM     19  C   UNL     1      -1.134  12.174  21.864  0.00  0.00    +0.000 A 
ATOM     20  C   UNL     1      -2.073  12.638  20.935  0.00  0.00    +0.000 A 
ATOM     21  C   UNL     1      -3.395  12.741  21.334  0.00  0.00    +0.000 A 
ATOM     22  N   UNL     1      -3.822  12.410  22.568  0.00  0.00    +0.000 NA
ATOM     23  C   UNL     1      -2.902  11.928  23.429  0.00  0.00    +0.000 A 
ATOM     24  C   UNL     1      -1.560  11.779  23.122  0.00  0.00    +0.000 A 
ENDBRANCH  17  19
ENDBRANCH   2  17
BRANCH   3  25
ATOM     25  O   UNL     1       0.927   9.633  22.983  0.00  0.00    +0.000 OA
ATOM     26  H   UNL     1      -0.016   9.476  23.206  0.00  0.00    +0.000 HD
ENDBRANCH   3  25
BRANCH   6  27
ATOM     27  C   UNL     1       1.739   8.024  18.332  0.00  0.00    +0.000 C 
BRANCH  27  28
ATOM     28  C   UNL     1       3.195   7.431  18.121  0.00  0.00    +0.000 C 
BRANCH  28  29
ATOM     29  N   UNL     1       3.290   5.981  18.039  0.00  0.00    +0.000 N 
ATOM     30  C   UNL     1       4.438   5.380  17.627  0.00  0.00    +0.000 A 
ATOM     31  N   UNL     1       4.151   4.307  16.932  0.00  0.00    +0.000 NA
ATOM     32  C   UNL     1       3.014   3.892  17.550  0.00  0.00    +0.000 A 
ATOM     33  C   UNL     1       2.533   2.581  17.574  0.00  0.00    +0.000 A 
ATOM     34  C   UNL     1       1.632   2.237  18.571  0.00  0.00    +0.000 A 
ATOM     35  C   UNL     1       1.103   3.223  19.408  0.00  0.00    +0.000 A 
ATOM     36  C   UNL     1       1.435   4.600  19.277  0.00  0.00    +0.000 A 
ATOM     37  C   UNL     1       2.467   4.911  18.358  0.00  0.00    +0.000 A 
ENDBRANCH  28  29
ENDBRANCH  27  28
ENDBRANCH   6  27
TORSDOF 9
ENDMDL
MODEL 4
REMARK VINA RESULT:      -8.0      1.010      1.572
REMARK  Name = 
REMARK  10 active torsions:
REMARK  status: ('A' for Active; 'I' for Inactive)
REMARK    1  A    between atoms: C_1  and  O_2
REMARK    2  A    between atoms: O_2  and  C_3
REMARK    3  A    between atoms: C_3  and  C_5
REMARK    4  A    between atoms: C_8  and  C_9
REMARK    5  A    between atoms: C_10  and  C_11
REMARK    6  A    between atoms: C_11  and  C_13
REMARK    7  A    between atoms: C_19  and  O_20
REMARK    8  A    between atoms: N_23  and  C_24
REMARK    9  A    between atoms: C_24  and  C_25
REMARK   10  A    between atoms: C_25  and  N_26
REMARK                            x       y       z     vdW  Elec       q    Type
REMARK                         _______ _______ _______ _____ _____    ______ ____
ROOT
ATOM      1  C   UNL     1       0.727  10.602  19.557  0.00  0.00    +0.000 C 
ATOM      2  C   UNL     1       0.543  10.961  21.015  0.00  0.00    +0.000 C 
ATOM      3  C   UNL     1       0.741   9.894  21.805  0.00  0.00    +0.000 C 
ATOM      4  C   UNL     1       1.157   8.775  20.959  0.00  0.00    +0.000 C 
ATOM      5  O   UNL     1       1.430   7.633  21.354  0.00  0.00    +0.000 OA
ATOM      6  N   UNL     1       1.220   9.218  19.634  0.00  0.00    +0.000 N 
ENDROOT
BRANCH   1  10
ATOM      7  C   UNL     1      -2.821  10.977  17.056  0.00  0.00    +0.000 A 
ATOM      8  C   UNL     1      -2.574   9.819  17.801  0.00  0.00    +0.000 A 
ATOM      9  C   UNL     1      -1.444   9.724  18.620  0.00  0.00    +0.000 A 
ATOM     10  C   UNL     1      -0.543  10.794  18.739  0.00  0.00    +0.000 A 
ATOM     11  C   UNL     1      -0.827  11.972  18.016  0.00  0.00    +0.000 A 
ATOM     12  C   UNL     1      -1.937  12.055  17.165  0.00  0.00    +0.000 A 
BRANCH   7  13
ATOM     13  C   UNL     1      -4.024  11.009  16.182  0.00  0.00    +0.000 C 
ATOM     14  O   UNL     1      -4.120  10.356  15.154  0.00  0.00    +0.000 OA
BRANCH  13  16
ATOM     15  C   UNL     1      -5.688  11.308  17.794  0.00  0.00    +0.000 C 
ATOM     16  O   UNL     1      -4.966  11.845  16.684  0.00  0.00    +0.000 OA
ENDBRANCH  13  16
ENDBRANCH   7  13
ENDBRANCH   1  10
BRANCH   2  17
ATOM     17  C   UNL     1      -0.002  12.205  21.621  0.00  0.00    +0.000 C 
ATOM     18  O   UNL     1       0.753  13.158  21.826  0.00  0.00    +0.000 OA
BRANCH  17  19
ATOM     19  C   UNL     1      -1.425  12.355  21.997  0.00  0.00    +0.000 A 
ATOM     20  C   UNL     1      -2.356  12.678  21.004  0.00  0.00    +0.000 A 
ATOM     21  C   UNL     1      -3.692  12.762  21.359  0.00  0.00    +0.000 A 
ATOM     22  N   UNL     1      -4.139  12.541  22.611  0.00  0.00    +0.000 NA
ATOM     23  C   UNL     1      -3.223  12.192  23.538  0.00  0.00    +0.000 A 
ATOM     24  C   UNL     1      -1.867  12.073  23.279  0.00  0.00    +0.000 A 
ENDBRANCH  17  19
ENDBRANCH   2  17
BRANCH   3  25
ATOM     25  O   UNL     1       0.545   9.809  23.170  0.00  0.00    +0.000 OA
ATOM     26  H   UNL     1       0.912   8.949  23.473  0.00  0.00    +0.000 HD
ENDBRANCH   3  25
BRANCH   6  27
ATOM     27  C   UNL     1       1.670   8.274  18.560  0.00  0.00    +0.000 C 
BRANCH  27  28
ATOM     28  C   UNL     1       3.125   8.259  17.926  0.00  0.00    +0.000 C 
BRANCH  28  29
ATOM     29  N   UNL     1       3.708   6.946  17.696  0.00  0.00    +0.000 N 
ATOM     30  C   UNL     1       4.986   6.820  17.248  0.00  0.00    +0.000 A 
ATOM     31  N   UNL     1       5.072   5.793  16.439  0.00  0.00    +0.000 NA
ATOM     32  C   UNL     1       4.155   4.953  16.985  0.00  0.00    +0.000 A 
ATOM     33  C   UNL     1       4.151   3.561  16.862  0.00  0.00    +0.000 A 
ATOM     34  C   UNL     1       3.437   2.827  17.797  0.00  0.00    +0.000 A 
ATOM     35  C   UNL     1       2.617   3.479  18.722  0.00  0.00    +0.000 A 
ATOM     36  C   UNL     1       2.456   4.892  18.742  0.00  0.00    +0.000 A 
ATOM     37  C   UNL     1       3.305   5.631  17.884  0.00  0.00    +0.000 A 
ENDBRANCH  28  29
ENDBRANCH  27  28
ENDBRANCH   6  27
TORSDOF 9
ENDMDL
MODEL 5
REMARK VINA RESULT:      -7.9      1.084      2.423
REMARK  Name = 
REMARK  10 active torsions:
REMARK  status: ('A' for Active; 'I' for Inactive)
REMARK    1  A    between atoms: C_1  and  O_2
REMARK    2  A    between atoms: O_2  and  C_3
REMARK    3  A    between atoms: C_3  and  C_5
REMARK    4  A    between atoms: C_8  and  C_9
REMARK    5  A    between atoms: C_10  and  C_11
REMARK    6  A    between atoms: C_11  and  C_13
REMARK    7  A    between atoms: C_19  and  O_20
REMARK    8  A    between atoms: N_23  and  C_24
REMARK    9  A    between atoms: C_24  and  C_25
REMARK   10  A    between atoms: C_25  and  N_26
REMARK                            x       y       z     vdW  Elec       q    Type
REMARK                         _______ _______ _______ _____ _____    ______ ____
ROOT
ATOM      1  C   UNL     1       0.730  10.571  19.833  0.00  0.00    +0.000 C 
ATOM      2  C   UNL     1       0.378  11.046  21.225  0.00  0.00    +0.000 C 
ATOM      3  C   UNL     1       0.514  10.057  22.122  0.00  0.00    +0.000 C 
ATOM      4  C   UNL     1       1.048   8.885  21.427  0.00  0.00    +0.000 C 
ATOM      5  O   UNL     1       1.304   7.790  21.948  0.00  0.00    +0.000 OA
ATOM      6  N   UNL     1       1.245   9.217  20.083  0.00  0.00    +0.000 N 
ENDROOT
BRANCH   1  10
ATOM      7  C   UNL     1      -2.736  10.981  17.224  0.00  0.00    +0.000 A 
ATOM      8  C   UNL     1      -1.771  11.990  17.317  0.00  0.00    +0.000 A 
ATOM      9  C   UNL     1      -0.650  11.832  18.139  0.00  0.00    +0.000 A 
ATOM     10  C   UNL     1      -0.448  10.650  18.870  0.00  0.00    +0.000 A 
ATOM     11  C   UNL     1      -1.407   9.625  18.733  0.00  0.00    +0.000 A 
ATOM     12  C   UNL     1      -2.549   9.796  17.942  0.00  0.00    +0.000 A 
BRANCH   7  13
ATOM     13  C   UNL     1      -3.920  11.217  16.356  0.00  0.00    +0.000 C 
ATOM     14  O   UNL     1      -4.066  10.687  15.265  0.00  0.00    +0.000 OA
BRANCH  13  16
ATOM     15  C   UNL     1      -5.775  11.450  17.759  0.00  0.00    +0.000 C 
ATOM     16  O   UNL     1      -4.786  12.081  16.942  0.00  0.00    +0.000 OA
ENDBRANCH  13  16
ENDBRANCH   7  13
ENDBRANCH   1  10
BRANCH   2  17
ATOM     17  C   UNL     1      -0.260  12.318  21.658  0.00  0.00    +0.000 C 
ATOM     18  O   UNL     1       0.435  13.326  21.799  0.00  0.00    +0.000 OA
BRANCH  17  19
ATOM     19  C   UNL     1      -1.710  12.432  21.932  0.00  0.00    +0.000 A 
ATOM     20  C   UNL     1      -2.590  12.607  20.858  0.00  0.00    +0.000 A 
ATOM     21  C   UNL     1      -3.948  12.658  21.124  0.00  0.00    +0.000 A 
ATOM     22  N   UNL     1      -4.463  12.541  22.364  0.00  0.00    +0.000 NA
ATOM     23  C   UNL     1      -3.593  12.333  23.374  0.00  0.00    +0.000 A 
ATOM     24  C   UNL     1      -2.220  12.258  23.208  0.00  0.00    +0.000 A 
ENDBRANCH  17  19
ENDBRANCH   2  17
BRANCH   3  25
ATOM     25  O   UNL     1       0.172  10.082  23.461  0.00  0.00    +0.000 OA
ATOM     26  H   UNL     1      -0.628   9.524  23.576  0.00  0.00    +0.000 HD
ENDBRANCH   3  25
BRANCH   6  27
ATOM     27  C   UNL     1       1.833   8.201  19.150  0.00  0.00    +0.000 C 
BRANCH  27  28
ATOM     28  C   UNL     1       2.392   6.785  19.598  0.00  0.00    +0.000 C 
BRANCH  28  29
ATOM     29  N   UNL     1       2.810   5.894  18.525  0.00  0.00    +0.000 N 
ATOM     30  C   UNL     1       2.060   4.811  18.188  0.00  0.00    +0.000 A 
ATOM     31  N   UNL     1       2.844   3.823  17.836  0.00  0.00    +0.000 NA
ATOM     32  C   UNL     1       3.875   4.497  17.264  0.00  0.00    +0.000 A 
ATOM     33  C   UNL     1       4.747   3.986  16.299  0.00  0.00    +0.000 A 
ATOM     34  C   UNL     1       5.450   4.887  15.514  0.00  0.00    +0.000 A 
ATOM     35  C   UNL     1       5.406   6.254  15.806  0.00  0.00    +0.000 A 
ATOM     36  C   UNL     1       4.674   6.779  16.906  0.00  0.00    +0.000 A 
ATOM     37  C   UNL     1       3.844   5.867  17.601  0.00  0.00    +0.000 A 
ENDBRANCH  28  29
ENDBRANCH  27  28
ENDBRANCH   6  27
TORSDOF 9
ENDMDL
MODEL 6
REMARK VINA RESULT:      -7.9      1.129      2.417
REMARK  Name = 
REMARK  10 active torsions:
REMARK  status: ('A' for Active; 'I' for Inactive)
REMARK    1  A    between atoms: C_1  and  O_2
REMARK    2  A    between atoms: O_2  and  C_3
REMARK    3  A    between atoms: C_3  and  C_5
REMARK    4  A    between atoms: C_8  and  C_9
REMARK    5  A    between atoms: C_10  and  C_11
REMARK    6  A    between atoms: C_11  and  C_13
REMARK    7  A    between atoms: C_19  and  O_20
REMARK    8  A    between atoms: N_23  and  C_24
REMARK    9  A    between atoms: C_24  and  C_25
REMARK   10  A    between atoms: C_25  and  N_26
REMARK                            x       y       z     vdW  Elec       q    Type
REMARK                         _______ _______ _______ _____ _____    ______ ____
ROOT
ATOM      1  C   UNL     1       0.661  10.680  20.005  0.00  0.00    +0.000 C 
ATOM      2  C   UNL     1       0.268  11.070  21.413  0.00  0.00    +0.000 C 
ATOM      3  C   UNL     1       0.384  10.029  22.253  0.00  0.00    +0.000 C 
ATOM      4  C   UNL     1       0.940   8.902  21.504  0.00  0.00    +0.000 C 
ATOM      5  O   UNL     1       1.186   7.779  21.966  0.00  0.00    +0.000 OA
ATOM      6  N   UNL     1       1.174   9.314  20.188  0.00  0.00    +0.000 N 
ENDROOT
BRANCH   1  10
ATOM      7  C   UNL     1      -2.520  10.885  17.034  0.00  0.00    +0.000 A 
ATOM      8  C   UNL     1      -2.360   9.762  17.854  0.00  0.00    +0.000 A 
ATOM      9  C   UNL     1      -1.350   9.723  18.821  0.00  0.00    +0.000 A 
ATOM     10  C   UNL     1      -0.489  10.814  19.016  0.00  0.00    +0.000 A 
ATOM     11  C   UNL     1      -0.689  11.956  18.211  0.00  0.00    +0.000 A 
ATOM     12  C   UNL     1      -1.674  11.983  17.216  0.00  0.00    +0.000 A 
BRANCH   7  13
ATOM     13  C   UNL     1      -3.593  10.858  16.005  0.00  0.00    +0.000 C 
ATOM     14  O   UNL     1      -3.593  10.085  15.059  0.00  0.00    +0.000 OA
BRANCH  13  16
ATOM     15  C   UNL     1      -5.380  11.470  17.379  0.00  0.00    +0.000 C 
ATOM     16  O   UNL     1      -4.541  11.791  16.269  0.00  0.00    +0.000 OA
ENDBRANCH  13  16
ENDBRANCH   7  13
ENDBRANCH   1  10
BRANCH   2  17
ATOM     17  C   UNL     1      -0.386  12.312  21.903  0.00  0.00    +0.000 C 
ATOM     18  O   UNL     1       0.300  13.314  22.115  0.00  0.00    +0.000 OA
BRANCH  17  19
ATOM     19  C   UNL     1      -1.841  12.405  22.152  0.00  0.00    +0.000 A 
ATOM     20  C   UNL     1      -2.306  12.362  23.471  0.00  0.00    +0.000 A 
ATOM     21  C   UNL     1      -3.665  12.505  23.694  0.00  0.00    +0.000 A 
ATOM     22  N   UNL     1      -4.560  12.689  22.703  0.00  0.00    +0.000 NA
ATOM     23  C   UNL     1      -4.079  12.766  21.445  0.00  0.00    +0.000 A 
ATOM     24  C   UNL     1      -2.737  12.645  21.123  0.00  0.00    +0.000 A 
ENDBRANCH  17  19
ENDBRANCH   2  17
BRANCH   3  25
ATOM     25  O   UNL     1       0.004   9.973  23.581  0.00  0.00    +0.000 OA
ATOM     26  H   UNL     1       0.794   9.722  24.108  0.00  0.00    +0.000 HD
ENDBRANCH   3  25
BRANCH   6  27
ATOM     27  C   UNL     1       1.792   8.357  19.213  0.00  0.00    +0.000 C 
BRANCH  27  28
ATOM     28  C   UNL     1       2.419   6.953  19.604  0.00  0.00    +0.000 C 
BRANCH  28  29
ATOM     29  N   UNL     1       2.810   6.096  18.496  0.00  0.00    +0.000 N 
ATOM     30  C   UNL     1       1.994   5.097  18.066  0.00  0.00    +0.000 A 
ATOM     31  N   UNL     1       2.713   4.072  17.682  0.00  0.00    +0.000 NA
ATOM     32  C   UNL     1       3.815   4.694  17.190  0.00  0.00    +0.000 A 
ATOM     33  C   UNL     1       4.684   4.173  16.228  0.00  0.00    +0.000 A 
ATOM     34  C   UNL     1       5.486   5.060  15.526  0.00  0.00    +0.000 A 
ATOM     35  C   UNL     1       5.535   6.406  15.899  0.00  0.00    +0.000 A 
ATOM     36  C   UNL     1       4.801   6.923  17.001  0.00  0.00    +0.000 A 
ATOM     37  C   UNL     1       3.876   6.040  17.609  0.00  0.00    +0.000 A 
ENDBRANCH  28  29
ENDBRANCH  27  28
ENDBRANCH   6  27
TORSDOF 9
ENDMDL
MODEL 7
REMARK VINA RESULT:      -7.9      1.940      2.398
REMARK  Name = 
REMARK  10 active torsions:
REMARK  status: ('A' for Active; 'I' for Inactive)
REMARK    1  A    between atoms: C_1  and  O_2
REMARK    2  A    between atoms: O_2  and  C_3
REMARK    3  A    between atoms: C_3  and  C_5
REMARK    4  A    between atoms: C_8  and  C_9
REMARK    5  A    between atoms: C_10  and  C_11
REMARK    6  A    between atoms: C_11  and  C_13
REMARK    7  A    between atoms: C_19  and  O_20
REMARK    8  A    between atoms: N_23  and  C_24
REMARK    9  A    between atoms: C_24  and  C_25
REMARK   10  A    between atoms: C_25  and  N_26
REMARK                            x       y       z     vdW  Elec       q    Type
REMARK                         _______ _______ _______ _____ _____    ______ ____
ROOT
ATOM      1  C   UNL     1       0.951  10.409  19.433  0.00  0.00    +0.000 C 
ATOM      2  C   UNL     1       0.845  10.636  20.924  0.00  0.00    +0.000 C 
ATOM      3  C   UNL     1       1.060   9.498  21.603  0.00  0.00    +0.000 C 
ATOM      4  C   UNL     1       1.411   8.455  20.639  0.00  0.00    +0.000 C 
ATOM      5  O   UNL     1       1.679   7.277  20.914  0.00  0.00    +0.000 OA
ATOM      6  N   UNL     1       1.419   9.017  19.358  0.00  0.00    +0.000 N 
ENDROOT
BRANCH   1  10
ATOM      7  C   UNL     1      -2.712  11.060  17.165  0.00  0.00    +0.000 A 
ATOM      8  C   UNL     1      -2.480   9.860  17.846  0.00  0.00    +0.000 A 
ATOM      9  C   UNL     1      -1.311   9.676  18.592  0.00  0.00    +0.000 A 
ATOM     10  C   UNL     1      -0.353  10.697  18.701  0.00  0.00    +0.000 A 
ATOM     11  C   UNL     1      -0.620  11.917  18.044  0.00  0.00    +0.000 A 
ATOM     12  C   UNL     1      -1.771  12.089  17.265  0.00  0.00    +0.000 A 
BRANCH   7  13
ATOM     13  C   UNL     1      -3.960  11.186  16.366  0.00  0.00    +0.000 C 
ATOM     14  O   UNL     1      -5.076  11.161  16.862  0.00  0.00    +0.000 OA
BRANCH  13  16
ATOM     15  C   UNL     1      -3.478  10.096  14.357  0.00  0.00    +0.000 C 
ATOM     16  O   UNL     1      -3.678  11.330  15.048  0.00  0.00    +0.000 OA
ENDBRANCH  13  16
ENDBRANCH   7  13
ENDBRANCH   1  10
BRANCH   2  17
ATOM     17  C   UNL     1       0.357  11.827  21.668  0.00  0.00    +0.000 C 
ATOM     18  O   UNL     1      -0.314  11.669  22.690  0.00  0.00    +0.000 OA
BRANCH  17  19
ATOM     19  C   UNL     1       0.641  13.213  21.234  0.00  0.00    +0.000 A 
ATOM     20  C   UNL     1       1.943  13.547  20.847  0.00  0.00    +0.000 A 
ATOM     21  C   UNL     1       2.183  14.833  20.391  0.00  0.00    +0.000 A 
ATOM     22  N   UNL     1       1.222  15.774  20.296  0.00  0.00    +0.000 NA
ATOM     23  C   UNL     1      -0.031  15.411  20.638  0.00  0.00    +0.000 A 
ATOM     24  C   UNL     1      -0.372  14.148  21.096  0.00  0.00    +0.000 A 
ENDBRANCH  17  19
ENDBRANCH   2  17
BRANCH   3  25
ATOM     25  O   UNL     1       0.929   9.290  22.963  0.00  0.00    +0.000 OA
ATOM     26  H   UNL     1       0.057   9.650  23.238  0.00  0.00    +0.000 HD
ENDBRANCH   3  25
BRANCH   6  27
ATOM     27  C   UNL     1       1.797   8.169  18.181  0.00  0.00    +0.000 C 
BRANCH  27  28
ATOM     28  C   UNL     1       3.273   7.688  17.855  0.00  0.00    +0.000 C 
BRANCH  28  29
ATOM     29  N   UNL     1       3.558   6.284  18.106  0.00  0.00    +0.000 N 
ATOM     30  C   UNL     1       4.722   5.904  18.699  0.00  0.00    +0.000 A 
ATOM     31  N   UNL     1       5.128   4.767  18.191  0.00  0.00    +0.000 NA
ATOM     32  C   UNL     1       3.941   4.163  17.922  0.00  0.00    +0.000 A 
ATOM     33  C   UNL     1       3.732   2.784  17.830  0.00  0.00    +0.000 A 
ATOM     34  C   UNL     1       2.437   2.311  17.980  0.00  0.00    +0.000 A 
ATOM     35  C   UNL     1       1.367   3.208  18.047  0.00  0.00    +0.000 A 
ATOM     36  C   UNL     1       1.539   4.616  17.949  0.00  0.00    +0.000 A 
ATOM     37  C   UNL     1       2.875   5.086  17.950  0.00  0.00    +0.000 A 
ENDBRANCH  28  29
ENDBRANCH  27  28
ENDBRANCH   6  27
TORSDOF 9
ENDMDL
MODEL 8
REMARK VINA RESULT:      -7.9      4.356      8.487
REMARK  Name = 
REMARK  10 active torsions:
REMARK  status: ('A' for Active; 'I' for Inactive)
REMARK    1  A    between atoms: C_1  and  O_2
REMARK    2  A    between atoms: O_2  and  C_3
REMARK    3  A    between atoms: C_3  and  C_5
REMARK    4  A    between atoms: C_8  and  C_9
REMARK    5  A    between atoms: C_10  and  C_11
REMARK    6  A    between atoms: C_11  and  C_13
REMARK    7  A    between atoms: C_19  and  O_20
REMARK    8  A    between atoms: N_23  and  C_24
REMARK    9  A    between atoms: C_24  and  C_25
REMARK   10  A    between atoms: C_25  and  N_26
REMARK                            x       y       z     vdW  Elec       q    Type
REMARK                         _______ _______ _______ _____ _____    ______ ____
ROOT
ATOM      1  C   UNL     1      -1.187  12.477  20.717  0.00  0.00    +0.000 C 
ATOM      2  C   UNL     1      -0.881  11.099  20.174  0.00  0.00    +0.000 C 
ATOM      3  C   UNL     1      -0.497  10.266  21.154  0.00  0.00    +0.000 C 
ATOM      4  C   UNL     1      -0.601  10.984  22.425  0.00  0.00    +0.000 C 
ATOM      5  O   UNL     1      -0.331  10.521  23.542  0.00  0.00    +0.000 OA
ATOM      6  N   UNL     1      -1.083  12.273  22.170  0.00  0.00    +0.000 N 
ENDROOT
BRANCH   1  10
ATOM      7  C   UNL     1       1.379  15.460  18.847  0.00  0.00    +0.000 A 
ATOM      8  C   UNL     1      -0.012  15.502  18.702  0.00  0.00    +0.000 A 
ATOM      9  C   UNL     1      -0.824  14.553  19.331  0.00  0.00    +0.000 A 
ATOM     10  C   UNL     1      -0.272  13.551  20.144  0.00  0.00    +0.000 A 
ATOM     11  C   UNL     1       1.129  13.546  20.316  0.00  0.00    +0.000 A 
ATOM     12  C   UNL     1       1.947  14.471  19.656  0.00  0.00    +0.000 A 
BRANCH   7  13
ATOM     13  C   UNL     1       2.192  16.479  18.132  0.00  0.00    +0.000 C 
ATOM     14  O   UNL     1       3.196  16.205  17.491  0.00  0.00    +0.000 OA
BRANCH  13  16
ATOM     15  C   UNL     1       1.282  18.352  17.071  0.00  0.00    +0.000 C 
ATOM     16  O   UNL     1       1.667  17.719  18.293  0.00  0.00    +0.000 OA
ENDBRANCH  13  16
ENDBRANCH   7  13
ENDBRANCH   1  10
BRANCH   2  17
ATOM     17  C   UNL     1      -0.755  10.644  18.763  0.00  0.00    +0.000 C 
ATOM     18  O   UNL     1       0.343  10.272  18.344  0.00  0.00    +0.000 OA
BRANCH  17  19
ATOM     19  C   UNL     1      -1.899  10.618  17.826  0.00  0.00    +0.000 A 
ATOM     20  C   UNL     1      -2.963  11.503  18.032  0.00  0.00    +0.000 A 
ATOM     21  C   UNL     1      -4.002  11.506  17.116  0.00  0.00    +0.000 A 
ATOM     22  N   UNL     1      -4.034  10.704  16.034  0.00  0.00    +0.000 NA
ATOM     23  C   UNL     1      -2.976   9.889  15.839  0.00  0.00    +0.000 A 
ATOM     24  C   UNL     1      -1.887   9.821  16.693  0.00  0.00    +0.000 A 
ENDBRANCH  17  19
ENDBRANCH   2  17
BRANCH   3  25
ATOM     25  O   UNL     1      -0.027   8.973  21.025  0.00  0.00    +0.000 OA
ATOM     26  H   UNL     1       0.115   8.614  21.929  0.00  0.00    +0.000 HD
ENDBRANCH   3  25
BRANCH   6  27
ATOM     27  C   UNL     1      -1.329  13.209  23.314  0.00  0.00    +0.000 C 
BRANCH  27  28
ATOM     28  C   UNL     1      -2.507  14.271  23.371  0.00  0.00    +0.000 C 
BRANCH  28  29
ATOM     29  N   UNL     1      -3.793  13.774  23.838  0.00  0.00    +0.000 N 
ATOM     30  C   UNL     1      -3.866  12.700  24.668  0.00  0.00    +0.000 A 
ATOM     31  N   UNL     1      -4.929  11.990  24.381  0.00  0.00    +0.000 NA
ATOM     32  C   UNL     1      -5.792  12.960  23.983  0.00  0.00    +0.000 A 
ATOM     33  C   UNL     1      -7.186  12.877  24.025  0.00  0.00    +0.000 A 
ATOM     34  C   UNL     1      -7.910  14.060  24.001  0.00  0.00    +0.000 A 
ATOM     35  C   UNL     1      -7.258  15.275  23.770  0.00  0.00    +0.000 A 
ATOM     36  C   UNL     1      -5.859  15.362  23.533  0.00  0.00    +0.000 A 
ATOM     37  C   UNL     1      -5.117  14.169  23.711  0.00  0.00    +0.000 A 
ENDBRANCH  28  29
ENDBRANCH  27  28
ENDBRANCH   6  27
TORSDOF 9
ENDMDL
MODEL 9
REMARK VINA RESULT:      -7.9      1.294      2.381
REMARK  Name = 
REMARK  10 active torsions:
REMARK  status: ('A' for Active; 'I' for Inactive)
REMARK    1  A    between atoms: C_1  and  O_2
REMARK    2  A    between atoms: O_2  and  C_3
REMARK    3  A    between atoms: C_3  and  C_5
REMARK    4  A    between atoms: C_8  and  C_9
REMARK    5  A    between atoms: C_10  and  C_11
REMARK    6  A    between atoms: C_11  and  C_13
REMARK    7  A    between atoms: C_19  and  O_20
REMARK    8  A    between atoms: N_23  and  C_24
REMARK    9  A    between atoms: C_24  and  C_25
REMARK   10  A    between atoms: C_25  and  N_26
REMARK                            x       y       z     vdW  Elec       q    Type
REMARK                         _______ _______ _______ _____ _____    ______ ____
ROOT
ATOM      1  C   UNL     1       0.741  10.611  19.496  0.00  0.00    +0.000 C 
ATOM      2  C   UNL     1       0.576  10.991  20.951  0.00  0.00    +0.000 C 
ATOM      3  C   UNL     1       0.767   9.931  21.752  0.00  0.00    +0.000 C 
ATOM      4  C   UNL     1       1.157   8.796  20.916  0.00  0.00    +0.000 C 
ATOM      5  O   UNL     1       1.418   7.654  21.322  0.00  0.00    +0.000 OA
ATOM      6  N   UNL     1       1.214   9.222  19.585  0.00  0.00    +0.000 N 
ENDROOT
BRANCH   1  10
ATOM      7  C   UNL     1      -2.829  11.003  17.030  0.00  0.00    +0.000 A 
ATOM      8  C   UNL     1      -2.613   9.871  17.825  0.00  0.00    +0.000 A 
ATOM      9  C   UNL     1      -1.475   9.773  18.632  0.00  0.00    +0.000 A 
ATOM     10  C   UNL     1      -0.534  10.813  18.688  0.00  0.00    +0.000 A 
ATOM     11  C   UNL     1      -0.786  11.966  17.915  0.00  0.00    +0.000 A 
ATOM     12  C   UNL     1      -1.905  12.050  17.076  0.00  0.00    +0.000 A 
BRANCH   7  13
ATOM     13  C   UNL     1      -4.044  11.039  16.172  0.00  0.00    +0.000 C 
ATOM     14  O   UNL     1      -4.917  11.886  16.284  0.00  0.00    +0.000 OA
BRANCH  13  16
ATOM     15  C   UNL     1      -3.122  10.212  14.191  0.00  0.00    +0.000 C 
ATOM     16  O   UNL     1      -4.033  10.022  15.275  0.00  0.00    +0.000 OA
ENDBRANCH  13  16
ENDBRANCH   7  13
ENDBRANCH   1  10
BRANCH   2  17
ATOM     17  C   UNL     1       0.056  12.250  21.548  0.00  0.00    +0.000 C 
ATOM     18  O   UNL     1       0.818  13.206  21.702  0.00  0.00    +0.000 OA
BRANCH  17  19
ATOM     19  C   UNL     1      -1.352  12.412  21.971  0.00  0.00    +0.000 A 
ATOM     20  C   UNL     1      -1.631  12.622  23.326  0.00  0.00    +0.000 A 
ATOM     21  C   UNL     1      -2.948  12.827  23.702  0.00  0.00    +0.000 A 
ATOM     22  N   UNL     1      -3.972  12.841  22.825  0.00  0.00    +0.000 NA
ATOM     23  C   UNL     1      -3.669  12.675  21.521  0.00  0.00    +0.000 A 
ATOM     24  C   UNL     1      -2.383  12.473  21.047  0.00  0.00    +0.000 A 
ENDBRANCH  17  19
ENDBRANCH   2  17
BRANCH   3  25
ATOM     25  O   UNL     1       0.583   9.865  23.120  0.00  0.00    +0.000 OA
ATOM     26  H   UNL     1      -0.181   9.272  23.292  0.00  0.00    +0.000 HD
ENDBRANCH   3  25
BRANCH   6  27
ATOM     27  C   UNL     1       1.640   8.259  18.518  0.00  0.00    +0.000 C 
BRANCH  27  28
ATOM     28  C   UNL     1       3.148   7.974  18.111  0.00  0.00    +0.000 C 
BRANCH  28  29
ATOM     29  N   UNL     1       3.445   6.622  17.666  0.00  0.00    +0.000 N 
ATOM     30  C   UNL     1       2.621   5.587  17.982  0.00  0.00    +0.000 A 
ATOM     31  N   UNL     1       3.330   4.504  18.185  0.00  0.00    +0.000 NA
ATOM     32  C   UNL     1       4.350   4.690  17.308  0.00  0.00    +0.000 A 
ATOM     33  C   UNL     1       5.127   3.679  16.736  0.00  0.00    +0.000 A 
ATOM     34  C   UNL     1       5.817   3.970  15.569  0.00  0.00    +0.000 A 
ATOM     35  C   UNL     1       5.860   5.282  15.090  0.00  0.00    +0.000 A 
ATOM     36  C   UNL     1       5.233   6.366  15.763  0.00  0.00    +0.000 A 
ATOM     37  C   UNL     1       4.410   6.028  16.864  0.00  0.00    +0.000 A 
ENDBRANCH  28  29
ENDBRANCH  27  28
ENDBRANCH   6  27
TORSDOF 9
ENDMDL
