MODEL 1
REMARK VINA RESULT:      -8.8      0.000      0.000
REMARK  Name = 
REMARK  10 active torsions:
REMARK  status: ('A' for Active; 'I' for Inactive)
REMARK    1  A    between atoms: C_1  and  C_2
REMARK    2  A    between atoms: C_2  and  C_3
REMARK    3  A    between atoms: C_2  and  O_4
REMARK    4  A    between atoms: C_2  and  C_5
REMARK    5  A    between atoms: C_5  and  C_6
REMARK    6  A    between atoms: C_6  and  C_7
REMARK    7  A    between atoms: C_8  and  C_9
REMARK    8  A    between atoms: C_21  and  O_22
REMARK    9  A    between atoms: C_28  and  C_29
REMARK   10  A    between atoms: C_28  and  C_30
REMARK                            x       y       z     vdW  Elec       q    Type
REMARK                         _______ _______ _______ _____ _____    ______ ____
ROOT
ATOM      1  C   UNL     1       3.795   5.315  18.966  0.00  0.00    +0.000 A 
ATOM      2  C   UNL     1       4.028   5.869  17.747  0.00  0.00    +0.000 A 
ATOM      3  O   UNL     1       3.423   7.064  17.334  0.00  0.00    +0.000 OA
ATOM      4  C   UNL     1       2.682   7.799  18.233  0.00  0.00    +0.000 A 
ATOM      5  C   UNL     1       2.280   9.083  17.854  0.00  0.00    +0.000 A 
ATOM      6  C   UNL     1       1.453   9.850  18.693  0.00  0.00    +0.000 A 
ATOM      7  C   UNL     1       1.041   9.358  19.937  0.00  0.00    +0.000 A 
ATOM      8  C   UNL     1       1.491   8.085  20.331  0.00  0.00    +0.000 A 
ATOM      9  C   UNL     1       2.300   7.308  19.473  0.00  0.00    +0.000 A 
ATOM     10  C   UNL     1       2.748   5.953  19.817  0.00  0.00    +0.000 A 
ATOM     11  O   UNL     1       2.269   5.345  20.775  0.00  0.00    +0.000 OA
ATOM     12  C   UNL     1       0.171  10.188  20.770  0.00  0.00    +0.000 C 
ATOM     13  C   UNL     1      -0.278  11.341  20.273  0.00  0.00    +0.000 C 
ATOM     14  C   UNL     1       0.116  11.865  18.917  0.00  0.00    +0.000 C 
ATOM     15  C   UNL     1      -1.122  11.937  18.015  0.00  0.00    +0.000 C 
ATOM     16  C   UNL     1       0.708  13.267  19.108  0.00  0.00    +0.000 C 
ATOM     17  O   UNL     1       1.107  11.087  18.212  0.00  0.00    +0.000 OA
ENDROOT
BRANCH   2  18
ATOM     18  C   UNL     1       5.083   5.380  16.798  0.00  0.00    +0.000 A 
ATOM     19  C   UNL     1       4.656   4.586  15.715  0.00  0.00    +0.000 A 
ATOM     20  C   UNL     1       5.470   4.369  14.595  0.00  0.00    +0.000 A 
ATOM     21  C   UNL     1       6.709   4.989  14.506  0.00  0.00    +0.000 A 
ATOM     22  C   UNL     1       7.207   5.662  15.615  0.00  0.00    +0.000 A 
ATOM     23  C   UNL     1       6.441   5.755  16.790  0.00  0.00    +0.000 A 
ATOM     24 BR   UNL     1       7.401   6.261  18.354  0.00  0.00    +0.000 Br
ENDBRANCH   2  18
BRANCH   8  25
ATOM     25  O   UNL     1       1.178   7.592  21.573  0.00  0.00    +0.000 OA
ATOM     26  H   UNL     1       1.112   8.306  22.222  0.00  0.00    +0.000 HD
ENDBRANCH   8  25
BRANCH   1  27
ATOM     27  C   UNL     1       4.479   4.152  19.665  0.00  0.00    +0.000 C 
BRANCH  27  28
ATOM     28  C   UNL     1       4.663   2.863  18.857  0.00  0.00    +0.000 C 
BRANCH  28  30
ATOM     29  C   UNL     1       2.594   2.336  17.574  0.00  0.00    +0.000 C 
ATOM     30  C   UNL     1       3.434   1.943  18.793  0.00  0.00    +0.000 C 
ATOM     31  C   UNL     1       2.601   2.021  20.073  0.00  0.00    +0.000 C 
BRANCH  30  32
ATOM     32  O   UNL     1       3.861   0.594  18.598  0.00  0.00    +0.000 OA
ATOM     33  H   UNL     1       3.073   0.025  18.628  0.00  0.00    +0.000 HD
ENDBRANCH  30  32
ENDBRANCH  28  30
ENDBRANCH  27  28
ENDBRANCH   1  27
TORSDOF 6
ENDMDL
MODEL 2
REMARK VINA RESULT:      -8.1      2.293      4.793
REMARK  Name = 
REMARK  10 active torsions:
REMARK  status: ('A' for Active; 'I' for Inactive)
REMARK    1  A    between atoms: C_1  and  C_2
REMARK    2  A    between atoms: C_2  and  C_3
REMARK    3  A    between atoms: C_2  and  O_4
REMARK    4  A    between atoms: C_2  and  C_5
REMARK    5  A    between atoms: C_5  and  C_6
REMARK    6  A    between atoms: C_6  and  C_7
REMARK    7  A    between atoms: C_8  and  C_9
REMARK    8  A    between atoms: C_21  and  O_22
REMARK    9  A    between atoms: C_28  and  C_29
REMARK   10  A    between atoms: C_28  and  C_30
REMARK                            x       y       z     vdW  Elec       q    Type
REMARK                         _______ _______ _______ _____ _____    ______ ____
ROOT
ATOM      1  C   UNL     1       2.874   6.726  18.508  0.00  0.00    +0.000 A 
ATOM      2  C   UNL     1       2.245   6.321  19.643  0.00  0.00    +0.000 A 
ATOM      3  O   UNL     1       1.474   7.190  20.428  0.00  0.00    +0.000 OA
ATOM      4  C   UNL     1       1.206   8.463  19.974  0.00  0.00    +0.000 A 
ATOM      5  C   UNL     1       0.261   9.221  20.672  0.00  0.00    +0.000 A 
ATOM      6  C   UNL     1       0.005  10.555  20.310  0.00  0.00    +0.000 A 
ATOM      7  C   UNL     1       0.666  11.141  19.224  0.00  0.00    +0.000 A 
ATOM      8  C   UNL     1       1.579  10.355  18.498  0.00  0.00    +0.000 A 
ATOM      9  C   UNL     1       1.852   9.025  18.883  0.00  0.00    +0.000 A 
ATOM     10  C   UNL     1       2.836   8.185  18.190  0.00  0.00    +0.000 A 
ATOM     11  O   UNL     1       3.624   8.663  17.374  0.00  0.00    +0.000 OA
ATOM     12  C   UNL     1       0.375  12.535  18.892  0.00  0.00    +0.000 C 
ATOM     13  C   UNL     1      -0.435  13.227  19.694  0.00  0.00    +0.000 C 
ATOM     14  C   UNL     1      -1.120  12.626  20.894  0.00  0.00    +0.000 C 
ATOM     15  C   UNL     1      -0.614  13.312  22.169  0.00  0.00    +0.000 C 
ATOM     16  C   UNL     1      -2.628  12.853  20.739  0.00  0.00    +0.000 C 
ATOM     17  O   UNL     1      -0.928  11.206  21.074  0.00  0.00    +0.000 OA
ENDROOT
BRANCH   2  18
ATOM     18  C   UNL     1       2.145   4.888  20.073  0.00  0.00    +0.000 A 
ATOM     19  C   UNL     1       2.642   4.563  21.351  0.00  0.00    +0.000 A 
ATOM     20  C   UNL     1       2.297   3.366  21.993  0.00  0.00    +0.000 A 
ATOM     21  C   UNL     1       1.400   2.490  21.396  0.00  0.00    +0.000 A 
ATOM     22  C   UNL     1       1.006   2.721  20.084  0.00  0.00    +0.000 A 
ATOM     23  C   UNL     1       1.470   3.854  19.393  0.00  0.00    +0.000 A 
ATOM     24 BR   UNL     1       1.259   3.802  17.502  0.00  0.00    +0.000 Br
ENDBRANCH   2  18
BRANCH   8  25
ATOM     25  O   UNL     1       2.194  10.861  17.380  0.00  0.00    +0.000 OA
ATOM     26  H   UNL     1       1.724  11.639  17.050  0.00  0.00    +0.000 HD
ENDBRANCH   8  25
BRANCH   1  27
ATOM     27  C   UNL     1       3.586   5.918  17.437  0.00  0.00    +0.000 C 
BRANCH  27  28
ATOM     28  C   UNL     1       5.042   5.525  17.712  0.00  0.00    +0.000 C 
BRANCH  28  30
ATOM     29  C   UNL     1       6.789   4.922  16.043  0.00  0.00    +0.000 C 
ATOM     30  C   UNL     1       6.077   6.092  16.728  0.00  0.00    +0.000 C 
ATOM     31  C   UNL     1       7.084   7.004  17.429  0.00  0.00    +0.000 C 
BRANCH  30  32
ATOM     32  O   UNL     1       5.406   6.836  15.710  0.00  0.00    +0.000 OA
ATOM     33  H   UNL     1       5.970   6.831  14.917  0.00  0.00    +0.000 HD
ENDBRANCH  30  32
ENDBRANCH  28  30
ENDBRANCH  27  28
ENDBRANCH   1  27
TORSDOF 6
ENDMDL
MODEL 3
REMARK VINA RESULT:      -7.9      2.073      4.523
REMARK  Name = 
REMARK  10 active torsions:
REMARK  status: ('A' for Active; 'I' for Inactive)
REMARK    1  A    between atoms: C_1  and  C_2
REMARK    2  A    between atoms: C_2  and  C_3
REMARK    3  A    between atoms: C_2  and  O_4
REMARK    4  A    between atoms: C_2  and  C_5
REMARK    5  A    between atoms: C_5  and  C_6
REMARK    6  A    between atoms: C_6  and  C_7
REMARK    7  A    between atoms: C_8  and  C_9
REMARK    8  A    between atoms: C_21  and  O_22
REMARK    9  A    between atoms: C_28  and  C_29
REMARK   10  A    between atoms: C_28  and  C_30
REMARK                            x       y       z     vdW  Elec       q    Type
REMARK                         _______ _______ _______ _____ _____    ______ ____
ROOT
ATOM      1  C   UNL     1       2.889   6.851  18.553  0.00  0.00    +0.000 A 
ATOM      2  C   UNL     1       2.220   6.415  19.652  0.00  0.00    +0.000 A 
ATOM      3  O   UNL     1       1.392   7.253  20.413  0.00  0.00    +0.000 OA
ATOM      4  C   UNL     1       1.112   8.525  19.963  0.00  0.00    +0.000 A 
ATOM      5  C   UNL     1       0.117   9.248  20.627  0.00  0.00    +0.000 A 
ATOM      6  C   UNL     1      -0.157  10.580  20.270  0.00  0.00    +0.000 A 
ATOM      7  C   UNL     1       0.537  11.198  19.223  0.00  0.00    +0.000 A 
ATOM      8  C   UNL     1       1.502  10.446  18.529  0.00  0.00    +0.000 A 
ATOM      9  C   UNL     1       1.792   9.117  18.909  0.00  0.00    +0.000 A 
ATOM     10  C   UNL     1       2.828   8.313  18.251  0.00  0.00    +0.000 A 
ATOM     11  O   UNL     1       3.640   8.822  17.478  0.00  0.00    +0.000 OA
ATOM     12  C   UNL     1       0.226  12.589  18.896  0.00  0.00    +0.000 C 
ATOM     13  C   UNL     1      -0.638  13.249  19.669  0.00  0.00    +0.000 C 
ATOM     14  C   UNL     1      -1.360  12.614  20.829  0.00  0.00    +0.000 C 
ATOM     15  C   UNL     1      -0.931  13.295  22.134  0.00  0.00    +0.000 C 
ATOM     16  C   UNL     1      -2.866  12.805  20.607  0.00  0.00    +0.000 C 
ATOM     17  O   UNL     1      -1.140  11.197  20.999  0.00  0.00    +0.000 OA
ENDROOT
BRANCH   2  18
ATOM     18  C   UNL     1       2.138   4.973  20.059  0.00  0.00    +0.000 A 
ATOM     19  C   UNL     1       2.638   4.634  21.332  0.00  0.00    +0.000 A 
ATOM     20  C   UNL     1       2.308   3.423  21.955  0.00  0.00    +0.000 A 
ATOM     21  C   UNL     1       1.423   2.545  21.343  0.00  0.00    +0.000 A 
ATOM     22  C   UNL     1       1.028   2.792  20.034  0.00  0.00    +0.000 A 
ATOM     23  C   UNL     1       1.478   3.942  19.362  0.00  0.00    +0.000 A 
ATOM     24 BR   UNL     1       1.269   3.918  17.470  0.00  0.00    +0.000 Br
ENDBRANCH   2  18
BRANCH   8  25
ATOM     25  O   UNL     1       2.154  10.983  17.447  0.00  0.00    +0.000 OA
ATOM     26  H   UNL     1       1.541  11.132  16.714  0.00  0.00    +0.000 HD
ENDBRANCH   8  25
BRANCH   1  27
ATOM     27  C   UNL     1       3.670   6.077  17.505  0.00  0.00    +0.000 C 
BRANCH  27  28
ATOM     28  C   UNL     1       5.174   5.904  17.742  0.00  0.00    +0.000 C 
BRANCH  28  30
ATOM     29  C   UNL     1       7.209   4.607  17.124  0.00  0.00    +0.000 C 
ATOM     30  C   UNL     1       5.726   4.492  17.490  0.00  0.00    +0.000 C 
ATOM     31  C   UNL     1       4.950   3.770  16.388  0.00  0.00    +0.000 C 
BRANCH  30  32
ATOM     32  O   UNL     1       5.643   3.729  18.694  0.00  0.00    +0.000 OA
ATOM     33  H   UNL     1       6.116   2.892  18.549  0.00  0.00    +0.000 HD
ENDBRANCH  30  32
ENDBRANCH  28  30
ENDBRANCH  27  28
ENDBRANCH   1  27
TORSDOF 6
ENDMDL
MODEL 4
REMARK VINA RESULT:      -7.5      1.825      4.520
REMARK  Name = 
REMARK  10 active torsions:
REMARK  status: ('A' for Active; 'I' for Inactive)
REMARK    1  A    between atoms: C_1  and  C_2
REMARK    2  A    between atoms: C_2  and  C_3
REMARK    3  A    between atoms: C_2  and  O_4
REMARK    4  A    between atoms: C_2  and  C_5
REMARK    5  A    between atoms: C_5  and  C_6
REMARK    6  A    between atoms: C_6  and  C_7
REMARK    7  A    between atoms: C_8  and  C_9
REMARK    8  A    between atoms: C_21  and  O_22
REMARK    9  A    between atoms: C_28  and  C_29
REMARK   10  A    between atoms: C_28  and  C_30
REMARK                            x       y       z     vdW  Elec       q    Type
REMARK                         _______ _______ _______ _____ _____    ______ ____
ROOT
ATOM      1  C   UNL     1       2.616   7.061  18.566  0.00  0.00    +0.000 A 
ATOM      2  C   UNL     1       2.217   6.530  19.751  0.00  0.00    +0.000 A 
ATOM      3  O   UNL     1       1.488   7.264  20.699  0.00  0.00    +0.000 OA
ATOM      4  C   UNL     1       1.019   8.518  20.375  0.00  0.00    +0.000 A 
ATOM      5  C   UNL     1       0.118   9.126  21.254  0.00  0.00    +0.000 A 
ATOM      6  C   UNL     1      -0.333  10.437  21.024  0.00  0.00    +0.000 A 
ATOM      7  C   UNL     1       0.086  11.149  19.893  0.00  0.00    +0.000 A 
ATOM      8  C   UNL     1       0.954  10.511  18.989  0.00  0.00    +0.000 A 
ATOM      9  C   UNL     1       1.424   9.204  19.240  0.00  0.00    +0.000 A 
ATOM     10  C   UNL     1       2.373   8.519  18.354  0.00  0.00    +0.000 A 
ATOM     11  O   UNL     1       2.969   9.126  17.464  0.00  0.00    +0.000 OA
ATOM     12  C   UNL     1      -0.401  12.515  19.702  0.00  0.00    +0.000 C 
ATOM     13  C   UNL     1      -1.146  13.068  20.659  0.00  0.00    +0.000 C 
ATOM     14  C   UNL     1      -1.568  12.333  21.905  0.00  0.00    +0.000 C 
ATOM     15  C   UNL     1      -0.948  13.009  23.133  0.00  0.00    +0.000 C 
ATOM     16  C   UNL     1      -3.098  12.391  21.991  0.00  0.00    +0.000 C 
ATOM     17  O   UNL     1      -1.200  10.938  21.959  0.00  0.00    +0.000 OA
ENDROOT
BRANCH   2  18
ATOM     18  C   UNL     1       2.339   5.075  20.096  0.00  0.00    +0.000 A 
ATOM     19  C   UNL     1       1.191   4.434  20.601  0.00  0.00    +0.000 A 
ATOM     20  C   UNL     1       1.077   3.037  20.626  0.00  0.00    +0.000 A 
ATOM     21  C   UNL     1       2.087   2.249  20.093  0.00  0.00    +0.000 A 
ATOM     22  C   UNL     1       3.282   2.848  19.718  0.00  0.00    +0.000 A 
ATOM     23  C   UNL     1       3.443   4.241  19.828  0.00  0.00    +0.000 A 
ATOM     24 BR   UNL     1       5.239   4.867  19.747  0.00  0.00    +0.000 Br
ENDBRANCH   2  18
BRANCH   8  25
ATOM     25  O   UNL     1       1.330  11.140  17.828  0.00  0.00    +0.000 OA
ATOM     26  H   UNL     1       0.578  11.239  17.229  0.00  0.00    +0.000 HD
ENDBRANCH   8  25
BRANCH   1  27
ATOM     27  C   UNL     1       3.235   6.395  17.349  0.00  0.00    +0.000 C 
BRANCH  27  28
ATOM     28  C   UNL     1       4.676   6.785  16.998  0.00  0.00    +0.000 C 
BRANCH  28  30
ATOM     29  C   UNL     1       4.737   4.425  16.205  0.00  0.00    +0.000 C 
ATOM     30  C   UNL     1       5.433   5.787  16.109  0.00  0.00    +0.000 C 
ATOM     31  C   UNL     1       6.904   5.673  16.511  0.00  0.00    +0.000 C 
BRANCH  30  32
ATOM     32  O   UNL     1       5.353   6.209  14.748  0.00  0.00    +0.000 OA
ATOM     33  H   UNL     1       6.256   6.216  14.385  0.00  0.00    +0.000 HD
ENDBRANCH  30  32
ENDBRANCH  28  30
ENDBRANCH  27  28
ENDBRANCH   1  27
TORSDOF 6
ENDMDL
MODEL 5
REMARK VINA RESULT:      -7.4      1.473      1.736
REMARK  Name = 
REMARK  10 active torsions:
REMARK  status: ('A' for Active; 'I' for Inactive)
REMARK    1  A    between atoms: C_1  and  C_2
REMARK    2  A    between atoms: C_2  and  C_3
REMARK    3  A    between atoms: C_2  and  O_4
REMARK    4  A    between atoms: C_2  and  C_5
REMARK    5  A    between atoms: C_5  and  C_6
REMARK    6  A    between atoms: C_6  and  C_7
REMARK    7  A    between atoms: C_8  and  C_9
REMARK    8  A    between atoms: C_21  and  O_22
REMARK    9  A    between atoms: C_28  and  C_29
REMARK   10  A    between atoms: C_28  and  C_30
REMARK                            x       y       z     vdW  Elec       q    Type
REMARK                         _______ _______ _______ _____ _____    ______ ____
ROOT
ATOM      1  C   UNL     1       3.189   5.833  19.295  0.00  0.00    +0.000 A 
ATOM      2  C   UNL     1       3.546   6.363  18.096  0.00  0.00    +0.000 A 
ATOM      3  O   UNL     1       3.075   7.606  17.650  0.00  0.00    +0.000 OA
ATOM      4  C   UNL     1       2.346   8.405  18.504  0.00  0.00    +0.000 A 
ATOM      5  C   UNL     1       2.082   9.718  18.106  0.00  0.00    +0.000 A 
ATOM      6  C   UNL     1       1.274  10.556  18.894  0.00  0.00    +0.000 A 
ATOM      7  C   UNL     1       0.743  10.104  20.107  0.00  0.00    +0.000 A 
ATOM      8  C   UNL     1       1.054   8.797  20.523  0.00  0.00    +0.000 A 
ATOM      9  C   UNL     1       1.844   7.950  19.715  0.00  0.00    +0.000 A 
ATOM     10  C   UNL     1       2.149   6.562  20.081  0.00  0.00    +0.000 A 
ATOM     11  O   UNL     1       1.559   6.000  21.004  0.00  0.00    +0.000 OA
ATOM     12  C   UNL     1      -0.102  11.007  20.886  0.00  0.00    +0.000 C 
ATOM     13  C   UNL     1      -0.417  12.195  20.367  0.00  0.00    +0.000 C 
ATOM     14  C   UNL     1       0.107  12.681  19.040  0.00  0.00    +0.000 C 
ATOM     15  C   UNL     1      -1.060  12.860  18.063  0.00  0.00    +0.000 C 
ATOM     16  C   UNL     1       0.806  14.026  19.275  0.00  0.00    +0.000 C 
ATOM     17  O   UNL     1       1.069  11.817  18.397  0.00  0.00    +0.000 OA
ENDROOT
BRANCH   2  18
ATOM     18  C   UNL     1       4.612   5.783  17.213  0.00  0.00    +0.000 A 
ATOM     19  C   UNL     1       5.773   6.554  17.014  0.00  0.00    +0.000 A 
ATOM     20  C   UNL     1       6.956   5.991  16.515  0.00  0.00    +0.000 A 
ATOM     21  C   UNL     1       7.021   4.628  16.257  0.00  0.00    +0.000 A 
ATOM     22  C   UNL     1       5.855   3.876  16.314  0.00  0.00    +0.000 A 
ATOM     23  C   UNL     1       4.639   4.479  16.679  0.00  0.00    +0.000 A 
ATOM     24 BR   UNL     1       3.072   3.483  16.258  0.00  0.00    +0.000 Br
ENDBRANCH   2  18
BRANCH   8  25
ATOM     25  O   UNL     1       0.620   8.335  21.741  0.00  0.00    +0.000 OA
ATOM     26  H   UNL     1       0.229   9.049  22.262  0.00  0.00    +0.000 HD
ENDBRANCH   8  25
BRANCH   1  27
ATOM     27  C   UNL     1       3.723   4.616  20.031  0.00  0.00    +0.000 C 
BRANCH  27  28
ATOM     28  C   UNL     1       3.394   3.242  19.437  0.00  0.00    +0.000 C 
BRANCH  28  30
ATOM     29  C   UNL     1       0.908   3.299  19.300  0.00  0.00    +0.000 C 
ATOM     30  C   UNL     1       2.101   2.592  19.952  0.00  0.00    +0.000 C 
ATOM     31  C   UNL     1       2.003   2.656  21.476  0.00  0.00    +0.000 C 
BRANCH  30  32
ATOM     32  O   UNL     1       2.061   1.225  19.540  0.00  0.00    +0.000 OA
ATOM     33  H   UNL     1       1.923   1.208  18.577  0.00  0.00    +0.000 HD
ENDBRANCH  30  32
ENDBRANCH  28  30
ENDBRANCH  27  28
ENDBRANCH   1  27
TORSDOF 6
ENDMDL
MODEL 6
REMARK VINA RESULT:      -7.3      2.231      8.097
REMARK  Name = 
REMARK  10 active torsions:
REMARK  status: ('A' for Active; 'I' for Inactive)
REMARK    1  A    between atoms: C_1  and  C_2
REMARK    2  A    between atoms: C_2  and  C_3
REMARK    3  A    between atoms: C_2  and  O_4
REMARK    4  A    between atoms: C_2  and  C_5
REMARK    5  A    between atoms: C_5  and  C_6
REMARK    6  A    between atoms: C_6  and  C_7
REMARK    7  A    between atoms: C_8  and  C_9
REMARK    8  A    between atoms: C_21  and  O_22
REMARK    9  A    between atoms: C_28  and  C_29
REMARK   10  A    between atoms: C_28  and  C_30
REMARK                            x       y       z     vdW  Elec       q    Type
REMARK                         _______ _______ _______ _____ _____    ______ ____
ROOT
ATOM      1  C   UNL     1       0.704   9.176  20.210  0.00  0.00    +0.000 A 
ATOM      2  C   UNL     1       1.063   9.823  19.070  0.00  0.00    +0.000 A 
ATOM      3  O   UNL     1       2.049   9.331  18.203  0.00  0.00    +0.000 OA
ATOM      4  C   UNL     1       2.578   8.077  18.414  0.00  0.00    +0.000 A 
ATOM      5  C   UNL     1       3.391   7.534  17.414  0.00  0.00    +0.000 A 
ATOM      6  C   UNL     1       4.027   6.295  17.605  0.00  0.00    +0.000 A 
ATOM      7  C   UNL     1       3.836   5.565  18.784  0.00  0.00    +0.000 A 
ATOM      8  C   UNL     1       2.978   6.097  19.763  0.00  0.00    +0.000 A 
ATOM      9  C   UNL     1       2.362   7.354  19.578  0.00  0.00    +0.000 A 
ATOM     10  C   UNL     1       1.504   7.974  20.594  0.00  0.00    +0.000 A 
ATOM     11  O   UNL     1       1.446   7.530  21.741  0.00  0.00    +0.000 OA
ATOM     12  C   UNL     1       4.528   4.287  18.942  0.00  0.00    +0.000 C 
ATOM     13  C   UNL     1       5.393   3.909  18.000  0.00  0.00    +0.000 C 
ATOM     14  C   UNL     1       5.648   4.704  16.745  0.00  0.00    +0.000 C 
ATOM     15  C   UNL     1       7.103   5.188  16.732  0.00  0.00    +0.000 C 
ATOM     16  C   UNL     1       5.390   3.784  15.545  0.00  0.00    +0.000 C 
ATOM     17  O   UNL     1       4.813   5.868  16.566  0.00  0.00    +0.000 OA
ENDROOT
BRANCH   2  18
ATOM     18  C   UNL     1       0.329  11.010  18.520  0.00  0.00    +0.000 A 
ATOM     19  C   UNL     1      -0.946  10.780  17.967  0.00  0.00    +0.000 A 
ATOM     20  C   UNL     1      -1.854  11.825  17.749  0.00  0.00    +0.000 A 
ATOM     21  C   UNL     1      -1.530  13.119  18.132  0.00  0.00    +0.000 A 
ATOM     22  C   UNL     1      -0.234  13.392  18.550  0.00  0.00    +0.000 A 
ATOM     23  C   UNL     1       0.718  12.360  18.632  0.00  0.00    +0.000 A 
ATOM     24 BR   UNL     1       2.532  12.927  18.743  0.00  0.00    +0.000 Br
ENDBRANCH   2  18
BRANCH   8  25
ATOM     25  O   UNL     1       2.698   5.384  20.902  0.00  0.00    +0.000 OA
ATOM     26  H   UNL     1       3.459   5.376  21.500  0.00  0.00    +0.000 HD
ENDBRANCH   8  25
BRANCH   1  27
ATOM     27  C   UNL     1      -0.446   9.435  21.168  0.00  0.00    +0.000 C 
BRANCH  27  28
ATOM     28  C   UNL     1      -0.225  10.495  22.253  0.00  0.00    +0.000 C 
BRANCH  28  30
ATOM     29  C   UNL     1      -0.399  12.978  22.158  0.00  0.00    +0.000 C 
ATOM     30  C   UNL     1      -1.206  11.678  22.231  0.00  0.00    +0.000 C 
ATOM     31  C   UNL     1      -2.122  11.677  23.455  0.00  0.00    +0.000 C 
BRANCH  30  32
ATOM     32  O   UNL     1      -2.006  11.608  21.051  0.00  0.00    +0.000 OA
ATOM     33  H   UNL     1      -1.723  12.325  20.456  0.00  0.00    +0.000 HD
ENDBRANCH  30  32
ENDBRANCH  28  30
ENDBRANCH  27  28
ENDBRANCH   1  27
TORSDOF 6
ENDMDL
MODEL 7
REMARK VINA RESULT:      -7.3      4.202      7.648
REMARK  Name = 
REMARK  10 active torsions:
REMARK  status: ('A' for Active; 'I' for Inactive)
REMARK    1  A    between atoms: C_1  and  C_2
REMARK    2  A    between atoms: C_2  and  C_3
REMARK    3  A    between atoms: C_2  and  O_4
REMARK    4  A    between atoms: C_2  and  C_5
REMARK    5  A    between atoms: C_5  and  C_6
REMARK    6  A    between atoms: C_6  and  C_7
REMARK    7  A    between atoms: C_8  and  C_9
REMARK    8  A    between atoms: C_21  and  O_22
REMARK    9  A    between atoms: C_28  and  C_29
REMARK   10  A    between atoms: C_28  and  C_30
REMARK                            x       y       z     vdW  Elec       q    Type
REMARK                         _______ _______ _______ _____ _____    ______ ____
ROOT
ATOM      1  C   UNL     1      -0.273  11.154  18.736  0.00  0.00    +0.000 A 
ATOM      2  C   UNL     1       0.979  10.688  18.983  0.00  0.00    +0.000 A 
ATOM      3  O   UNL     1       2.038  11.531  19.351  0.00  0.00    +0.000 OA
ATOM      4  C   UNL     1       1.789  12.858  19.627  0.00  0.00    +0.000 A 
ATOM      5  C   UNL     1       2.818  13.611  20.199  0.00  0.00    +0.000 A 
ATOM      6  C   UNL     1       2.655  14.988  20.427  0.00  0.00    +0.000 A 
ATOM      7  C   UNL     1       1.449  15.627  20.116  0.00  0.00    +0.000 A 
ATOM      8  C   UNL     1       0.402  14.851  19.586  0.00  0.00    +0.000 A 
ATOM      9  C   UNL     1       0.581  13.473  19.334  0.00  0.00    +0.000 A 
ATOM     10  C   UNL     1      -0.463  12.635  18.732  0.00  0.00    +0.000 A 
ATOM     11  O   UNL     1      -1.467  13.132  18.222  0.00  0.00    +0.000 OA
ATOM     12  C   UNL     1       1.330  17.064  20.359  0.00  0.00    +0.000 C 
ATOM     13  C   UNL     1       2.406  17.732  20.777  0.00  0.00    +0.000 C 
ATOM     14  C   UNL     1       3.727  17.070  21.073  0.00  0.00    +0.000 C 
ATOM     15  C   UNL     1       4.791  17.591  20.100  0.00  0.00    +0.000 C 
ATOM     16  C   UNL     1       4.116  17.419  22.514  0.00  0.00    +0.000 C 
ATOM     17  O   UNL     1       3.735  15.629  20.976  0.00  0.00    +0.000 OA
ENDROOT
BRANCH   2  18
ATOM     18  C   UNL     1       1.322   9.231  19.075  0.00  0.00    +0.000 A 
ATOM     19  C   UNL     1       1.899   8.632  17.939  0.00  0.00    +0.000 A 
ATOM     20  C   UNL     1       2.571   7.404  18.013  0.00  0.00    +0.000 A 
ATOM     21  C   UNL     1       2.731   6.773  19.239  0.00  0.00    +0.000 A 
ATOM     22  C   UNL     1       2.056   7.271  20.346  0.00  0.00    +0.000 A 
ATOM     23  C   UNL     1       1.265   8.429  20.233  0.00  0.00    +0.000 A 
ATOM     24 BR   UNL     1       0.036   8.723  21.656  0.00  0.00    +0.000 Br
ENDBRANCH   2  18
BRANCH   8  25
ATOM     25  O   UNL     1      -0.823  15.417  19.337  0.00  0.00    +0.000 OA
ATOM     26  H   UNL     1      -1.213  15.769  20.149  0.00  0.00    +0.000 HD
ENDBRANCH   8  25
BRANCH   1  27
ATOM     27  C   UNL     1      -1.576  10.404  18.513  0.00  0.00    +0.000 C 
BRANCH  27  28
ATOM     28  C   UNL     1      -1.789   9.773  17.133  0.00  0.00    +0.000 C 
BRANCH  28  30
ATOM     29  C   UNL     1      -4.091  10.720  17.050  0.00  0.00    +0.000 C 
ATOM     30  C   UNL     1      -2.817  10.479  16.235  0.00  0.00    +0.000 C 
ATOM     31  C   UNL     1      -3.124   9.664  14.978  0.00  0.00    +0.000 C 
BRANCH  30  32
ATOM     32  O   UNL     1      -2.310  11.757  15.849  0.00  0.00    +0.000 OA
ATOM     33  H   UNL     1      -1.813  12.120  16.603  0.00  0.00    +0.000 HD
ENDBRANCH  30  32
ENDBRANCH  28  30
ENDBRANCH  27  28
ENDBRANCH   1  27
TORSDOF 6
ENDMDL
MODEL 8
REMARK VINA RESULT:      -7.3      2.079      2.846
REMARK  Name = 
REMARK  10 active torsions:
REMARK  status: ('A' for Active; 'I' for Inactive)
REMARK    1  A    between atoms: C_1  and  C_2
REMARK    2  A    between atoms: C_2  and  C_3
REMARK    3  A    between atoms: C_2  and  O_4
REMARK    4  A    between atoms: C_2  and  C_5
REMARK    5  A    between atoms: C_5  and  C_6
REMARK    6  A    between atoms: C_6  and  C_7
REMARK    7  A    between atoms: C_8  and  C_9
REMARK    8  A    between atoms: C_21  and  O_22
REMARK    9  A    between atoms: C_28  and  C_29
REMARK   10  A    between atoms: C_28  and  C_30
REMARK                            x       y       z     vdW  Elec       q    Type
REMARK                         _______ _______ _______ _____ _____    ______ ____
ROOT
ATOM      1  C   UNL     1       2.213   6.767  19.892  0.00  0.00    +0.000 A 
ATOM      2  C   UNL     1       2.574   7.104  18.626  0.00  0.00    +0.000 A 
ATOM      3  O   UNL     1       2.365   8.386  18.098  0.00  0.00    +0.000 OA
ATOM      4  C   UNL     1       1.919   9.397  18.921  0.00  0.00    +0.000 A 
ATOM      5  C   UNL     1       1.932  10.702  18.419  0.00  0.00    +0.000 A 
ATOM      6  C   UNL     1       1.413  11.765  19.177  0.00  0.00    +0.000 A 
ATOM      7  C   UNL     1       0.903  11.546  20.462  0.00  0.00    +0.000 A 
ATOM      8  C   UNL     1       0.939  10.238  20.978  0.00  0.00    +0.000 A 
ATOM      9  C   UNL     1       1.437   9.169  20.202  0.00  0.00    +0.000 A 
ATOM     10  C   UNL     1       1.444   7.780  20.676  0.00  0.00    +0.000 A 
ATOM     11  O   UNL     1       0.826   7.446  21.686  0.00  0.00    +0.000 OA
ATOM     12  C   UNL     1       0.363  12.681  21.209  0.00  0.00    +0.000 C 
ATOM     13  C   UNL     1       0.286  13.866  20.602  0.00  0.00    +0.000 C 
ATOM     14  C   UNL     1       0.787  14.112  19.202  0.00  0.00    +0.000 C 
ATOM     15  C   UNL     1      -0.391  14.488  18.295  0.00  0.00    +0.000 C 
ATOM     16  C   UNL     1       1.796  15.265  19.259  0.00  0.00    +0.000 C 
ATOM     17  O   UNL     1       1.462  12.997  18.579  0.00  0.00    +0.000 OA
ENDROOT
BRANCH   2  18
ATOM     18  C   UNL     1       3.393   6.221  17.731  0.00  0.00    +0.000 A 
ATOM     19  C   UNL     1       4.634   6.723  17.292  0.00  0.00    +0.000 A 
ATOM     20  C   UNL     1       5.622   5.884  16.759  0.00  0.00    +0.000 A 
ATOM     21  C   UNL     1       5.413   4.513  16.704  0.00  0.00    +0.000 A 
ATOM     22  C   UNL     1       4.152   4.012  17.001  0.00  0.00    +0.000 A 
ATOM     23  C   UNL     1       3.120   4.879  17.401  0.00  0.00    +0.000 A 
ATOM     24 BR   UNL     1       1.361   4.156  17.308  0.00  0.00    +0.000 Br
ENDBRANCH   2  18
BRANCH   8  25
ATOM     25  O   UNL     1       0.522   9.986  22.261  0.00  0.00    +0.000 OA
ATOM     26  H   UNL     1       1.242  10.123  22.892  0.00  0.00    +0.000 HD
ENDBRANCH   8  25
BRANCH   1  27
ATOM     27  C   UNL     1       2.515   5.517  20.702  0.00  0.00    +0.000 C 
BRANCH  27  28
ATOM     28  C   UNL     1       1.426   4.440  20.753  0.00  0.00    +0.000 C 
BRANCH  28  30
ATOM     29  C   UNL     1       3.438   2.985  20.555  0.00  0.00    +0.000 C 
ATOM     30  C   UNL     1       1.933   2.992  20.844  0.00  0.00    +0.000 C 
ATOM     31  C   UNL     1       1.191   2.071  19.875  0.00  0.00    +0.000 C 
BRANCH  30  32
ATOM     32  O   UNL     1       1.754   2.509  22.175  0.00  0.00    +0.000 OA
ATOM     33  H   UNL     1       1.871   1.544  22.160  0.00  0.00    +0.000 HD
ENDBRANCH  30  32
ENDBRANCH  28  30
ENDBRANCH  27  28
ENDBRANCH   1  27
TORSDOF 6
ENDMDL
MODEL 9
REMARK VINA RESULT:      -7.1      2.320      7.918
REMARK  Name = 
REMARK  10 active torsions:
REMARK  status: ('A' for Active; 'I' for Inactive)
REMARK    1  A    between atoms: C_1  and  C_2
REMARK    2  A    between atoms: C_2  and  C_3
REMARK    3  A    between atoms: C_2  and  O_4
REMARK    4  A    between atoms: C_2  and  C_5
REMARK    5  A    between atoms: C_5  and  C_6
REMARK    6  A    between atoms: C_6  and  C_7
REMARK    7  A    between atoms: C_8  and  C_9
REMARK    8  A    between atoms: C_21  and  O_22
REMARK    9  A    between atoms: C_28  and  C_29
REMARK   10  A    between atoms: C_28  and  C_30
REMARK                            x       y       z     vdW  Elec       q    Type
REMARK                         _______ _______ _______ _____ _____    ______ ____
ROOT
ATOM      1  C   UNL     1       0.761   8.633  20.008  0.00  0.00    +0.000 A 
ATOM      2  C   UNL     1       0.998   9.349  18.878  0.00  0.00    +0.000 A 
ATOM      3  O   UNL     1       2.006   9.005  17.966  0.00  0.00    +0.000 OA
ATOM      4  C   UNL     1       2.691   7.820  18.121  0.00  0.00    +0.000 A 
ATOM      5  C   UNL     1       3.529   7.408  17.081  0.00  0.00    +0.000 A 
ATOM      6  C   UNL     1       4.317   6.252  17.213  0.00  0.00    +0.000 A 
ATOM      7  C   UNL     1       4.257   5.473  18.375  0.00  0.00    +0.000 A 
ATOM      8  C   UNL     1       3.375   5.869  19.396  0.00  0.00    +0.000 A 
ATOM      9  C   UNL     1       2.605   7.046  19.269  0.00  0.00    +0.000 A 
ATOM     10  C   UNL     1       1.713   7.529  20.330  0.00  0.00    +0.000 A 
ATOM     11  O   UNL     1       1.750   7.050  21.464  0.00  0.00    +0.000 OA
ATOM     12  C   UNL     1       5.105   4.286  18.472  0.00  0.00    +0.000 C 
ATOM     13  C   UNL     1       5.977   4.042  17.492  0.00  0.00    +0.000 C 
ATOM     14  C   UNL     1       6.089   4.895  16.255  0.00  0.00    +0.000 C 
ATOM     15  C   UNL     1       7.473   5.554  16.212  0.00  0.00    +0.000 C 
ATOM     16  C   UNL     1       5.904   3.983  15.036  0.00  0.00    +0.000 C 
ATOM     17  O   UNL     1       5.113   5.952  16.138  0.00  0.00    +0.000 OA
ENDROOT
BRANCH   2  18
ATOM     18  C   UNL     1       0.106  10.452  18.388  0.00  0.00    +0.000 A 
ATOM     19  C   UNL     1      -1.076  10.075  17.721  0.00  0.00    +0.000 A 
ATOM     20  C   UNL     1      -2.135  10.974  17.533  0.00  0.00    +0.000 A 
ATOM     21  C   UNL     1      -2.058  12.257  18.059  0.00  0.00    +0.000 A 
ATOM     22  C   UNL     1      -0.854  12.693  18.597  0.00  0.00    +0.000 A 
ATOM     23  C   UNL     1       0.253  11.828  18.654  0.00  0.00    +0.000 A 
ATOM     24 BR   UNL     1       1.934  12.668  18.953  0.00  0.00    +0.000 Br
ENDBRANCH   2  18
BRANCH   8  25
ATOM     25  O   UNL     1       3.224   5.097  20.521  0.00  0.00    +0.000 OA
ATOM     26  H   UNL     1       3.845   4.356  20.517  0.00  0.00    +0.000 HD
ENDBRANCH   8  25
BRANCH   1  27
ATOM     27  C   UNL     1      -0.379   8.724  21.009  0.00  0.00    +0.000 C 
BRANCH  27  28
ATOM     28  C   UNL     1      -1.016  10.102  21.217  0.00  0.00    +0.000 C 
BRANCH  28  30
ATOM     29  C   UNL     1      -0.029   9.799  23.484  0.00  0.00    +0.000 C 
ATOM     30  C   UNL     1      -0.613  10.827  22.510  0.00  0.00    +0.000 C 
ATOM     31  C   UNL     1      -1.797  11.559  23.142  0.00  0.00    +0.000 C 
BRANCH  30  32
ATOM     32  O   UNL     1       0.418  11.772  22.222  0.00  0.00    +0.000 OA
ATOM     33  H   UNL     1       0.018  12.508  21.726  0.00  0.00    +0.000 HD
ENDBRANCH  30  32
ENDBRANCH  28  30
ENDBRANCH  27  28
ENDBRANCH   1  27
TORSDOF 6
ENDMDL
