MODEL 1
REMARK VINA RESULT:      -8.4      0.000      0.000
REMARK  Name = 
REMARK  4 active torsions:
REMARK  status: ('A' for Active; 'I' for Inactive)
REMARK    1  A    between atoms: C_2  and  C_3
REMARK    2  A    between atoms: C_7  and  C_8
REMARK    3  A    between atoms: C_17  and  N_18
REMARK    4  A    between atoms: C_22  and  O_23
REMARK                            x       y       z     vdW  Elec       q    Type
REMARK                         _______ _______ _______ _____ _____    ______ ____
ROOT
ATOM      1  O   UNL     1       0.265   8.635  21.526  0.00  0.00    +0.000 OA
ATOM      2  C   UNL     1       0.721   8.955  20.430  0.00  0.00    +0.000 C 
ATOM      3  N   UNL     1       1.594   8.137  19.689  0.00  0.00    +0.000 N 
ATOM      4  C   UNL     1       2.212   8.522  18.419  0.00  0.00    +0.000 C 
ATOM      5  C   UNL     1       2.437   7.364  17.474  0.00  0.00    +0.000 C 
ATOM      6  C   UNL     1       3.159   6.167  18.105  0.00  0.00    +0.000 C 
ATOM      7  C   UNL     1       2.438   5.806  19.422  0.00  0.00    +0.000 C 
ATOM      8  C   UNL     1       2.172   6.980  20.365  0.00  0.00    +0.000 C 
ENDROOT
BRANCH   2   9
ATOM      9  C   UNL     1       0.254  10.241  19.846  0.00  0.00    +0.000 A 
ATOM     10  C   UNL     1       0.674  11.435  20.429  0.00  0.00    +0.000 A 
ATOM     11  C   UNL     1       0.096  12.642  20.028  0.00  0.00    +0.000 A 
ATOM     12  C   UNL     1      -0.924  12.646  19.068  0.00  0.00    +0.000 A 
ATOM     13  C   UNL     1      -1.309  11.455  18.442  0.00  0.00    +0.000 A 
ATOM     14  C   UNL     1      -0.652  10.272  18.784  0.00  0.00    +0.000 A 
BRANCH  13  15
ATOM     15  C   UNL     1      -2.429  11.373  17.506  0.00  0.00    +0.000 A 
ATOM     16  N   UNL     1      -3.713  11.407  17.831  0.00  0.00    +0.000 NA
ATOM     17  C   UNL     1      -4.404  11.267  16.657  0.00  0.00    +0.000 A 
ATOM     18  C   UNL     1      -3.540  11.130  15.602  0.00  0.00    +0.000 A 
ATOM     19  N   UNL     1      -2.293  11.212  16.152  0.00  0.00    +0.000 N 
ATOM     20  H   UNL     1      -1.413  11.131  15.661  0.00  0.00    +0.000 HD
ENDBRANCH  13  15
ENDBRANCH   2   9
BRANCH   6  21
ATOM     21  N   UNL     1       4.644   6.215  18.170  0.00  0.00    +0.000 NA
ATOM     22  C   UNL     1       5.182   5.259  19.151  0.00  0.00    +0.000 C 
ATOM     23  C   UNL     1       6.701   5.370  19.320  0.00  0.00    +0.000 C 
ATOM     24  C   UNL     1       7.391   5.151  17.987  0.00  0.00    +0.000 C 
ATOM     25  C   UNL     1       6.895   6.175  16.979  0.00  0.00    +0.000 C 
ATOM     26  C   UNL     1       5.355   6.176  16.892  0.00  0.00    +0.000 C 
BRANCH  25  27
ATOM     27  O   UNL     1       7.454   5.878  15.698  0.00  0.00    +0.000 OA
ATOM     28  H   UNL     1       6.930   6.349  15.026  0.00  0.00    +0.000 HD
ENDBRANCH  25  27
ENDBRANCH   6  21
TORSDOF 4
ENDMDL
MODEL 2
REMARK VINA RESULT:      -7.8      1.060      1.426
REMARK  Name = 
REMARK  4 active torsions:
REMARK  status: ('A' for Active; 'I' for Inactive)
REMARK    1  A    between atoms: C_2  and  C_3
REMARK    2  A    between atoms: C_7  and  C_8
REMARK    3  A    between atoms: C_17  and  N_18
REMARK    4  A    between atoms: C_22  and  O_23
REMARK                            x       y       z     vdW  Elec       q    Type
REMARK                         _______ _______ _______ _____ _____    ______ ____
ROOT
ATOM      1  O   UNL     1       0.845   8.694  21.574  0.00  0.00    +0.000 OA
ATOM      2  C   UNL     1       1.171   8.879  20.404  0.00  0.00    +0.000 C 
ATOM      3  N   UNL     1       1.891   7.937  19.645  0.00  0.00    +0.000 N 
ATOM      4  C   UNL     1       2.360   8.161  18.276  0.00  0.00    +0.000 C 
ATOM      5  C   UNL     1       2.391   6.907  17.430  0.00  0.00    +0.000 C 
ATOM      6  C   UNL     1       3.118   5.725  18.083  0.00  0.00    +0.000 C 
ATOM      7  C   UNL     1       2.555   5.538  19.508  0.00  0.00    +0.000 C 
ATOM      8  C   UNL     1       2.484   6.808  20.356  0.00  0.00    +0.000 C 
ENDROOT
BRANCH   2   9
ATOM      9  C   UNL     1       0.708  10.136  19.758  0.00  0.00    +0.000 A 
ATOM     10  C   UNL     1       1.258  11.348  20.173  0.00  0.00    +0.000 A 
ATOM     11  C   UNL     1       0.702  12.549  19.728  0.00  0.00    +0.000 A 
ATOM     12  C   UNL     1      -0.422  12.534  18.894  0.00  0.00    +0.000 A 
ATOM     13  C   UNL     1      -0.943  11.320  18.432  0.00  0.00    +0.000 A 
ATOM     14  C   UNL     1      -0.314  10.132  18.807  0.00  0.00    +0.000 A 
BRANCH  13  15
ATOM     15  C   UNL     1      -2.170  11.229  17.641  0.00  0.00    +0.000 A 
ATOM     16  N   UNL     1      -3.387  11.029  18.122  0.00  0.00    +0.000 NA
ATOM     17  C   UNL     1      -4.220  10.979  17.036  0.00  0.00    +0.000 A 
ATOM     18  C   UNL     1      -3.508  11.134  15.875  0.00  0.00    +0.000 A 
ATOM     19  N   UNL     1      -2.213  11.305  16.273  0.00  0.00    +0.000 N 
ATOM     20  H   UNL     1      -1.410  11.428  15.672  0.00  0.00    +0.000 HD
ENDBRANCH  13  15
ENDBRANCH   2   9
BRANCH   6  21
ATOM     21  N   UNL     1       4.599   5.674  17.957  0.00  0.00    +0.000 NA
ATOM     22  C   UNL     1       5.122   6.800  17.168  0.00  0.00    +0.000 C 
ATOM     23  C   UNL     1       6.632   6.710  16.926  0.00  0.00    +0.000 C 
ATOM     24  C   UNL     1       7.368   6.651  18.251  0.00  0.00    +0.000 C 
ATOM     25  C   UNL     1       6.887   5.452  19.052  0.00  0.00    +0.000 C 
ATOM     26  C   UNL     1       5.351   5.450  19.192  0.00  0.00    +0.000 C 
BRANCH  25  27
ATOM     27  O   UNL     1       7.493   5.481  20.347  0.00  0.00    +0.000 OA
ATOM     28  H   UNL     1       8.458   5.433  20.228  0.00  0.00    +0.000 HD
ENDBRANCH  25  27
ENDBRANCH   6  21
TORSDOF 4
ENDMDL
MODEL 3
REMARK VINA RESULT:      -7.6      2.132      3.237
REMARK  Name = 
REMARK  4 active torsions:
REMARK  status: ('A' for Active; 'I' for Inactive)
REMARK    1  A    between atoms: C_2  and  C_3
REMARK    2  A    between atoms: C_7  and  C_8
REMARK    3  A    between atoms: C_17  and  N_18
REMARK    4  A    between atoms: C_22  and  O_23
REMARK                            x       y       z     vdW  Elec       q    Type
REMARK                         _______ _______ _______ _____ _____    ______ ____
ROOT
ATOM      1  O   UNL     1       0.294   8.735  21.517  0.00  0.00    +0.000 OA
ATOM      2  C   UNL     1       0.745   9.046  20.417  0.00  0.00    +0.000 C 
ATOM      3  N   UNL     1       1.612   8.220  19.676  0.00  0.00    +0.000 N 
ATOM      4  C   UNL     1       2.225   8.595  18.401  0.00  0.00    +0.000 C 
ATOM      5  C   UNL     1       2.440   7.430  17.462  0.00  0.00    +0.000 C 
ATOM      6  C   UNL     1       3.161   6.234  18.097  0.00  0.00    +0.000 C 
ATOM      7  C   UNL     1       2.445   5.885  19.419  0.00  0.00    +0.000 C 
ATOM      8  C   UNL     1       2.189   7.064  20.357  0.00  0.00    +0.000 C 
ENDROOT
BRANCH   2   9
ATOM      9  C   UNL     1       0.281  10.330  19.828  0.00  0.00    +0.000 A 
ATOM     10  C   UNL     1      -0.971  10.375  19.214  0.00  0.00    +0.000 A 
ATOM     11  C   UNL     1      -1.343  11.505  18.484  0.00  0.00    +0.000 A 
ATOM     12  C   UNL     1      -0.450  12.574  18.343  0.00  0.00    +0.000 A 
ATOM     13  C   UNL     1       0.784  12.556  19.003  0.00  0.00    +0.000 A 
ATOM     14  C   UNL     1       1.099  11.460  19.809  0.00  0.00    +0.000 A 
BRANCH  13  15
ATOM     15  C   UNL     1       1.800  13.591  18.820  0.00  0.00    +0.000 A 
ATOM     16  N   UNL     1       1.780  14.799  19.363  0.00  0.00    +0.000 NA
ATOM     17  C   UNL     1       2.898  15.440  18.900  0.00  0.00    +0.000 A 
ATOM     18  C   UNL     1       3.605  14.627  18.054  0.00  0.00    +0.000 A 
ATOM     19  N   UNL     1       2.905  13.455  18.022  0.00  0.00    +0.000 N 
ATOM     20  H   UNL     1       3.133  12.633  17.478  0.00  0.00    +0.000 HD
ENDBRANCH  13  15
ENDBRANCH   2   9
BRANCH   6  21
ATOM     21  N   UNL     1       4.646   6.277  18.154  0.00  0.00    +0.000 NA
ATOM     22  C   UNL     1       5.185   5.331  19.144  0.00  0.00    +0.000 C 
ATOM     23  C   UNL     1       6.705   5.437  19.305  0.00  0.00    +0.000 C 
ATOM     24  C   UNL     1       7.388   5.199  17.971  0.00  0.00    +0.000 C 
ATOM     25  C   UNL     1       6.891   6.212  16.953  0.00  0.00    +0.000 C 
ATOM     26  C   UNL     1       5.351   6.218  16.873  0.00  0.00    +0.000 C 
BRANCH  25  27
ATOM     27  O   UNL     1       7.443   5.896  15.673  0.00  0.00    +0.000 OA
ATOM     28  H   UNL     1       6.712   5.872  15.029  0.00  0.00    +0.000 HD
ENDBRANCH  25  27
ENDBRANCH   6  21
TORSDOF 4
ENDMDL
MODEL 4
REMARK VINA RESULT:      -7.5      1.475      1.913
REMARK  Name = 
REMARK  4 active torsions:
REMARK  status: ('A' for Active; 'I' for Inactive)
REMARK    1  A    between atoms: C_2  and  C_3
REMARK    2  A    between atoms: C_7  and  C_8
REMARK    3  A    between atoms: C_17  and  N_18
REMARK    4  A    between atoms: C_22  and  O_23
REMARK                            x       y       z     vdW  Elec       q    Type
REMARK                         _______ _______ _______ _____ _____    ______ ____
ROOT
ATOM      1  O   UNL     1       0.978   6.968  21.540  0.00  0.00    +0.000 OA
ATOM      2  C   UNL     1       1.428   7.617  20.599  0.00  0.00    +0.000 C 
ATOM      3  N   UNL     1       2.341   7.092  19.665  0.00  0.00    +0.000 N 
ATOM      4  C   UNL     1       2.952   7.862  18.580  0.00  0.00    +0.000 C 
ATOM      5  C   UNL     1       3.232   7.047  17.337  0.00  0.00    +0.000 C 
ATOM      6  C   UNL     1       3.999   5.744  17.597  0.00  0.00    +0.000 C 
ATOM      7  C   UNL     1       3.283   4.981  18.732  0.00  0.00    +0.000 C 
ATOM      8  C   UNL     1       2.962   5.808  19.976  0.00  0.00    +0.000 C 
ENDROOT
BRANCH   2   9
ATOM      9  C   UNL     1       0.913   9.000  20.416  0.00  0.00    +0.000 A 
ATOM     10  C   UNL     1       1.134   9.939  21.423  0.00  0.00    +0.000 A 
ATOM     11  C   UNL     1       0.494  11.179  21.366  0.00  0.00    +0.000 A 
ATOM     12  C   UNL     1      -0.391  11.463  20.319  0.00  0.00    +0.000 A 
ATOM     13  C   UNL     1      -0.573  10.545  19.279  0.00  0.00    +0.000 A 
ATOM     14  C   UNL     1       0.151   9.352  19.301  0.00  0.00    +0.000 A 
BRANCH  13  15
ATOM     15  C   UNL     1      -1.552  10.736  18.210  0.00  0.00    +0.000 A 
ATOM     16  N   UNL     1      -2.655  11.466  18.291  0.00  0.00    +0.000 NA
ATOM     17  C   UNL     1      -3.284  11.337  17.082  0.00  0.00    +0.000 A 
ATOM     18  C   UNL     1      -2.573  10.508  16.254  0.00  0.00    +0.000 A 
ATOM     19  N   UNL     1      -1.472  10.145  16.976  0.00  0.00    +0.000 N 
ATOM     20  H   UNL     1      -0.736   9.520  16.677  0.00  0.00    +0.000 HD
ENDBRANCH  13  15
ENDBRANCH   2   9
BRANCH   6  21
ATOM     21  N   UNL     1       5.479   5.827  17.702  0.00  0.00    +0.000 NA
ATOM     22  C   UNL     1       5.995   7.107  17.192  0.00  0.00    +0.000 C 
ATOM     23  C   UNL     1       7.526   7.172  17.183  0.00  0.00    +0.000 C 
ATOM     24  C   UNL     1       8.065   6.944  18.582  0.00  0.00    +0.000 C 
ATOM     25  C   UNL     1       7.596   5.594  19.099  0.00  0.00    +0.000 C 
ATOM     26  C   UNL     1       6.064   5.454  18.991  0.00  0.00    +0.000 C 
BRANCH  25  27
ATOM     27  O   UNL     1       8.001   5.449  20.462  0.00  0.00    +0.000 OA
ATOM     28  H   UNL     1       8.862   5.893  20.568  0.00  0.00    +0.000 HD
ENDBRANCH  25  27
ENDBRANCH   6  21
TORSDOF 4
ENDMDL
MODEL 5
REMARK VINA RESULT:      -7.4      0.769      1.027
REMARK  Name = 
REMARK  4 active torsions:
REMARK  status: ('A' for Active; 'I' for Inactive)
REMARK    1  A    between atoms: C_2  and  C_3
REMARK    2  A    between atoms: C_7  and  C_8
REMARK    3  A    between atoms: C_17  and  N_18
REMARK    4  A    between atoms: C_22  and  O_23
REMARK                            x       y       z     vdW  Elec       q    Type
REMARK                         _______ _______ _______ _____ _____    ______ ____
ROOT
ATOM      1  O   UNL     1       0.409   9.152  21.575  0.00  0.00    +0.000 OA
ATOM      2  C   UNL     1       0.818   9.232  20.419  0.00  0.00    +0.000 C 
ATOM      3  N   UNL     1       1.585   8.227  19.800  0.00  0.00    +0.000 N 
ATOM      4  C   UNL     1       2.150   8.327  18.453  0.00  0.00    +0.000 C 
ATOM      5  C   UNL     1       2.234   7.003  17.727  0.00  0.00    +0.000 C 
ATOM      6  C   UNL     1       2.907   5.885  18.533  0.00  0.00    +0.000 C 
ATOM      7  C   UNL     1       2.244   5.826  19.926  0.00  0.00    +0.000 C 
ATOM      8  C   UNL     1       2.120   7.167  20.649  0.00  0.00    +0.000 C 
ENDROOT
BRANCH   2   9
ATOM      9  C   UNL     1       0.409  10.426  19.632  0.00  0.00    +0.000 A 
ATOM     10  C   UNL     1       1.006  11.654  19.914  0.00  0.00    +0.000 A 
ATOM     11  C   UNL     1       0.500  12.819  19.332  0.00  0.00    +0.000 A 
ATOM     12  C   UNL     1      -0.621  12.755  18.495  0.00  0.00    +0.000 A 
ATOM     13  C   UNL     1      -1.187  11.518  18.167  0.00  0.00    +0.000 A 
ATOM     14  C   UNL     1      -0.608  10.355  18.679  0.00  0.00    +0.000 A 
BRANCH  13  15
ATOM     15  C   UNL     1      -2.413  11.387  17.380  0.00  0.00    +0.000 A 
ATOM     16  N   UNL     1      -2.526  10.750  16.224  0.00  0.00    +0.000 NA
ATOM     17  C   UNL     1      -3.828  10.908  15.832  0.00  0.00    +0.000 A 
ATOM     18  C   UNL     1      -4.520  11.661  16.744  0.00  0.00    +0.000 A 
ATOM     19  N   UNL     1      -3.615  11.947  17.726  0.00  0.00    +0.000 N 
ATOM     20  H   UNL     1      -3.780  12.505  18.552  0.00  0.00    +0.000 HD
ENDBRANCH  13  15
ENDBRANCH   2   9
BRANCH   6  21
ATOM     21  N   UNL     1       4.392   5.824  18.517  0.00  0.00    +0.000 NA
ATOM     22  C   UNL     1       4.883   4.474  18.200  0.00  0.00    +0.000 C 
ATOM     23  C   UNL     1       6.408   4.357  18.290  0.00  0.00    +0.000 C 
ATOM     24  C   UNL     1       7.064   5.354  17.354  0.00  0.00    +0.000 C 
ATOM     25  C   UNL     1       6.619   6.763  17.712  0.00  0.00    +0.000 C 
ATOM     26  C   UNL     1       5.081   6.870  17.760  0.00  0.00    +0.000 C 
BRANCH  25  27
ATOM     27  O   UNL     1       7.139   7.677  16.744  0.00  0.00    +0.000 OA
ATOM     28  H   UNL     1       7.159   7.223  15.883  0.00  0.00    +0.000 HD
ENDBRANCH  25  27
ENDBRANCH   6  21
TORSDOF 4
ENDMDL
MODEL 6
REMARK VINA RESULT:      -7.3      2.130      3.554
REMARK  Name = 
REMARK  4 active torsions:
REMARK  status: ('A' for Active; 'I' for Inactive)
REMARK    1  A    between atoms: C_2  and  C_3
REMARK    2  A    between atoms: C_7  and  C_8
REMARK    3  A    between atoms: C_17  and  N_18
REMARK    4  A    between atoms: C_22  and  O_23
REMARK                            x       y       z     vdW  Elec       q    Type
REMARK                         _______ _______ _______ _____ _____    ______ ____
ROOT
ATOM      1  O   UNL     1       0.262   8.493  21.622  0.00  0.00    +0.000 OA
ATOM      2  C   UNL     1       0.754   8.912  20.576  0.00  0.00    +0.000 C 
ATOM      3  N   UNL     1       1.622   8.150  19.772  0.00  0.00    +0.000 N 
ATOM      4  C   UNL     1       2.283   8.648  18.564  0.00  0.00    +0.000 C 
ATOM      5  C   UNL     1       2.499   7.589  17.507  0.00  0.00    +0.000 C 
ATOM      6  C   UNL     1       3.172   6.311  18.024  0.00  0.00    +0.000 C 
ATOM      7  C   UNL     1       2.408   5.836  19.279  0.00  0.00    +0.000 C 
ATOM      8  C   UNL     1       2.151   6.911  20.335  0.00  0.00    +0.000 C 
ENDROOT
BRANCH   2   9
ATOM      9  C   UNL     1       0.338  10.266  20.122  0.00  0.00    +0.000 A 
ATOM     10  C   UNL     1      -0.630  10.372  19.124  0.00  0.00    +0.000 A 
ATOM     11  C   UNL     1      -0.891  11.615  18.544  0.00  0.00    +0.000 A 
ATOM     12  C   UNL     1      -0.161  12.742  18.941  0.00  0.00    +0.000 A 
ATOM     13  C   UNL     1       0.772  12.649  19.979  0.00  0.00    +0.000 A 
ATOM     14  C   UNL     1       0.950  11.419  20.616  0.00  0.00    +0.000 A 
BRANCH  13  15
ATOM     15  C   UNL     1       1.636  13.760  20.376  0.00  0.00    +0.000 A 
ATOM     16  N   UNL     1       2.425  13.785  21.440  0.00  0.00    +0.000 NA
ATOM     17  C   UNL     1       3.018  15.019  21.442  0.00  0.00    +0.000 A 
ATOM     18  C   UNL     1       2.580  15.767  20.380  0.00  0.00    +0.000 A 
ATOM     19  N   UNL     1       1.714  14.953  19.706  0.00  0.00    +0.000 N 
ATOM     20  H   UNL     1       1.188  15.190  18.877  0.00  0.00    +0.000 HD
ENDBRANCH  13  15
ENDBRANCH   2   9
BRANCH   6  21
ATOM     21  N   UNL     1       4.655   6.307  18.126  0.00  0.00    +0.000 NA
ATOM     22  C   UNL     1       5.135   5.310  19.095  0.00  0.00    +0.000 C 
ATOM     23  C   UNL     1       6.652   5.364  19.305  0.00  0.00    +0.000 C 
ATOM     24  C   UNL     1       7.368   5.155  17.984  0.00  0.00    +0.000 C 
ATOM     25  C   UNL     1       6.932   6.219  16.991  0.00  0.00    +0.000 C 
ATOM     26  C   UNL     1       5.396   6.275  16.865  0.00  0.00    +0.000 C 
BRANCH  25  27
ATOM     27  O   UNL     1       7.514   5.935  15.716  0.00  0.00    +0.000 OA
ATOM     28  H   UNL     1       7.203   6.611  15.087  0.00  0.00    +0.000 HD
ENDBRANCH  25  27
ENDBRANCH   6  21
TORSDOF 4
ENDMDL
MODEL 7
REMARK VINA RESULT:      -7.2      3.166      8.956
REMARK  Name = 
REMARK  4 active torsions:
REMARK  status: ('A' for Active; 'I' for Inactive)
REMARK    1  A    between atoms: C_2  and  C_3
REMARK    2  A    between atoms: C_7  and  C_8
REMARK    3  A    between atoms: C_17  and  N_18
REMARK    4  A    between atoms: C_22  and  O_23
REMARK                            x       y       z     vdW  Elec       q    Type
REMARK                         _______ _______ _______ _____ _____    ______ ____
ROOT
ATOM      1  O   UNL     1       1.328   9.327  22.457  0.00  0.00    +0.000 OA
ATOM      2  C   UNL     1       0.939   9.271  21.293  0.00  0.00    +0.000 C 
ATOM      3  N   UNL     1      -0.013  10.157  20.753  0.00  0.00    +0.000 N 
ATOM      4  C   UNL     1      -0.551  10.068  19.394  0.00  0.00    +0.000 C 
ATOM      5  C   UNL     1      -0.897  11.409  18.787  0.00  0.00    +0.000 C 
ATOM      6  C   UNL     1      -1.774  12.298  19.678  0.00  0.00    +0.000 C 
ATOM      7  C   UNL     1      -1.131  12.361  21.080  0.00  0.00    +0.000 C 
ATOM      8  C   UNL     1      -0.744  11.012  21.684  0.00  0.00    +0.000 C 
ENDROOT
BRANCH   2   9
ATOM      9  C   UNL     1       1.573   8.256  20.410  0.00  0.00    +0.000 A 
ATOM     10  C   UNL     1       1.968   8.633  19.127  0.00  0.00    +0.000 A 
ATOM     11  C   UNL     1       2.379   7.659  18.215  0.00  0.00    +0.000 A 
ATOM     12  C   UNL     1       2.364   6.307  18.579  0.00  0.00    +0.000 A 
ATOM     13  C   UNL     1       2.021   5.930  19.882  0.00  0.00    +0.000 A 
ATOM     14  C   UNL     1       1.707   6.926  20.810  0.00  0.00    +0.000 A 
BRANCH  13  15
ATOM     15  C   UNL     1       1.890   4.535  20.300  0.00  0.00    +0.000 A 
ATOM     16  N   UNL     1       2.147   4.063  21.511  0.00  0.00    +0.000 NA
ATOM     17  C   UNL     1       1.925   2.713  21.445  0.00  0.00    +0.000 A 
ATOM     18  C   UNL     1       1.544   2.348  20.181  0.00  0.00    +0.000 A 
ATOM     19  N   UNL     1       1.514   3.513  19.469  0.00  0.00    +0.000 N 
ATOM     20  H   UNL     1       1.290   3.613  18.488  0.00  0.00    +0.000 HD
ENDBRANCH  13  15
ENDBRANCH   2   9
BRANCH   6  21
ATOM     21  N   UNL     1      -3.243  12.066  19.646  0.00  0.00    +0.000 NA
ATOM     22  C   UNL     1      -3.980  13.120  20.360  0.00  0.00    +0.000 C 
ATOM     23  C   UNL     1      -5.485  12.846  20.442  0.00  0.00    +0.000 C 
ATOM     24  C   UNL     1      -6.063  12.697  19.047  0.00  0.00    +0.000 C 
ATOM     25  C   UNL     1      -5.357  11.566  18.318  0.00  0.00    +0.000 C 
ATOM     26  C   UNL     1      -3.826  11.752  18.342  0.00  0.00    +0.000 C 
BRANCH  25  27
ATOM     27  O   UNL     1      -5.820  11.520  16.966  0.00  0.00    +0.000 OA
ATOM     28  H   UNL     1      -6.562  12.145  16.882  0.00  0.00    +0.000 HD
ENDBRANCH  25  27
ENDBRANCH   6  21
TORSDOF 4
ENDMDL
MODEL 8
REMARK VINA RESULT:      -7.2      2.310      8.707
REMARK  Name = 
REMARK  4 active torsions:
REMARK  status: ('A' for Active; 'I' for Inactive)
REMARK    1  A    between atoms: C_2  and  C_3
REMARK    2  A    between atoms: C_7  and  C_8
REMARK    3  A    between atoms: C_17  and  N_18
REMARK    4  A    between atoms: C_22  and  O_23
REMARK                            x       y       z     vdW  Elec       q    Type
REMARK                         _______ _______ _______ _____ _____    ______ ____
ROOT
ATOM      1  O   UNL     1       1.874   6.133  21.073  0.00  0.00    +0.000 OA
ATOM      2  C   UNL     1       1.898   6.542  19.915  0.00  0.00    +0.000 C 
ATOM      3  N   UNL     1       1.574   7.864  19.556  0.00  0.00    +0.000 N 
ATOM      4  C   UNL     1       1.520   8.359  18.179  0.00  0.00    +0.000 C 
ATOM      5  C   UNL     1       1.913   9.812  18.038  0.00  0.00    +0.000 C 
ATOM      6  C   UNL     1       1.184  10.759  19.001  0.00  0.00    +0.000 C 
ATOM      7  C   UNL     1       1.305  10.184  20.429  0.00  0.00    +0.000 C 
ATOM      8  C   UNL     1       0.947   8.705  20.572  0.00  0.00    +0.000 C 
ENDROOT
BRANCH   2   9
ATOM      9  C   UNL     1       2.366   5.596  18.867  0.00  0.00    +0.000 A 
ATOM     10  C   UNL     1       1.519   4.562  18.468  0.00  0.00    +0.000 A 
ATOM     11  C   UNL     1       2.007   3.550  17.639  0.00  0.00    +0.000 A 
ATOM     12  C   UNL     1       3.348   3.558  17.236  0.00  0.00    +0.000 A 
ATOM     13  C   UNL     1       4.185   4.623  17.590  0.00  0.00    +0.000 A 
ATOM     14  C   UNL     1       3.655   5.676  18.337  0.00  0.00    +0.000 A 
BRANCH  13  15
ATOM     15  C   UNL     1       5.615   4.646  17.287  0.00  0.00    +0.000 A 
ATOM     16  N   UNL     1       6.152   4.935  16.111  0.00  0.00    +0.000 NA
ATOM     17  C   UNL     1       7.506   4.803  16.271  0.00  0.00    +0.000 A 
ATOM     18  C   UNL     1       7.805   4.415  17.551  0.00  0.00    +0.000 A 
ATOM     19  N   UNL     1       6.599   4.332  18.187  0.00  0.00    +0.000 N 
ATOM     20  H   UNL     1       6.443   4.052  19.145  0.00  0.00    +0.000 HD
ENDBRANCH  13  15
ENDBRANCH   2   9
BRANCH   6  21
ATOM     21  N   UNL     1      -0.168  11.235  18.605  0.00  0.00    +0.000 NA
ATOM     22  C   UNL     1      -0.869  10.256  17.759  0.00  0.00    +0.000 C 
ATOM     23  C   UNL     1      -2.217  10.769  17.243  0.00  0.00    +0.000 C 
ATOM     24  C   UNL     1      -3.112  11.146  18.409  0.00  0.00    +0.000 C 
ATOM     25  C   UNL     1      -2.430  12.207  19.256  0.00  0.00    +0.000 C 
ATOM     26  C   UNL     1      -1.013  11.766  19.675  0.00  0.00    +0.000 C 
BRANCH  25  27
ATOM     27  O   UNL     1      -3.223  12.458  20.419  0.00  0.00    +0.000 OA
ATOM     28  H   UNL     1      -2.630  12.469  21.190  0.00  0.00    +0.000 HD
ENDBRANCH  25  27
ENDBRANCH   6  21
TORSDOF 4
ENDMDL
MODEL 9
REMARK VINA RESULT:      -7.2      2.598      8.603
REMARK  Name = 
REMARK  4 active torsions:
REMARK  status: ('A' for Active; 'I' for Inactive)
REMARK    1  A    between atoms: C_2  and  C_3
REMARK    2  A    between atoms: C_7  and  C_8
REMARK    3  A    between atoms: C_17  and  N_18
REMARK    4  A    between atoms: C_22  and  O_23
REMARK                            x       y       z     vdW  Elec       q    Type
REMARK                         _______ _______ _______ _____ _____    ______ ____
ROOT
ATOM      1  O   UNL     1       2.107   5.007  21.386  0.00  0.00    +0.000 OA
ATOM      2  C   UNL     1       2.026   5.532  20.278  0.00  0.00    +0.000 C 
ATOM      3  N   UNL     1       1.677   6.882  20.086  0.00  0.00    +0.000 N 
ATOM      4  C   UNL     1       1.498   7.514  18.777  0.00  0.00    +0.000 C 
ATOM      5  C   UNL     1       1.884   8.975  18.748  0.00  0.00    +0.000 C 
ATOM      6  C   UNL     1       1.252   9.816  19.865  0.00  0.00    +0.000 C 
ATOM      7  C   UNL     1       1.502   9.100  21.210  0.00  0.00    +0.000 C 
ATOM      8  C   UNL     1       1.151   7.613  21.235  0.00  0.00    +0.000 C 
ENDROOT
BRANCH   2   9
ATOM      9  C   UNL     1       2.390   4.698  19.101  0.00  0.00    +0.000 A 
ATOM     10  C   UNL     1       1.600   3.593  18.789  0.00  0.00    +0.000 A 
ATOM     11  C   UNL     1       2.030   2.686  17.819  0.00  0.00    +0.000 A 
ATOM     12  C   UNL     1       3.265   2.871  17.185  0.00  0.00    +0.000 A 
ATOM     13  C   UNL     1       4.035   4.008  17.456  0.00  0.00    +0.000 A 
ATOM     14  C   UNL     1       3.543   4.954  18.357  0.00  0.00    +0.000 A 
BRANCH  13  15
ATOM     15  C   UNL     1       5.374   4.214  16.905  0.00  0.00    +0.000 A 
ATOM     16  N   UNL     1       5.695   4.184  15.621  0.00  0.00    +0.000 NA
ATOM     17  C   UNL     1       7.047   4.390  15.564  0.00  0.00    +0.000 A 
ATOM     18  C   UNL     1       7.567   4.533  16.824  0.00  0.00    +0.000 A 
ATOM     19  N   UNL     1       6.494   4.431  17.663  0.00  0.00    +0.000 N 
ATOM     20  H   UNL     1       6.515   4.471  18.673  0.00  0.00    +0.000 HD
ENDBRANCH  13  15
ENDBRANCH   2   9
BRANCH   6  21
ATOM     21  N   UNL     1      -0.128  10.324  19.646  0.00  0.00    +0.000 NA
ATOM     22  C   UNL     1      -0.464  11.416  20.573  0.00  0.00    +0.000 C 
ATOM     23  C   UNL     1      -1.919  11.880  20.446  0.00  0.00    +0.000 C 
ATOM     24  C   UNL     1      -2.199  12.333  19.025  0.00  0.00    +0.000 C 
ATOM     25  C   UNL     1      -1.920  11.194  18.059  0.00  0.00    +0.000 C 
ATOM     26  C   UNL     1      -0.503  10.619  18.262  0.00  0.00    +0.000 C 
BRANCH  25  27
ATOM     27  O   UNL     1      -2.063  11.671  16.719  0.00  0.00    +0.000 OA
ATOM     28  H   UNL     1      -1.234  11.483  16.244  0.00  0.00    +0.000 HD
ENDBRANCH  25  27
ENDBRANCH   6  21
TORSDOF 4
ENDMDL
