MODEL 1
REMARK VINA RESULT:      -8.5      0.000      0.000
REMARK  Name = 
REMARK  5 active torsions:
REMARK  status: ('A' for Active; 'I' for Inactive)
REMARK    1  A    between atoms: N_7  and  C_8
REMARK    2  A    between atoms: C_11  and  C_12
REMARK    3  A    between atoms: N_22  and  C_23
REMARK    4  A    between atoms: C_23  and  C_24
REMARK    5  A    between atoms: C_24  and  N_25
REMARK                            x       y       z     vdW  Elec       q    Type
REMARK                         _______ _______ _______ _____ _____    ______ ____
ROOT
ATOM      1 CL   UNL     1      -1.171  10.242  23.181  0.00  0.00    +0.000 Cl
ATOM      2  C   UNL     1      -0.156   9.544  21.979  0.00  0.00    +0.000 A 
ATOM      3  C   UNL     1       0.291   8.237  22.121  0.00  0.00    +0.000 A 
ATOM      4  C   UNL     1       1.102   7.678  21.136  0.00  0.00    +0.000 A 
ATOM      5  C   UNL     1       1.486   8.444  20.027  0.00  0.00    +0.000 A 
ATOM      6  C   UNL     1       2.313   7.813  18.942  0.00  0.00    +0.000 A 
ATOM      7  N   UNL     1       2.929   6.685  19.178  0.00  0.00    +0.000 NA
ATOM      8  C   UNL     1       2.325   8.581  17.662  0.00  0.00    +0.000 A 
ATOM      9  C   UNL     1       2.040   9.882  17.703  0.00  0.00    +0.000 A 
ATOM     10  N   UNL     1       1.567  10.567  18.802  0.00  0.00    +0.000 N 
ATOM     11  C   UNL     1       1.092   9.803  19.896  0.00  0.00    +0.000 A 
ATOM     12  C   UNL     1       0.221  10.311  20.873  0.00  0.00    +0.000 A 
ENDROOT
BRANCH   7  13
ATOM     13  C   UNL     1       3.735   6.093  18.188  0.00  0.00    +0.000 A 
ATOM     14  C   UNL     1       4.918   6.680  17.746  0.00  0.00    +0.000 A 
ATOM     15  C   UNL     1       5.558   6.218  16.595  0.00  0.00    +0.000 A 
ATOM     16  C   UNL     1       5.130   5.059  15.928  0.00  0.00    +0.000 A 
ATOM     17  C   UNL     1       4.048   4.368  16.505  0.00  0.00    +0.000 A 
ATOM     18  C   UNL     1       3.347   4.888  17.606  0.00  0.00    +0.000 A 
BRANCH  16  19
ATOM     19  C   UNL     1       5.774   4.632  14.661  0.00  0.00    +0.000 A 
ATOM     20  C   UNL     1       7.033   5.131  14.269  0.00  0.00    +0.000 A 
ATOM     21  C   UNL     1       7.615   4.794  13.044  0.00  0.00    +0.000 A 
ATOM     22  C   UNL     1       6.961   3.923  12.182  0.00  0.00    +0.000 A 
ATOM     23  C   UNL     1       5.723   3.400  12.541  0.00  0.00    +0.000 A 
ATOM     24  C   UNL     1       5.137   3.756  13.761  0.00  0.00    +0.000 A 
ENDBRANCH  16  19
ENDBRANCH   7  13
BRANCH  10  25
ATOM     25  C   UNL     1       1.291  12.014  18.706  0.00  0.00    +0.000 C 
BRANCH  25  26
ATOM     26  C   UNL     1       2.549  12.880  18.440  0.00  0.00    +0.000 C 
BRANCH  26  27
ATOM     27  N   UNL     1       2.237  14.269  18.041  0.00  0.00    +0.000 NA
ATOM     28  C   UNL     1       3.464  15.076  17.911  0.00  0.00    +0.000 C 
ATOM     29  C   UNL     1       3.436  16.066  19.062  0.00  0.00    +0.000 C 
ATOM     30  C   UNL     1       1.956  16.331  19.226  0.00  0.00    +0.000 C 
ATOM     31  C   UNL     1       1.357  14.955  19.006  0.00  0.00    +0.000 C 
ENDBRANCH  26  27
ENDBRANCH  25  26
ENDBRANCH  10  25
TORSDOF 5
ENDMDL
MODEL 2
REMARK VINA RESULT:      -8.1      3.523      9.985
REMARK  Name = 
REMARK  5 active torsions:
REMARK  status: ('A' for Active; 'I' for Inactive)
REMARK    1  A    between atoms: N_7  and  C_8
REMARK    2  A    between atoms: C_11  and  C_12
REMARK    3  A    between atoms: N_22  and  C_23
REMARK    4  A    between atoms: C_23  and  C_24
REMARK    5  A    between atoms: C_24  and  N_25
REMARK                            x       y       z     vdW  Elec       q    Type
REMARK                         _______ _______ _______ _____ _____    ______ ____
ROOT
ATOM      1 CL   UNL     1       6.927   4.287  15.081  0.00  0.00    +0.000 Cl
ATOM      2  C   UNL     1       5.787   5.302  15.878  0.00  0.00    +0.000 A 
ATOM      3  C   UNL     1       5.382   6.490  15.284  0.00  0.00    +0.000 A 
ATOM      4  C   UNL     1       4.449   7.297  15.932  0.00  0.00    +0.000 A 
ATOM      5  C   UNL     1       3.952   6.923  17.188  0.00  0.00    +0.000 A 
ATOM      6  C   UNL     1       2.902   7.772  17.851  0.00  0.00    +0.000 A 
ATOM      7  N   UNL     1       2.698   8.991  17.424  0.00  0.00    +0.000 NA
ATOM      8  C   UNL     1       2.180   7.087  18.963  0.00  0.00    +0.000 A 
ATOM      9  C   UNL     1       2.773   6.055  19.562  0.00  0.00    +0.000 A 
ATOM     10  N   UNL     1       3.936   5.443  19.143  0.00  0.00    +0.000 N 
ATOM     11  C   UNL     1       4.402   5.744  17.840  0.00  0.00    +0.000 A 
ATOM     12  C   UNL     1       5.290   4.923  17.128  0.00  0.00    +0.000 A 
ENDROOT
BRANCH   7  13
ATOM     13  C   UNL     1       1.746   9.814  18.052  0.00  0.00    +0.000 A 
ATOM     14  C   UNL     1       2.093  11.010  18.676  0.00  0.00    +0.000 A 
ATOM     15  C   UNL     1       1.188  11.671  19.506  0.00  0.00    +0.000 A 
ATOM     16  C   UNL     1      -0.145  11.251  19.628  0.00  0.00    +0.000 A 
ATOM     17  C   UNL     1      -0.530  10.153  18.835  0.00  0.00    +0.000 A 
ATOM     18  C   UNL     1       0.406   9.432  18.074  0.00  0.00    +0.000 A 
BRANCH  16  19
ATOM     19  C   UNL     1      -1.068  11.919  20.579  0.00  0.00    +0.000 A 
ATOM     20  C   UNL     1      -1.230  11.452  21.899  0.00  0.00    +0.000 A 
ATOM     21  C   UNL     1      -2.151  12.026  22.780  0.00  0.00    +0.000 A 
ATOM     22  C   UNL     1      -2.923  13.106  22.370  0.00  0.00    +0.000 A 
ATOM     23  C   UNL     1      -2.780  13.603  21.078  0.00  0.00    +0.000 A 
ATOM     24  C   UNL     1      -1.870  13.011  20.195  0.00  0.00    +0.000 A 
ENDBRANCH  16  19
ENDBRANCH   7  13
BRANCH  10  25
ATOM     25  C   UNL     1       4.484   4.303  19.904  0.00  0.00    +0.000 C 
BRANCH  25  26
ATOM     26  C   UNL     1       4.149   2.918  19.294  0.00  0.00    +0.000 C 
BRANCH  26  27
ATOM     27  N   UNL     1       3.071   2.201  20.010  0.00  0.00    +0.000 NA
ATOM     28  C   UNL     1       1.818   2.209  19.234  0.00  0.00    +0.000 C 
ATOM     29  C   UNL     1       0.863   3.114  19.993  0.00  0.00    +0.000 C 
ATOM     30  C   UNL     1       1.266   2.876  21.431  0.00  0.00    +0.000 C 
ATOM     31  C   UNL     1       2.777   2.788  21.331  0.00  0.00    +0.000 C 
ENDBRANCH  26  27
ENDBRANCH  25  26
ENDBRANCH  10  25
TORSDOF 5
ENDMDL
MODEL 3
REMARK VINA RESULT:      -8.1      1.421      1.854
REMARK  Name = 
REMARK  5 active torsions:
REMARK  status: ('A' for Active; 'I' for Inactive)
REMARK    1  A    between atoms: N_7  and  C_8
REMARK    2  A    between atoms: C_11  and  C_12
REMARK    3  A    between atoms: N_22  and  C_23
REMARK    4  A    between atoms: C_23  and  C_24
REMARK    5  A    between atoms: C_24  and  N_25
REMARK                            x       y       z     vdW  Elec       q    Type
REMARK                         _______ _______ _______ _____ _____    ______ ____
ROOT
ATOM      1 CL   UNL     1      -0.940  10.019  23.289  0.00  0.00    +0.000 Cl
ATOM      2  C   UNL     1       0.043   9.342  22.049  0.00  0.00    +0.000 A 
ATOM      3  C   UNL     1       0.560   8.061  22.195  0.00  0.00    +0.000 A 
ATOM      4  C   UNL     1       1.344   7.518  21.179  0.00  0.00    +0.000 A 
ATOM      5  C   UNL     1       1.631   8.275  20.035  0.00  0.00    +0.000 A 
ATOM      6  C   UNL     1       2.429   7.658  18.920  0.00  0.00    +0.000 A 
ATOM      7  N   UNL     1       3.111   6.566  19.146  0.00  0.00    +0.000 NA
ATOM      8  C   UNL     1       2.336   8.395  17.625  0.00  0.00    +0.000 A 
ATOM      9  C   UNL     1       1.990   9.682  17.654  0.00  0.00    +0.000 A 
ATOM     10  N   UNL     1       1.543  10.369  18.763  0.00  0.00    +0.000 N 
ATOM     11  C   UNL     1       1.164   9.610  19.896  0.00  0.00    +0.000 A 
ATOM     12  C   UNL     1       0.323  10.099  20.908  0.00  0.00    +0.000 A 
ENDROOT
BRANCH   7  13
ATOM     13  C   UNL     1       3.892   5.990  18.128  0.00  0.00    +0.000 A 
ATOM     14  C   UNL     1       5.097   6.550  17.709  0.00  0.00    +0.000 A 
ATOM     15  C   UNL     1       5.716   6.117  16.537  0.00  0.00    +0.000 A 
ATOM     16  C   UNL     1       5.241   5.009  15.817  0.00  0.00    +0.000 A 
ATOM     17  C   UNL     1       4.133   4.335  16.364  0.00  0.00    +0.000 A 
ATOM     18  C   UNL     1       3.455   4.831  17.491  0.00  0.00    +0.000 A 
BRANCH  16  19
ATOM     19  C   UNL     1       5.866   4.616  14.529  0.00  0.00    +0.000 A 
ATOM     20  C   UNL     1       7.118   5.128  14.131  0.00  0.00    +0.000 A 
ATOM     21  C   UNL     1       7.681   4.824  12.888  0.00  0.00    +0.000 A 
ATOM     22  C   UNL     1       7.015   3.975  12.014  0.00  0.00    +0.000 A 
ATOM     23  C   UNL     1       5.784   3.440  12.379  0.00  0.00    +0.000 A 
ATOM     24  C   UNL     1       5.217   3.763  13.616  0.00  0.00    +0.000 A 
ENDBRANCH  16  19
ENDBRANCH   7  13
BRANCH  10  25
ATOM     25  C   UNL     1       1.192  11.798  18.651  0.00  0.00    +0.000 C 
BRANCH  25  26
ATOM     26  C   UNL     1      -0.310  12.059  18.371  0.00  0.00    +0.000 C 
BRANCH  26  27
ATOM     27  N   UNL     1      -0.857  13.218  19.109  0.00  0.00    +0.000 NA
ATOM     28  C   UNL     1       0.168  13.834  19.972  0.00  0.00    +0.000 C 
ATOM     29  C   UNL     1      -0.249  13.525  21.399  0.00  0.00    +0.000 C 
ATOM     30  C   UNL     1      -1.758  13.533  21.305  0.00  0.00    +0.000 C 
ATOM     31  C   UNL     1      -2.000  12.858  19.968  0.00  0.00    +0.000 C 
ENDBRANCH  26  27
ENDBRANCH  25  26
ENDBRANCH  10  25
TORSDOF 5
ENDMDL
MODEL 4
REMARK VINA RESULT:      -8.1      1.890      2.903
REMARK  Name = 
REMARK  5 active torsions:
REMARK  status: ('A' for Active; 'I' for Inactive)
REMARK    1  A    between atoms: N_7  and  C_8
REMARK    2  A    between atoms: C_11  and  C_12
REMARK    3  A    between atoms: N_22  and  C_23
REMARK    4  A    between atoms: C_23  and  C_24
REMARK    5  A    between atoms: C_24  and  N_25
REMARK                            x       y       z     vdW  Elec       q    Type
REMARK                         _______ _______ _______ _____ _____    ______ ____
ROOT
ATOM      1 CL   UNL     1      -1.167  10.122  23.381  0.00  0.00    +0.000 Cl
ATOM      2  C   UNL     1      -0.176   9.448  22.146  0.00  0.00    +0.000 A 
ATOM      3  C   UNL     1       0.466   8.234  22.357  0.00  0.00    +0.000 A 
ATOM      4  C   UNL     1       1.256   7.691  21.345  0.00  0.00    +0.000 A 
ATOM      5  C   UNL     1       1.424   8.384  20.139  0.00  0.00    +0.000 A 
ATOM      6  C   UNL     1       2.231   7.762  19.034  0.00  0.00    +0.000 A 
ATOM      7  N   UNL     1       3.022   6.757  19.303  0.00  0.00    +0.000 NA
ATOM      8  C   UNL     1       2.015   8.389  17.696  0.00  0.00    +0.000 A 
ATOM      9  C   UNL     1       1.550   9.637  17.651  0.00  0.00    +0.000 A 
ATOM     10  N   UNL     1       1.085  10.362  18.728  0.00  0.00    +0.000 N 
ATOM     11  C   UNL     1       0.827   9.657  19.929  0.00  0.00    +0.000 A 
ATOM     12  C   UNL     1      -0.015  10.140  20.943  0.00  0.00    +0.000 A 
ENDROOT
BRANCH   7  13
ATOM     13  C   UNL     1       3.811   6.182  18.291  0.00  0.00    +0.000 A 
ATOM     14  C   UNL     1       4.905   6.842  17.737  0.00  0.00    +0.000 A 
ATOM     15  C   UNL     1       5.508   6.370  16.570  0.00  0.00    +0.000 A 
ATOM     16  C   UNL     1       5.143   5.143  15.996  0.00  0.00    +0.000 A 
ATOM     17  C   UNL     1       4.168   4.395  16.682  0.00  0.00    +0.000 A 
ATOM     18  C   UNL     1       3.496   4.916  17.802  0.00  0.00    +0.000 A 
BRANCH  16  19
ATOM     19  C   UNL     1       5.739   4.699  14.710  0.00  0.00    +0.000 A 
ATOM     20  C   UNL     1       7.024   5.118  14.311  0.00  0.00    +0.000 A 
ATOM     21  C   UNL     1       7.564   4.769  13.070  0.00  0.00    +0.000 A 
ATOM     22  C   UNL     1       6.839   3.965  12.199  0.00  0.00    +0.000 A 
ATOM     23  C   UNL     1       5.573   3.522  12.565  0.00  0.00    +0.000 A 
ATOM     24  C   UNL     1       5.030   3.891  13.801  0.00  0.00    +0.000 A 
ENDBRANCH  16  19
ENDBRANCH   7  13
BRANCH  10  25
ATOM     25  C   UNL     1       0.596  11.740  18.533  0.00  0.00    +0.000 C 
BRANCH  25  26
ATOM     26  C   UNL     1      -0.638  11.845  17.601  0.00  0.00    +0.000 C 
BRANCH  26  27
ATOM     27  N   UNL     1      -1.824  11.120  18.105  0.00  0.00    +0.000 NA
ATOM     28  C   UNL     1      -2.683  10.664  16.996  0.00  0.00    +0.000 C 
ATOM     29  C   UNL     1      -3.944  11.505  17.072  0.00  0.00    +0.000 C 
ATOM     30  C   UNL     1      -4.095  11.730  18.560  0.00  0.00    +0.000 C 
ATOM     31  C   UNL     1      -2.658  11.944  18.999  0.00  0.00    +0.000 C 
ENDBRANCH  26  27
ENDBRANCH  25  26
ENDBRANCH  10  25
TORSDOF 5
ENDMDL
MODEL 5
REMARK VINA RESULT:      -8.0      3.978      5.824
REMARK  Name = 
REMARK  5 active torsions:
REMARK  status: ('A' for Active; 'I' for Inactive)
REMARK    1  A    between atoms: N_7  and  C_8
REMARK    2  A    between atoms: C_11  and  C_12
REMARK    3  A    between atoms: N_22  and  C_23
REMARK    4  A    between atoms: C_23  and  C_24
REMARK    5  A    between atoms: C_24  and  N_25
REMARK                            x       y       z     vdW  Elec       q    Type
REMARK                         _______ _______ _______ _____ _____    ______ ____
ROOT
ATOM      1 CL   UNL     1      -3.222  14.768  22.748  0.00  0.00    +0.000 Cl
ATOM      2  C   UNL     1      -2.400  13.524  21.888  0.00  0.00    +0.000 A 
ATOM      3  C   UNL     1      -1.174  13.057  22.345  0.00  0.00    +0.000 A 
ATOM      4  C   UNL     1      -0.524  12.040  21.648  0.00  0.00    +0.000 A 
ATOM      5  C   UNL     1      -1.092  11.519  20.478  0.00  0.00    +0.000 A 
ATOM      6  C   UNL     1      -0.410  10.383  19.767  0.00  0.00    +0.000 A 
ATOM      7  N   UNL     1       0.837  10.108  20.044  0.00  0.00    +0.000 NA
ATOM      8  C   UNL     1      -1.283   9.666  18.791  0.00  0.00    +0.000 A 
ATOM      9  C   UNL     1      -2.343  10.308  18.300  0.00  0.00    +0.000 A 
ATOM     10  N   UNL     1      -2.815  11.529  18.733  0.00  0.00    +0.000 N 
ATOM     11  C   UNL     1      -2.314  12.027  19.960  0.00  0.00    +0.000 A 
ATOM     12  C   UNL     1      -2.972  13.003  20.725  0.00  0.00    +0.000 A 
ENDROOT
BRANCH   7  13
ATOM     13  C   UNL     1       1.504   9.071  19.367  0.00  0.00    +0.000 A 
ATOM     14  C   UNL     1       1.780   7.847  19.970  0.00  0.00    +0.000 A 
ATOM     15  C   UNL     1       2.660   6.940  19.379  0.00  0.00    +0.000 A 
ATOM     16  C   UNL     1       3.182   7.151  18.093  0.00  0.00    +0.000 A 
ATOM     17  C   UNL     1       2.736   8.303  17.417  0.00  0.00    +0.000 A 
ATOM     18  C   UNL     1       1.926   9.260  18.053  0.00  0.00    +0.000 A 
BRANCH  16  19
ATOM     19  C   UNL     1       4.181   6.216  17.516  0.00  0.00    +0.000 A 
ATOM     20  C   UNL     1       4.553   5.032  18.184  0.00  0.00    +0.000 A 
ATOM     21  C   UNL     1       5.546   4.183  17.688  0.00  0.00    +0.000 A 
ATOM     22  C   UNL     1       6.180   4.484  16.489  0.00  0.00    +0.000 A 
ATOM     23  C   UNL     1       5.828   5.636  15.795  0.00  0.00    +0.000 A 
ATOM     24  C   UNL     1       4.847   6.492  16.307  0.00  0.00    +0.000 A 
ENDBRANCH  16  19
ENDBRANCH   7  13
BRANCH  10  25
ATOM     25  C   UNL     1      -4.005  12.126  18.097  0.00  0.00    +0.000 C 
BRANCH  25  26
ATOM     26  C   UNL     1      -5.103  11.098  17.722  0.00  0.00    +0.000 C 
BRANCH  26  27
ATOM     27  N   UNL     1      -6.417  11.386  18.336  0.00  0.00    +0.000 NA
ATOM     28  C   UNL     1      -6.326  12.502  19.295  0.00  0.00    +0.000 C 
ATOM     29  C   UNL     1      -6.522  11.887  20.670  0.00  0.00    +0.000 C 
ATOM     30  C   UNL     1      -7.485  10.757  20.384  0.00  0.00    +0.000 C 
ATOM     31  C   UNL     1      -6.975  10.227  19.057  0.00  0.00    +0.000 C 
ENDBRANCH  26  27
ENDBRANCH  25  26
ENDBRANCH  10  25
TORSDOF 5
ENDMDL
MODEL 6
REMARK VINA RESULT:      -8.0      3.772     10.197
REMARK  Name = 
REMARK  5 active torsions:
REMARK  status: ('A' for Active; 'I' for Inactive)
REMARK    1  A    between atoms: N_7  and  C_8
REMARK    2  A    between atoms: C_11  and  C_12
REMARK    3  A    between atoms: N_22  and  C_23
REMARK    4  A    between atoms: C_23  and  C_24
REMARK    5  A    between atoms: C_24  and  N_25
REMARK                            x       y       z     vdW  Elec       q    Type
REMARK                         _______ _______ _______ _____ _____    ______ ____
ROOT
ATOM      1 CL   UNL     1       7.032   4.556  15.074  0.00  0.00    +0.000 Cl
ATOM      2  C   UNL     1       5.823   5.338  16.016  0.00  0.00    +0.000 A 
ATOM      3  C   UNL     1       5.320   6.570  15.618  0.00  0.00    +0.000 A 
ATOM      4  C   UNL     1       4.332   7.187  16.382  0.00  0.00    +0.000 A 
ATOM      5  C   UNL     1       3.875   6.580  17.560  0.00  0.00    +0.000 A 
ATOM      6  C   UNL     1       2.768   7.227  18.345  0.00  0.00    +0.000 A 
ATOM      7  N   UNL     1       2.465   8.478  18.117  0.00  0.00    +0.000 NA
ATOM      8  C   UNL     1       2.110   6.319  19.330  0.00  0.00    +0.000 A 
ATOM      9  C   UNL     1       2.788   5.254  19.759  0.00  0.00    +0.000 A 
ATOM     10  N   UNL     1       3.991   4.810  19.253  0.00  0.00    +0.000 N 
ATOM     11  C   UNL     1       4.422   5.351  18.017  0.00  0.00    +0.000 A 
ATOM     12  C   UNL     1       5.367   4.726  17.187  0.00  0.00    +0.000 A 
ENDROOT
BRANCH   7  13
ATOM     13  C   UNL     1       1.456   9.113  18.863  0.00  0.00    +0.000 A 
ATOM     14  C   UNL     1       0.378   9.755  18.258  0.00  0.00    +0.000 A 
ATOM     15  C   UNL     1      -0.461  10.591  18.995  0.00  0.00    +0.000 A 
ATOM     16  C   UNL     1      -0.351  10.701  20.390  0.00  0.00    +0.000 A 
ATOM     17  C   UNL     1       0.620   9.892  21.009  0.00  0.00    +0.000 A 
ATOM     18  C   UNL     1       1.525   9.125  20.254  0.00  0.00    +0.000 A 
BRANCH  16  19
ATOM     19  C   UNL     1      -1.199  11.659  21.145  0.00  0.00    +0.000 A 
ATOM     20  C   UNL     1      -1.936  12.666  20.489  0.00  0.00    +0.000 A 
ATOM     21  C   UNL     1      -2.677  13.619  21.193  0.00  0.00    +0.000 A 
ATOM     22  C   UNL     1      -2.723  13.575  22.581  0.00  0.00    +0.000 A 
ATOM     23  C   UNL     1      -2.020  12.587  23.261  0.00  0.00    +0.000 A 
ATOM     24  C   UNL     1      -1.264  11.647  22.551  0.00  0.00    +0.000 A 
ENDBRANCH  16  19
ENDBRANCH   7  13
BRANCH  10  25
ATOM     25  C   UNL     1       4.633   3.611  19.825  0.00  0.00    +0.000 C 
BRANCH  25  26
ATOM     26  C   UNL     1       3.698   2.763  20.725  0.00  0.00    +0.000 C 
BRANCH  26  27
ATOM     27  N   UNL     1       2.827   1.838  19.968  0.00  0.00    +0.000 NA
ATOM     28  C   UNL     1       3.297   1.678  18.579  0.00  0.00    +0.000 C 
ATOM     29  C   UNL     1       2.262   2.368  17.707  0.00  0.00    +0.000 C 
ATOM     30  C   UNL     1       0.980   2.123  18.470  0.00  0.00    +0.000 C 
ATOM     31  C   UNL     1       1.425   2.295  19.910  0.00  0.00    +0.000 C 
ENDBRANCH  26  27
ENDBRANCH  25  26
ENDBRANCH  10  25
TORSDOF 5
ENDMDL
MODEL 7
REMARK VINA RESULT:      -7.8      3.757     10.085
REMARK  Name = 
REMARK  5 active torsions:
REMARK  status: ('A' for Active; 'I' for Inactive)
REMARK    1  A    between atoms: N_7  and  C_8
REMARK    2  A    between atoms: C_11  and  C_12
REMARK    3  A    between atoms: N_22  and  C_23
REMARK    4  A    between atoms: C_23  and  C_24
REMARK    5  A    between atoms: C_24  and  N_25
REMARK                            x       y       z     vdW  Elec       q    Type
REMARK                         _______ _______ _______ _____ _____    ______ ____
ROOT
ATOM      1 CL   UNL     1       7.461   4.617  14.837  0.00  0.00    +0.000 Cl
ATOM      2  C   UNL     1       6.146   5.319  15.698  0.00  0.00    +0.000 A 
ATOM      3  C   UNL     1       6.058   6.698  15.827  0.00  0.00    +0.000 A 
ATOM      4  C   UNL     1       4.983   7.257  16.515  0.00  0.00    +0.000 A 
ATOM      5  C   UNL     1       4.017   6.425  17.098  0.00  0.00    +0.000 A 
ATOM      6  C   UNL     1       2.831   7.039  17.787  0.00  0.00    +0.000 A 
ATOM      7  N   UNL     1       2.864   8.302  18.119  0.00  0.00    +0.000 NA
ATOM      8  C   UNL     1       1.701   6.090  18.013  0.00  0.00    +0.000 A 
ATOM      9  C   UNL     1       1.966   4.784  18.035  0.00  0.00    +0.000 A 
ATOM     10  N   UNL     1       3.172   4.204  17.702  0.00  0.00    +0.000 N 
ATOM     11  C   UNL     1       4.124   5.009  17.031  0.00  0.00    +0.000 A 
ATOM     12  C   UNL     1       5.183   4.486  16.274  0.00  0.00    +0.000 A 
ENDROOT
BRANCH   7  13
ATOM     13  C   UNL     1       1.779   8.889  18.795  0.00  0.00    +0.000 A 
ATOM     14  C   UNL     1       0.909   9.781  18.171  0.00  0.00    +0.000 A 
ATOM     15  C   UNL     1       0.010  10.542  18.917  0.00  0.00    +0.000 A 
ATOM     16  C   UNL     1      -0.166  10.337  20.295  0.00  0.00    +0.000 A 
ATOM     17  C   UNL     1       0.583   9.294  20.873  0.00  0.00    +0.000 A 
ATOM     18  C   UNL     1       1.557   8.595  20.139  0.00  0.00    +0.000 A 
BRANCH  16  19
ATOM     19  C   UNL     1      -1.068  11.213  21.084  0.00  0.00    +0.000 A 
ATOM     20  C   UNL     1      -1.898  12.166  20.462  0.00  0.00    +0.000 A 
ATOM     21  C   UNL     1      -2.695  13.048  21.199  0.00  0.00    +0.000 A 
ATOM     22  C   UNL     1      -2.702  12.982  22.586  0.00  0.00    +0.000 A 
ATOM     23  C   UNL     1      -1.905  12.043  23.234  0.00  0.00    +0.000 A 
ATOM     24  C   UNL     1      -1.095  11.177  22.491  0.00  0.00    +0.000 A 
ENDBRANCH  16  19
ENDBRANCH   7  13
BRANCH  10  25
ATOM     25  C   UNL     1       3.327   2.738  17.770  0.00  0.00    +0.000 C 
BRANCH  25  26
ATOM     26  C   UNL     1       2.035   1.985  18.178  0.00  0.00    +0.000 C 
BRANCH  26  27
ATOM     27  N   UNL     1       1.922   1.748  19.633  0.00  0.00    +0.000 NA
ATOM     28  C   UNL     1       0.758   2.453  20.201  0.00  0.00    +0.000 C 
ATOM     29  C   UNL     1       1.325   3.570  21.060  0.00  0.00    +0.000 C 
ATOM     30  C   UNL     1       2.603   2.957  21.585  0.00  0.00    +0.000 C 
ATOM     31  C   UNL     1       3.115   2.196  20.377  0.00  0.00    +0.000 C 
ENDBRANCH  26  27
ENDBRANCH  25  26
ENDBRANCH  10  25
TORSDOF 5
ENDMDL
MODEL 8
REMARK VINA RESULT:      -7.7      2.954      8.850
REMARK  Name = 
REMARK  5 active torsions:
REMARK  status: ('A' for Active; 'I' for Inactive)
REMARK    1  A    between atoms: N_7  and  C_8
REMARK    2  A    between atoms: C_11  and  C_12
REMARK    3  A    between atoms: N_22  and  C_23
REMARK    4  A    between atoms: C_23  and  C_24
REMARK    5  A    between atoms: C_24  and  N_25
REMARK                            x       y       z     vdW  Elec       q    Type
REMARK                         _______ _______ _______ _____ _____    ______ ____
ROOT
ATOM      1 CL   UNL     1       3.507   1.623  20.286  0.00  0.00    +0.000 Cl
ATOM      2  C   UNL     1       3.116   3.281  20.038  0.00  0.00    +0.000 A 
ATOM      3  C   UNL     1       2.249   3.927  20.909  0.00  0.00    +0.000 A 
ATOM      4  C   UNL     1       1.950   5.273  20.707  0.00  0.00    +0.000 A 
ATOM      5  C   UNL     1       2.498   5.955  19.612  0.00  0.00    +0.000 A 
ATOM      6  C   UNL     1       2.214   7.422  19.437  0.00  0.00    +0.000 A 
ATOM      7  N   UNL     1       1.227   7.968  20.096  0.00  0.00    +0.000 NA
ATOM      8  C   UNL     1       3.143   8.112  18.494  0.00  0.00    +0.000 A 
ATOM      9  C   UNL     1       3.786   7.376  17.587  0.00  0.00    +0.000 A 
ATOM     10  N   UNL     1       3.805   5.998  17.538  0.00  0.00    +0.000 N 
ATOM     11  C   UNL     1       3.336   5.295  18.674  0.00  0.00    +0.000 A 
ATOM     12  C   UNL     1       3.669   3.959  18.948  0.00  0.00    +0.000 A 
ENDROOT
BRANCH   7  13
ATOM     13  C   UNL     1       0.923   9.330  19.921  0.00  0.00    +0.000 A 
ATOM     14  C   UNL     1       0.527   9.851  18.691  0.00  0.00    +0.000 A 
ATOM     15  C   UNL     1       0.484  11.230  18.480  0.00  0.00    +0.000 A 
ATOM     16  C   UNL     1       0.686  12.143  19.527  0.00  0.00    +0.000 A 
ATOM     17  C   UNL     1       0.891  11.594  20.806  0.00  0.00    +0.000 A 
ATOM     18  C   UNL     1       1.029  10.208  20.997  0.00  0.00    +0.000 A 
BRANCH  16  19
ATOM     19  C   UNL     1       0.717  13.604  19.264  0.00  0.00    +0.000 A 
ATOM     20  C   UNL     1      -0.460  14.379  19.270  0.00  0.00    +0.000 A 
ATOM     21  C   UNL     1      -0.454  15.740  18.950  0.00  0.00    +0.000 A 
ATOM     22  C   UNL     1       0.743  16.372  18.637  0.00  0.00    +0.000 A 
ATOM     23  C   UNL     1       1.927  15.642  18.635  0.00  0.00    +0.000 A 
ATOM     24  C   UNL     1       1.910  14.276  18.937  0.00  0.00    +0.000 A 
ENDBRANCH  16  19
ENDBRANCH   7  13
BRANCH  10  25
ATOM     25  C   UNL     1       4.562   5.309  16.474  0.00  0.00    +0.000 C 
BRANCH  25  26
ATOM     26  C   UNL     1       5.616   6.202  15.772  0.00  0.00    +0.000 C 
BRANCH  26  27
ATOM     27  N   UNL     1       6.966   6.104  16.368  0.00  0.00    +0.000 NA
ATOM     28  C   UNL     1       7.125   4.850  17.127  0.00  0.00    +0.000 C 
ATOM     29  C   UNL     1       7.192   5.253  18.590  0.00  0.00    +0.000 C 
ATOM     30  C   UNL     1       7.885   6.596  18.524  0.00  0.00    +0.000 C 
ATOM     31  C   UNL     1       7.263   7.218  17.288  0.00  0.00    +0.000 C 
ENDBRANCH  26  27
ENDBRANCH  25  26
ENDBRANCH  10  25
TORSDOF 5
ENDMDL
MODEL 9
REMARK VINA RESULT:      -7.5      3.600     10.053
REMARK  Name = 
REMARK  5 active torsions:
REMARK  status: ('A' for Active; 'I' for Inactive)
REMARK    1  A    between atoms: N_7  and  C_8
REMARK    2  A    between atoms: C_11  and  C_12
REMARK    3  A    between atoms: N_22  and  C_23
REMARK    4  A    between atoms: C_23  and  C_24
REMARK    5  A    between atoms: C_24  and  N_25
REMARK                            x       y       z     vdW  Elec       q    Type
REMARK                         _______ _______ _______ _____ _____    ______ ____
ROOT
ATOM      1 CL   UNL     1       6.898   4.437  14.986  0.00  0.00    +0.000 Cl
ATOM      2  C   UNL     1       5.744   5.382  15.845  0.00  0.00    +0.000 A 
ATOM      3  C   UNL     1       5.314   6.595  15.324  0.00  0.00    +0.000 A 
ATOM      4  C   UNL     1       4.369   7.345  16.022  0.00  0.00    +0.000 A 
ATOM      5  C   UNL     1       3.886   6.890  17.255  0.00  0.00    +0.000 A 
ATOM      6  C   UNL     1       2.825   7.679  17.971  0.00  0.00    +0.000 A 
ATOM      7  N   UNL     1       2.596   8.916  17.617  0.00  0.00    +0.000 NA
ATOM      8  C   UNL     1       2.121   6.917  19.044  0.00  0.00    +0.000 A 
ATOM      9  C   UNL     1       2.736   5.863  19.579  0.00  0.00    +0.000 A 
ATOM     10  N   UNL     1       3.907   5.298  19.120  0.00  0.00    +0.000 N 
ATOM     11  C   UNL     1       4.361   5.683  17.836  0.00  0.00    +0.000 A 
ATOM     12  C   UNL     1       5.261   4.921  17.073  0.00  0.00    +0.000 A 
ENDROOT
BRANCH   7  13
ATOM     13  C   UNL     1       1.631   9.683  18.295  0.00  0.00    +0.000 A 
ATOM     14  C   UNL     1       0.265   9.446  18.162  0.00  0.00    +0.000 A 
ATOM     15  C   UNL     1      -0.669  10.370  18.629  0.00  0.00    +0.000 A 
ATOM     16  C   UNL     1      -0.286  11.491  19.381  0.00  0.00    +0.000 A 
ATOM     17  C   UNL     1       1.086  11.610  19.674  0.00  0.00    +0.000 A 
ATOM     18  C   UNL     1       2.033  10.731  19.121  0.00  0.00    +0.000 A 
BRANCH  16  19
ATOM     19  C   UNL     1      -1.288  12.505  19.798  0.00  0.00    +0.000 A 
ATOM     20  C   UNL     1      -0.899  13.776  20.266  0.00  0.00    +0.000 A 
ATOM     21  C   UNL     1      -1.828  14.710  20.732  0.00  0.00    +0.000 A 
ATOM     22  C   UNL     1      -3.184  14.405  20.719  0.00  0.00    +0.000 A 
ATOM     23  C   UNL     1      -3.605  13.165  20.251  0.00  0.00    +0.000 A 
ATOM     24  C   UNL     1      -2.668  12.227  19.804  0.00  0.00    +0.000 A 
ENDBRANCH  16  19
ENDBRANCH   7  13
BRANCH  10  25
ATOM     25  C   UNL     1       4.480   4.127  19.812  0.00  0.00    +0.000 C 
BRANCH  25  26
ATOM     26  C   UNL     1       4.041   2.765  19.215  0.00  0.00    +0.000 C 
BRANCH  26  27
ATOM     27  N   UNL     1       2.995   2.082  20.006  0.00  0.00    +0.000 NA
ATOM     28  C   UNL     1       1.690   2.130  19.320  0.00  0.00    +0.000 C 
ATOM     29  C   UNL     1       0.821   3.064  20.143  0.00  0.00    +0.000 C 
ATOM     30  C   UNL     1       1.316   2.813  21.549  0.00  0.00    +0.000 C 
ATOM     31  C   UNL     1       2.813   2.677  21.343  0.00  0.00    +0.000 C 
ENDBRANCH  26  27
ENDBRANCH  25  26
ENDBRANCH  10  25
TORSDOF 5
ENDMDL
