MODEL 1
REMARK VINA RESULT:      -7.5      0.000      0.000
REMARK  Name = 
REMARK  10 active torsions:
REMARK  status: ('A' for Active; 'I' for Inactive)
REMARK    1  A    between atoms: C_1  and  O_2
REMARK    2  A    between atoms: O_2  and  C_3
REMARK    3  A    between atoms: C_6  and  C_7
REMARK    4  A    between atoms: C_10  and  O_11
REMARK    5  A    between atoms: O_11  and  C_12
REMARK    6  A    between atoms: C_12  and  C_13
REMARK    7  A    between atoms: C_13  and  O_14
REMARK    8  A    between atoms: C_13  and  C_15
REMARK    9  A    between atoms: C_13  and  C_21
REMARK   10  A    between atoms: C_15  and  N_16
REMARK                            x       y       z     vdW  Elec       q    Type
REMARK                         _______ _______ _______ _____ _____    ______ ____
ROOT
ATOM      1  C   UNL     1       5.389   4.078  16.254  0.00  0.00    +0.000 C 
ENDROOT
BRANCH   1   2
ATOM      2  C   UNL     1       6.307   5.118  16.934  0.00  0.00    +0.000 A 
ATOM      3  C   UNL     1       7.251   4.710  17.899  0.00  0.00    +0.000 A 
ATOM      4  C   UNL     1       8.043   5.650  18.574  0.00  0.00    +0.000 A 
ATOM      5  C   UNL     1       7.891   7.005  18.319  0.00  0.00    +0.000 A 
ATOM      6  F   UNL     1       8.630   7.899  18.987  0.00  0.00    +0.000 F 
ATOM      7  C   UNL     1       6.974   7.441  17.383  0.00  0.00    +0.000 A 
ATOM      8  C   UNL     1       6.205   6.505  16.702  0.00  0.00    +0.000 A 
ATOM      9  F   UNL     1       5.346   7.010  15.808  0.00  0.00    +0.000 F 
ENDBRANCH   1   2
BRANCH   1  10
ATOM     10  O   UNL     1       6.269   2.973  15.921  0.00  0.00    +0.000 OA
ATOM     11  H   UNL     1       7.012   3.003  16.554  0.00  0.00    +0.000 HD
ENDBRANCH   1  10
BRANCH   1  12
ATOM     12  C   UNL     1       4.307   3.534  17.229  0.00  0.00    +0.000 C 
BRANCH  12  13
ATOM     13  O   UNL     1       3.022   4.146  17.118  0.00  0.00    +0.000 OA
BRANCH  13  19
ATOM     14  C   UNL     1       2.301   4.617  19.495  0.00  0.00    +0.000 A 
ATOM     15  C   UNL     1       2.062   5.615  20.454  0.00  0.00    +0.000 A 
ATOM     16  C   UNL     1       2.079   6.956  20.095  0.00  0.00    +0.000 A 
ATOM     17  C   UNL     1       2.384   7.309  18.782  0.00  0.00    +0.000 A 
ATOM     18  C   UNL     1       2.712   6.331  17.836  0.00  0.00    +0.000 A 
ATOM     19  C   UNL     1       2.679   4.973  18.179  0.00  0.00    +0.000 A 
BRANCH  14  21
ATOM     20  C   UNL     1       1.200   2.971  20.820  0.00  0.00    +0.000 C 
ATOM     21  O   UNL     1       2.217   3.304  19.873  0.00  0.00    +0.000 OA
ENDBRANCH  14  21
BRANCH  17  22
ATOM     22  C   UNL     1       2.347   8.728  18.383  0.00  0.00    +0.000 C 
ATOM     23  O   UNL     1       2.020   9.076  17.255  0.00  0.00    +0.000 OA
ENDBRANCH  17  22
ENDBRANCH  13  19
ENDBRANCH  12  13
ENDBRANCH   1  12
BRANCH   1  24
ATOM     24  C   UNL     1       4.789   4.556  14.911  0.00  0.00    +0.000 C 
BRANCH  24  25
ATOM     25  N   UNL     1       5.442   4.064  13.725  0.00  0.00    +0.000 N 
ATOM     26  C   UNL     1       4.886   3.405  12.673  0.00  0.00    +0.000 A 
ATOM     27  N   UNL     1       5.791   3.228  11.739  0.00  0.00    +0.000 NA
ATOM     28  C   UNL     1       6.897   3.830  12.265  0.00  0.00    +0.000 A 
ATOM     29  N   UNL     1       6.727   4.368  13.476  0.00  0.00    +0.000 NA
ENDBRANCH  24  25
ENDBRANCH   1  24
TORSDOF 9
ENDMDL
MODEL 2
REMARK VINA RESULT:      -7.4      1.354      1.716
REMARK  Name = 
REMARK  10 active torsions:
REMARK  status: ('A' for Active; 'I' for Inactive)
REMARK    1  A    between atoms: C_1  and  O_2
REMARK    2  A    between atoms: O_2  and  C_3
REMARK    3  A    between atoms: C_6  and  C_7
REMARK    4  A    between atoms: C_10  and  O_11
REMARK    5  A    between atoms: O_11  and  C_12
REMARK    6  A    between atoms: C_12  and  C_13
REMARK    7  A    between atoms: C_13  and  O_14
REMARK    8  A    between atoms: C_13  and  C_15
REMARK    9  A    between atoms: C_13  and  C_21
REMARK   10  A    between atoms: C_15  and  N_16
REMARK                            x       y       z     vdW  Elec       q    Type
REMARK                         _______ _______ _______ _____ _____    ______ ____
ROOT
ATOM      1  C   UNL     1       6.160   4.903  17.023  0.00  0.00    +0.000 C 
ENDROOT
BRANCH   1   2
ATOM      2  C   UNL     1       6.877   6.151  17.584  0.00  0.00    +0.000 A 
ATOM      3  C   UNL     1       6.689   7.411  16.980  0.00  0.00    +0.000 A 
ATOM      4  C   UNL     1       7.385   8.540  17.434  0.00  0.00    +0.000 A 
ATOM      5  C   UNL     1       8.295   8.428  18.475  0.00  0.00    +0.000 A 
ATOM      6  F   UNL     1       8.979   9.503  18.886  0.00  0.00    +0.000 F 
ATOM      7  C   UNL     1       8.508   7.208  19.089  0.00  0.00    +0.000 A 
ATOM      8  C   UNL     1       7.801   6.096  18.648  0.00  0.00    +0.000 A 
ATOM      9  F   UNL     1       8.061   4.957  19.300  0.00  0.00    +0.000 F 
ENDBRANCH   1   2
BRANCH   1  10
ATOM     10  O   UNL     1       7.227   3.953  16.761  0.00  0.00    +0.000 OA
ATOM     11  H   UNL     1       7.400   3.983  15.801  0.00  0.00    +0.000 HD
ENDBRANCH   1  10
BRANCH   1  12
ATOM     12  C   UNL     1       5.211   4.259  18.072  0.00  0.00    +0.000 C 
BRANCH  12  13
ATOM     13  O   UNL     1       3.817   4.382  17.791  0.00  0.00    +0.000 OA
BRANCH  13  19
ATOM     14  C   UNL     1       2.488   4.896  19.881  0.00  0.00    +0.000 A 
ATOM     15  C   UNL     1       1.894   5.908  20.652  0.00  0.00    +0.000 A 
ATOM     16  C   UNL     1       1.819   7.209  20.171  0.00  0.00    +0.000 A 
ATOM     17  C   UNL     1       2.381   7.514  18.933  0.00  0.00    +0.000 A 
ATOM     18  C   UNL     1       3.055   6.537  18.193  0.00  0.00    +0.000 A 
ATOM     19  C   UNL     1       3.121   5.216  18.656  0.00  0.00    +0.000 A 
BRANCH  14  21
ATOM     20  C   UNL     1       1.402   2.778  19.970  0.00  0.00    +0.000 C 
ATOM     21  O   UNL     1       2.492   3.614  20.362  0.00  0.00    +0.000 OA
ENDBRANCH  14  21
BRANCH  17  22
ATOM     22  C   UNL     1       2.252   8.881  18.394  0.00  0.00    +0.000 C 
ATOM     23  O   UNL     1       1.966   9.090  17.221  0.00  0.00    +0.000 OA
ENDBRANCH  17  22
ENDBRANCH  13  19
ENDBRANCH  12  13
ENDBRANCH   1  12
BRANCH   1  24
ATOM     24  C   UNL     1       5.465   5.139  15.662  0.00  0.00    +0.000 C 
BRANCH  24  25
ATOM     25  N   UNL     1       6.224   4.759  14.498  0.00  0.00    +0.000 N 
ATOM     26  C   UNL     1       5.877   3.879  13.520  0.00  0.00    +0.000 A 
ATOM     27  N   UNL     1       6.787   3.895  12.574  0.00  0.00    +0.000 NA
ATOM     28  C   UNL     1       7.673   4.835  13.016  0.00  0.00    +0.000 A 
ATOM     29  N   UNL     1       7.362   5.402  14.185  0.00  0.00    +0.000 NA
ENDBRANCH  24  25
ENDBRANCH   1  24
TORSDOF 9
ENDMDL
MODEL 3
REMARK VINA RESULT:      -7.4      0.956      2.774
REMARK  Name = 
REMARK  10 active torsions:
REMARK  status: ('A' for Active; 'I' for Inactive)
REMARK    1  A    between atoms: C_1  and  O_2
REMARK    2  A    between atoms: O_2  and  C_3
REMARK    3  A    between atoms: C_6  and  C_7
REMARK    4  A    between atoms: C_10  and  O_11
REMARK    5  A    between atoms: O_11  and  C_12
REMARK    6  A    between atoms: C_12  and  C_13
REMARK    7  A    between atoms: C_13  and  O_14
REMARK    8  A    between atoms: C_13  and  C_15
REMARK    9  A    between atoms: C_13  and  C_21
REMARK   10  A    between atoms: C_15  and  N_16
REMARK                            x       y       z     vdW  Elec       q    Type
REMARK                         _______ _______ _______ _____ _____    ______ ____
ROOT
ATOM      1  C   UNL     1       5.411   4.025  16.087  0.00  0.00    +0.000 C 
ENDROOT
BRANCH   1   2
ATOM      2  C   UNL     1       6.303   5.052  16.819  0.00  0.00    +0.000 A 
ATOM      3  C   UNL     1       7.297   4.618  17.719  0.00  0.00    +0.000 A 
ATOM      4  C   UNL     1       8.067   5.541  18.442  0.00  0.00    +0.000 A 
ATOM      5  C   UNL     1       7.844   6.902  18.300  0.00  0.00    +0.000 A 
ATOM      6  F   UNL     1       8.563   7.778  19.013  0.00  0.00    +0.000 F 
ATOM      7  C   UNL     1       6.875   7.364  17.429  0.00  0.00    +0.000 A 
ATOM      8  C   UNL     1       6.128   6.447  16.700  0.00  0.00    +0.000 A 
ATOM      9  F   UNL     1       5.217   6.977  15.876  0.00  0.00    +0.000 F 
ENDBRANCH   1   2
BRANCH   1  10
ATOM     10  O   UNL     1       6.292   2.903  15.814  0.00  0.00    +0.000 OA
ATOM     11  H   UNL     1       6.066   2.579  14.922  0.00  0.00    +0.000 HD
ENDBRANCH   1  10
BRANCH   1  12
ATOM     12  C   UNL     1       4.262   3.504  16.994  0.00  0.00    +0.000 C 
BRANCH  12  13
ATOM     13  O   UNL     1       3.108   4.342  17.060  0.00  0.00    +0.000 OA
BRANCH  13  19
ATOM     14  C   UNL     1       2.452   6.018  18.836  0.00  0.00    +0.000 A 
ATOM     15  C   UNL     1       2.018   6.187  20.161  0.00  0.00    +0.000 A 
ATOM     16  C   UNL     1       1.975   5.107  21.032  0.00  0.00    +0.000 A 
ATOM     17  C   UNL     1       2.322   3.839  20.568  0.00  0.00    +0.000 A 
ATOM     18  C   UNL     1       2.671   3.639  19.228  0.00  0.00    +0.000 A 
ATOM     19  C   UNL     1       2.737   4.723  18.342  0.00  0.00    +0.000 A 
BRANCH  14  21
ATOM     20  C   UNL     1       2.132   8.365  18.585  0.00  0.00    +0.000 C 
ATOM     21  O   UNL     1       2.537   7.116  18.022  0.00  0.00    +0.000 OA
ENDBRANCH  14  21
BRANCH  17  22
ATOM     22  C   UNL     1       2.333   2.701  21.504  0.00  0.00    +0.000 C 
ATOM     23  O   UNL     1       1.443   2.530  22.328  0.00  0.00    +0.000 OA
ENDBRANCH  17  22
ENDBRANCH  13  19
ENDBRANCH  12  13
ENDBRANCH   1  12
BRANCH   1  24
ATOM     24  C   UNL     1       4.905   4.505  14.708  0.00  0.00    +0.000 C 
BRANCH  24  25
ATOM     25  N   UNL     1       5.806   4.297  13.603  0.00  0.00    +0.000 N 
ATOM     26  C   UNL     1       6.977   4.939  13.343  0.00  0.00    +0.000 A 
ATOM     27  N   UNL     1       7.559   4.384  12.305  0.00  0.00    +0.000 NA
ATOM     28  C   UNL     1       6.702   3.374  11.976  0.00  0.00    +0.000 A 
ATOM     29  N   UNL     1       5.619   3.273  12.752  0.00  0.00    +0.000 NA
ENDBRANCH  24  25
ENDBRANCH   1  24
TORSDOF 9
ENDMDL
MODEL 4
REMARK VINA RESULT:      -7.3      1.882      3.440
REMARK  Name = 
REMARK  10 active torsions:
REMARK  status: ('A' for Active; 'I' for Inactive)
REMARK    1  A    between atoms: C_1  and  O_2
REMARK    2  A    between atoms: O_2  and  C_3
REMARK    3  A    between atoms: C_6  and  C_7
REMARK    4  A    between atoms: C_10  and  O_11
REMARK    5  A    between atoms: O_11  and  C_12
REMARK    6  A    between atoms: C_12  and  C_13
REMARK    7  A    between atoms: C_13  and  O_14
REMARK    8  A    between atoms: C_13  and  C_15
REMARK    9  A    between atoms: C_13  and  C_21
REMARK   10  A    between atoms: C_15  and  N_16
REMARK                            x       y       z     vdW  Elec       q    Type
REMARK                         _______ _______ _______ _____ _____    ______ ____
ROOT
ATOM      1  C   UNL     1       6.706   5.165  17.186  0.00  0.00    +0.000 C 
ENDROOT
BRANCH   1   2
ATOM      2  C   UNL     1       7.262   6.518  17.681  0.00  0.00    +0.000 A 
ATOM      3  C   UNL     1       6.944   7.710  17.000  0.00  0.00    +0.000 A 
ATOM      4  C   UNL     1       7.496   8.937  17.396  0.00  0.00    +0.000 A 
ATOM      5  C   UNL     1       8.390   8.991  18.456  0.00  0.00    +0.000 A 
ATOM      6  F   UNL     1       8.936  10.161  18.813  0.00  0.00    +0.000 F 
ATOM      7  C   UNL     1       8.727   7.842  19.145  0.00  0.00    +0.000 A 
ATOM      8  C   UNL     1       8.162   6.633  18.761  0.00  0.00    +0.000 A 
ATOM      9  F   UNL     1       8.537   5.570  19.484  0.00  0.00    +0.000 F 
ENDBRANCH   1   2
BRANCH   1  10
ATOM     10  O   UNL     1       7.879   4.414  16.776  0.00  0.00    +0.000 OA
ATOM     11  H   UNL     1       7.887   3.593  17.305  0.00  0.00    +0.000 HD
ENDBRANCH   1  10
BRANCH   1  12
ATOM     12  C   UNL     1       6.018   4.367  18.328  0.00  0.00    +0.000 C 
BRANCH  12  13
ATOM     13  O   UNL     1       5.213   5.142  19.216  0.00  0.00    +0.000 OA
BRANCH  13  19
ATOM     14  C   UNL     1       2.856   5.418  18.343  0.00  0.00    +0.000 A 
ATOM     15  C   UNL     1       1.539   4.934  18.398  0.00  0.00    +0.000 A 
ATOM     16  C   UNL     1       1.177   3.982  19.342  0.00  0.00    +0.000 A 
ATOM     17  C   UNL     1       2.145   3.473  20.206  0.00  0.00    +0.000 A 
ATOM     18  C   UNL     1       3.480   3.880  20.105  0.00  0.00    +0.000 A 
ATOM     19  C   UNL     1       3.855   4.855  19.171  0.00  0.00    +0.000 A 
BRANCH  14  21
ATOM     20  C   UNL     1       3.049   7.749  17.891  0.00  0.00    +0.000 C 
ATOM     21  O   UNL     1       3.162   6.400  17.438  0.00  0.00    +0.000 OA
ENDBRANCH  14  21
BRANCH  17  22
ATOM     22  C   UNL     1       1.753   2.506  21.248  0.00  0.00    +0.000 C 
ATOM     23  O   UNL     1       2.342   2.432  22.319  0.00  0.00    +0.000 OA
ENDBRANCH  17  22
ENDBRANCH  13  19
ENDBRANCH  12  13
ENDBRANCH   1  12
BRANCH   1  24
ATOM     24  C   UNL     1       5.818   5.277  15.925  0.00  0.00    +0.000 C 
BRANCH  24  25
ATOM     25  N   UNL     1       6.425   4.844  14.692  0.00  0.00    +0.000 N 
ATOM     26  C   UNL     1       5.969   3.907  13.817  0.00  0.00    +0.000 A 
ATOM     27  N   UNL     1       6.747   3.882  12.759  0.00  0.00    +0.000 NA
ATOM     28  C   UNL     1       7.664   4.856  13.029  0.00  0.00    +0.000 A 
ATOM     29  N   UNL     1       7.499   5.482  14.197  0.00  0.00    +0.000 NA
ENDBRANCH  24  25
ENDBRANCH   1  24
TORSDOF 9
ENDMDL
MODEL 5
REMARK VINA RESULT:      -7.2      3.569      5.813
REMARK  Name = 
REMARK  10 active torsions:
REMARK  status: ('A' for Active; 'I' for Inactive)
REMARK    1  A    between atoms: C_1  and  O_2
REMARK    2  A    between atoms: O_2  and  C_3
REMARK    3  A    between atoms: C_6  and  C_7
REMARK    4  A    between atoms: C_10  and  O_11
REMARK    5  A    between atoms: O_11  and  C_12
REMARK    6  A    between atoms: C_12  and  C_13
REMARK    7  A    between atoms: C_13  and  O_14
REMARK    8  A    between atoms: C_13  and  C_15
REMARK    9  A    between atoms: C_13  and  C_21
REMARK   10  A    between atoms: C_15  and  N_16
REMARK                            x       y       z     vdW  Elec       q    Type
REMARK                         _______ _______ _______ _____ _____    ______ ____
ROOT
ATOM      1  C   UNL     1       2.999   5.450  18.655  0.00  0.00    +0.000 C 
ENDROOT
BRANCH   1   2
ATOM      2  C   UNL     1       3.978   5.398  17.461  0.00  0.00    +0.000 A 
ATOM      3  C   UNL     1       4.240   4.177  16.808  0.00  0.00    +0.000 A 
ATOM      4  C   UNL     1       5.178   4.102  15.768  0.00  0.00    +0.000 A 
ATOM      5  C   UNL     1       5.885   5.231  15.382  0.00  0.00    +0.000 A 
ATOM      6  F   UNL     1       6.800   5.147  14.408  0.00  0.00    +0.000 F 
ATOM      7  C   UNL     1       5.658   6.444  16.002  0.00  0.00    +0.000 A 
ATOM      8  C   UNL     1       4.713   6.518  17.018  0.00  0.00    +0.000 A 
ATOM      9  F   UNL     1       4.549   7.730  17.561  0.00  0.00    +0.000 F 
ENDBRANCH   1   2
BRANCH   1  10
ATOM     10  O   UNL     1       3.852   5.478  19.829  0.00  0.00    +0.000 OA
ATOM     11  H   UNL     1       3.840   6.395  20.164  0.00  0.00    +0.000 HD
ENDBRANCH   1  10
BRANCH   1  12
ATOM     12  C   UNL     1       2.157   6.756  18.659  0.00  0.00    +0.000 C 
BRANCH  12  13
ATOM     13  O   UNL     1       2.468   7.680  19.701  0.00  0.00    +0.000 OA
BRANCH  13  19
ATOM     14  C   UNL     1       0.941   9.609  19.116  0.00  0.00    +0.000 A 
ATOM     15  C   UNL     1      -0.124  10.414  19.552  0.00  0.00    +0.000 A 
ATOM     16  C   UNL     1      -0.588  10.321  20.858  0.00  0.00    +0.000 A 
ATOM     17  C   UNL     1      -0.019   9.387  21.721  0.00  0.00    +0.000 A 
ATOM     18  C   UNL     1       0.982   8.516  21.276  0.00  0.00    +0.000 A 
ATOM     19  C   UNL     1       1.474   8.612  19.967  0.00  0.00    +0.000 A 
BRANCH  14  21
ATOM     20  C   UNL     1       2.507  10.669  17.667  0.00  0.00    +0.000 C 
ATOM     21  O   UNL     1       1.411   9.770  17.839  0.00  0.00    +0.000 OA
ENDBRANCH  14  21
BRANCH  17  22
ATOM     22  C   UNL     1      -0.470   9.325  23.124  0.00  0.00    +0.000 C 
ATOM     23  O   UNL     1       0.230   9.724  24.047  0.00  0.00    +0.000 OA
ENDBRANCH  17  22
ENDBRANCH  13  19
ENDBRANCH  12  13
ENDBRANCH   1  12
BRANCH   1  24
ATOM     24  C   UNL     1       2.125   4.182  18.802  0.00  0.00    +0.000 C 
BRANCH  24  25
ATOM     25  N   UNL     1       2.204   3.513  20.075  0.00  0.00    +0.000 N 
ATOM     26  C   UNL     1       1.233   3.391  21.021  0.00  0.00    +0.000 A 
ATOM     27  N   UNL     1       1.659   2.612  21.988  0.00  0.00    +0.000 NA
ATOM     28  C   UNL     1       2.908   2.256  21.568  0.00  0.00    +0.000 A 
ATOM     29  N   UNL     1       3.280   2.773  20.394  0.00  0.00    +0.000 NA
ENDBRANCH  24  25
ENDBRANCH   1  24
TORSDOF 9
ENDMDL
MODEL 6
REMARK VINA RESULT:      -7.1      1.021      1.303
REMARK  Name = 
REMARK  10 active torsions:
REMARK  status: ('A' for Active; 'I' for Inactive)
REMARK    1  A    between atoms: C_1  and  O_2
REMARK    2  A    between atoms: O_2  and  C_3
REMARK    3  A    between atoms: C_6  and  C_7
REMARK    4  A    between atoms: C_10  and  O_11
REMARK    5  A    between atoms: O_11  and  C_12
REMARK    6  A    between atoms: C_12  and  C_13
REMARK    7  A    between atoms: C_13  and  O_14
REMARK    8  A    between atoms: C_13  and  C_15
REMARK    9  A    between atoms: C_13  and  C_21
REMARK   10  A    between atoms: C_15  and  N_16
REMARK                            x       y       z     vdW  Elec       q    Type
REMARK                         _______ _______ _______ _____ _____    ______ ____
ROOT
ATOM      1  C   UNL     1       5.383   4.086  16.273  0.00  0.00    +0.000 C 
ENDROOT
BRANCH   1   2
ATOM      2  C   UNL     1       6.227   5.111  17.061  0.00  0.00    +0.000 A 
ATOM      3  C   UNL     1       6.751   6.249  16.414  0.00  0.00    +0.000 A 
ATOM      4  C   UNL     1       7.576   7.153  17.099  0.00  0.00    +0.000 A 
ATOM      5  C   UNL     1       7.912   6.925  18.426  0.00  0.00    +0.000 A 
ATOM      6  F   UNL     1       8.723   7.775  19.067  0.00  0.00    +0.000 F 
ATOM      7  C   UNL     1       7.420   5.819  19.091  0.00  0.00    +0.000 A 
ATOM      8  C   UNL     1       6.586   4.937  18.414  0.00  0.00    +0.000 A 
ATOM      9  F   UNL     1       6.149   3.896  19.132  0.00  0.00    +0.000 F 
ENDBRANCH   1   2
BRANCH   1  10
ATOM     10  O   UNL     1       6.317   3.031  15.925  0.00  0.00    +0.000 OA
ATOM     11  H   UNL     1       7.001   3.019  16.621  0.00  0.00    +0.000 HD
ENDBRANCH   1  10
BRANCH   1  12
ATOM     12  C   UNL     1       4.270   3.452  17.153  0.00  0.00    +0.000 C 
BRANCH  12  13
ATOM     13  O   UNL     1       2.981   4.055  17.038  0.00  0.00    +0.000 OA
BRANCH  13  19
ATOM     14  C   UNL     1       2.238   4.643  19.382  0.00  0.00    +0.000 A 
ATOM     15  C   UNL     1       2.028   5.685  20.301  0.00  0.00    +0.000 A 
ATOM     16  C   UNL     1       2.117   7.010  19.896  0.00  0.00    +0.000 A 
ATOM     17  C   UNL     1       2.463   7.301  18.578  0.00  0.00    +0.000 A 
ATOM     18  C   UNL     1       2.762   6.276  17.674  0.00  0.00    +0.000 A 
ATOM     19  C   UNL     1       2.658   4.934  18.063  0.00  0.00    +0.000 A 
BRANCH  14  21
ATOM     20  C   UNL     1       3.129   2.810  20.614  0.00  0.00    +0.000 C 
ATOM     21  O   UNL     1       2.084   3.349  19.804  0.00  0.00    +0.000 OA
ENDBRANCH  14  21
BRANCH  17  22
ATOM     22  C   UNL     1       2.502   8.705  18.130  0.00  0.00    +0.000 C 
ATOM     23  O   UNL     1       1.501   9.412  18.126  0.00  0.00    +0.000 OA
ENDBRANCH  17  22
ENDBRANCH  13  19
ENDBRANCH  12  13
ENDBRANCH   1  12
BRANCH   1  24
ATOM     24  C   UNL     1       4.839   4.624  14.929  0.00  0.00    +0.000 C 
BRANCH  24  25
ATOM     25  N   UNL     1       5.436   4.064  13.743  0.00  0.00    +0.000 N 
ATOM     26  C   UNL     1       4.820   3.399  12.728  0.00  0.00    +0.000 A 
ATOM     27  N   UNL     1       5.691   3.149  11.778  0.00  0.00    +0.000 NA
ATOM     28  C   UNL     1       6.838   3.712  12.256  0.00  0.00    +0.000 A 
ATOM     29  N   UNL     1       6.727   4.297  13.452  0.00  0.00    +0.000 NA
ENDBRANCH  24  25
ENDBRANCH   1  24
TORSDOF 9
ENDMDL
MODEL 7
REMARK VINA RESULT:      -7.1      1.841      2.364
REMARK  Name = 
REMARK  10 active torsions:
REMARK  status: ('A' for Active; 'I' for Inactive)
REMARK    1  A    between atoms: C_1  and  O_2
REMARK    2  A    between atoms: O_2  and  C_3
REMARK    3  A    between atoms: C_6  and  C_7
REMARK    4  A    between atoms: C_10  and  O_11
REMARK    5  A    between atoms: O_11  and  C_12
REMARK    6  A    between atoms: C_12  and  C_13
REMARK    7  A    between atoms: C_13  and  O_14
REMARK    8  A    between atoms: C_13  and  C_15
REMARK    9  A    between atoms: C_13  and  C_21
REMARK   10  A    between atoms: C_15  and  N_16
REMARK                            x       y       z     vdW  Elec       q    Type
REMARK                         _______ _______ _______ _____ _____    ______ ____
ROOT
ATOM      1  C   UNL     1       6.544   5.301  17.346  0.00  0.00    +0.000 C 
ENDROOT
BRANCH   1   2
ATOM      2  C   UNL     1       7.198   6.634  17.772  0.00  0.00    +0.000 A 
ATOM      3  C   UNL     1       6.921   7.820  17.062  0.00  0.00    +0.000 A 
ATOM      4  C   UNL     1       7.559   9.024  17.394  0.00  0.00    +0.000 A 
ATOM      5  C   UNL     1       8.497   9.061  18.416  0.00  0.00    +0.000 A 
ATOM      6  F   UNL     1       9.123  10.206  18.710  0.00  0.00    +0.000 F 
ATOM      7  C   UNL     1       8.795   7.917  19.131  0.00  0.00    +0.000 A 
ATOM      8  C   UNL     1       8.146   6.730  18.812  0.00  0.00    +0.000 A 
ATOM      9  F   UNL     1       8.488   5.672  19.556  0.00  0.00    +0.000 F 
ENDBRANCH   1   2
BRANCH   1  10
ATOM     10  O   UNL     1       7.661   4.435  17.013  0.00  0.00    +0.000 OA
ATOM     11  H   UNL     1       8.004   4.737  16.150  0.00  0.00    +0.000 HD
ENDBRANCH   1  10
BRANCH   1  12
ATOM     12  C   UNL     1       5.771   4.633  18.518  0.00  0.00    +0.000 C 
BRANCH  12  13
ATOM     13  O   UNL     1       4.505   4.071  18.172  0.00  0.00    +0.000 OA
BRANCH  13  19
ATOM     14  C   UNL     1       2.650   3.506  19.795  0.00  0.00    +0.000 A 
ATOM     15  C   UNL     1       1.701   4.024  20.691  0.00  0.00    +0.000 A 
ATOM     16  C   UNL     1       1.479   5.393  20.770  0.00  0.00    +0.000 A 
ATOM     17  C   UNL     1       2.241   6.255  19.984  0.00  0.00    +0.000 A 
ATOM     18  C   UNL     1       3.252   5.761  19.152  0.00  0.00    +0.000 A 
ATOM     19  C   UNL     1       3.473   4.381  19.048  0.00  0.00    +0.000 A 
BRANCH  14  21
ATOM     20  C   UNL     1       2.545   1.559  18.427  0.00  0.00    +0.000 C 
ATOM     21  O   UNL     1       2.800   2.148  19.703  0.00  0.00    +0.000 OA
ENDBRANCH  14  21
BRANCH  17  22
ATOM     22  C   UNL     1       1.969   7.704  20.022  0.00  0.00    +0.000 C 
ATOM     23  O   UNL     1       1.426   8.237  20.983  0.00  0.00    +0.000 OA
ENDBRANCH  17  22
ENDBRANCH  13  19
ENDBRANCH  12  13
ENDBRANCH   1  12
BRANCH   1  24
ATOM     24  C   UNL     1       5.694   5.403  16.059  0.00  0.00    +0.000 C 
BRANCH  24  25
ATOM     25  N   UNL     1       6.327   4.934  14.852  0.00  0.00    +0.000 N 
ATOM     26  C   UNL     1       5.843   4.046  13.942  0.00  0.00    +0.000 A 
ATOM     27  N   UNL     1       6.669   3.967  12.925  0.00  0.00    +0.000 NA
ATOM     28  C   UNL     1       7.647   4.860  13.255  0.00  0.00    +0.000 A 
ATOM     29  N   UNL     1       7.474   5.487  14.421  0.00  0.00    +0.000 NA
ENDBRANCH  24  25
ENDBRANCH   1  24
TORSDOF 9
ENDMDL
MODEL 8
REMARK VINA RESULT:      -7.0      3.451      5.632
REMARK  Name = 
REMARK  10 active torsions:
REMARK  status: ('A' for Active; 'I' for Inactive)
REMARK    1  A    between atoms: C_1  and  O_2
REMARK    2  A    between atoms: O_2  and  C_3
REMARK    3  A    between atoms: C_6  and  C_7
REMARK    4  A    between atoms: C_10  and  O_11
REMARK    5  A    between atoms: O_11  and  C_12
REMARK    6  A    between atoms: C_12  and  C_13
REMARK    7  A    between atoms: C_13  and  O_14
REMARK    8  A    between atoms: C_13  and  C_15
REMARK    9  A    between atoms: C_13  and  C_21
REMARK   10  A    between atoms: C_15  and  N_16
REMARK                            x       y       z     vdW  Elec       q    Type
REMARK                         _______ _______ _______ _____ _____    ______ ____
ROOT
ATOM      1  C   UNL     1       2.949   6.468  18.660  0.00  0.00    +0.000 C 
ENDROOT
BRANCH   1   2
ATOM      2  C   UNL     1       4.319   5.866  18.276  0.00  0.00    +0.000 A 
ATOM      3  C   UNL     1       5.035   5.080  19.202  0.00  0.00    +0.000 A 
ATOM      4  C   UNL     1       6.309   4.583  18.893  0.00  0.00    +0.000 A 
ATOM      5  C   UNL     1       6.899   4.882  17.674  0.00  0.00    +0.000 A 
ATOM      6  F   UNL     1       8.128   4.429  17.395  0.00  0.00    +0.000 F 
ATOM      7  C   UNL     1       6.229   5.652  16.743  0.00  0.00    +0.000 A 
ATOM      8  C   UNL     1       4.958   6.125  17.046  0.00  0.00    +0.000 A 
ATOM      9  F   UNL     1       4.376   6.858  16.089  0.00  0.00    +0.000 F 
ENDBRANCH   1   2
BRANCH   1  10
ATOM     10  O   UNL     1       2.878   6.329  20.103  0.00  0.00    +0.000 OA
ATOM     11  H   UNL     1       2.874   7.233  20.473  0.00  0.00    +0.000 HD
ENDBRANCH   1  10
BRANCH   1  12
ATOM     12  C   UNL     1       2.871   7.986  18.333  0.00  0.00    +0.000 C 
BRANCH  12  13
ATOM     13  O   UNL     1       1.552   8.523  18.238  0.00  0.00    +0.000 OA
BRANCH  13  19
ATOM     14  C   UNL     1       1.485  10.924  19.029  0.00  0.00    +0.000 A 
ATOM     15  C   UNL     1       1.056  11.795  20.043  0.00  0.00    +0.000 A 
ATOM     16  C   UNL     1       0.520  11.294  21.223  0.00  0.00    +0.000 A 
ATOM     17  C   UNL     1       0.367   9.917  21.374  0.00  0.00    +0.000 A 
ATOM     18  C   UNL     1       0.707   9.041  20.337  0.00  0.00    +0.000 A 
ATOM     19  C   UNL     1       1.268   9.531  19.150  0.00  0.00    +0.000 A 
BRANCH  14  21
ATOM     20  C   UNL     1       2.699  12.722  18.047  0.00  0.00    +0.000 C 
ATOM     21  O   UNL     1       2.063  11.452  17.905  0.00  0.00    +0.000 OA
ENDBRANCH  14  21
BRANCH  17  22
ATOM     22  C   UNL     1      -0.148   9.379  22.646  0.00  0.00    +0.000 C 
ATOM     23  O   UNL     1       0.374   9.647  23.722  0.00  0.00    +0.000 OA
ENDBRANCH  17  22
ENDBRANCH  13  19
ENDBRANCH  12  13
ENDBRANCH   1  12
BRANCH   1  24
ATOM     24  C   UNL     1       1.741   5.680  18.103  0.00  0.00    +0.000 C 
BRANCH  24  25
ATOM     25  N   UNL     1       1.564   4.351  18.631  0.00  0.00    +0.000 N 
ATOM     26  C   UNL     1       1.944   3.170  18.074  0.00  0.00    +0.000 A 
ATOM     27  N   UNL     1       1.706   2.192  18.917  0.00  0.00    +0.000 NA
ATOM     28  C   UNL     1       1.195   2.841  20.004  0.00  0.00    +0.000 A 
ATOM     29  N   UNL     1       1.101   4.168  19.880  0.00  0.00    +0.000 NA
ENDBRANCH  24  25
ENDBRANCH   1  24
TORSDOF 9
ENDMDL
MODEL 9
REMARK VINA RESULT:      -7.0      3.208      6.598
REMARK  Name = 
REMARK  10 active torsions:
REMARK  status: ('A' for Active; 'I' for Inactive)
REMARK    1  A    between atoms: C_1  and  O_2
REMARK    2  A    between atoms: O_2  and  C_3
REMARK    3  A    between atoms: C_6  and  C_7
REMARK    4  A    between atoms: C_10  and  O_11
REMARK    5  A    between atoms: O_11  and  C_12
REMARK    6  A    between atoms: C_12  and  C_13
REMARK    7  A    between atoms: C_13  and  O_14
REMARK    8  A    between atoms: C_13  and  C_15
REMARK    9  A    between atoms: C_13  and  C_21
REMARK   10  A    between atoms: C_15  and  N_16
REMARK                            x       y       z     vdW  Elec       q    Type
REMARK                         _______ _______ _______ _____ _____    ______ ____
ROOT
ATOM      1  C   UNL     1       2.857   5.997  18.841  0.00  0.00    +0.000 C 
ENDROOT
BRANCH   1   2
ATOM      2  C   UNL     1       2.243   7.373  19.182  0.00  0.00    +0.000 A 
ATOM      3  C   UNL     1       1.672   7.603  20.450  0.00  0.00    +0.000 A 
ATOM      4  C   UNL     1       1.050   8.823  20.751  0.00  0.00    +0.000 A 
ATOM      5  C   UNL     1       0.965   9.820  19.790  0.00  0.00    +0.000 A 
ATOM      6  F   UNL     1       0.345  10.972  20.073  0.00  0.00    +0.000 F 
ATOM      7  C   UNL     1       1.510   9.628  18.534  0.00  0.00    +0.000 A 
ATOM      8  C   UNL     1       2.142   8.425  18.248  0.00  0.00    +0.000 A 
ATOM      9  F   UNL     1       2.648   8.324  17.013  0.00  0.00    +0.000 F 
ENDBRANCH   1   2
BRANCH   1  10
ATOM     10  O   UNL     1       2.044   5.493  17.748  0.00  0.00    +0.000 OA
ATOM     11  H   UNL     1       1.739   4.604  18.011  0.00  0.00    +0.000 HD
ENDBRANCH   1  10
BRANCH   1  12
ATOM     12  C   UNL     1       4.314   6.126  18.317  0.00  0.00    +0.000 C 
BRANCH  12  13
ATOM     13  O   UNL     1       4.952   4.895  17.976  0.00  0.00    +0.000 OA
BRANCH  13  19
ATOM     14  C   UNL     1       6.985   5.571  16.634  0.00  0.00    +0.000 A 
ATOM     15  C   UNL     1       7.656   5.441  15.407  0.00  0.00    +0.000 A 
ATOM     16  C   UNL     1       7.049   4.795  14.338  0.00  0.00    +0.000 A 
ATOM     17  C   UNL     1       5.785   4.234  14.505  0.00  0.00    +0.000 A 
ATOM     18  C   UNL     1       5.141   4.278  15.747  0.00  0.00    +0.000 A 
ATOM     19  C   UNL     1       5.733   4.943  16.829  0.00  0.00    +0.000 A 
BRANCH  14  21
ATOM     20  C   UNL     1       7.629   7.687  17.519  0.00  0.00    +0.000 C 
ATOM     21  O   UNL     1       7.591   6.265  17.648  0.00  0.00    +0.000 OA
ENDBRANCH  14  21
BRANCH  17  22
ATOM     22  C   UNL     1       5.114   3.599  13.356  0.00  0.00    +0.000 C 
ATOM     23  O   UNL     1       5.642   3.533  12.253  0.00  0.00    +0.000 OA
ENDBRANCH  17  22
ENDBRANCH  13  19
ENDBRANCH  12  13
ENDBRANCH   1  12
BRANCH   1  24
ATOM     24  C   UNL     1       2.725   4.955  19.975  0.00  0.00    +0.000 C 
BRANCH  24  25
ATOM     25  N   UNL     1       1.994   3.758  19.645  0.00  0.00    +0.000 N 
ATOM     26  C   UNL     1       0.719   3.432  19.990  0.00  0.00    +0.000 A 
ATOM     27  N   UNL     1       0.380   2.309  19.399  0.00  0.00    +0.000 NA
ATOM     28  C   UNL     1       1.492   1.997  18.672  0.00  0.00    +0.000 A 
ATOM     29  N   UNL     1       2.502   2.863  18.780  0.00  0.00    +0.000 NA
ENDBRANCH  24  25
ENDBRANCH   1  24
TORSDOF 9
ENDMDL
