MODEL 1
REMARK VINA RESULT:      -7.0      0.000      0.000
REMARK  Name = 
REMARK  5 active torsions:
REMARK  status: ('A' for Active; 'I' for Inactive)
REMARK    1  A    between atoms: C_1  and  N_2
REMARK    2  A    between atoms: C_6  and  C_7
REMARK    3  A    between atoms: C_7  and  N_8
REMARK    4  A    between atoms: N_8  and  S_9
REMARK    5  A    between atoms: S_9  and  C_12
REMARK                            x       y       z     vdW  Elec       q    Type
REMARK                         _______ _______ _______ _____ _____    ______ ____
ROOT
ATOM      1  S   UNL     1       5.362   4.164  18.319  0.00  0.00    +0.000 S 
ATOM      2  O   UNL     1       6.718   4.609  18.546  0.00  0.00    +0.000 OA
ATOM      3  O   UNL     1       5.017   3.466  17.098  0.00  0.00    +0.000 OA
ENDROOT
BRANCH   1   4
ATOM      4  C   UNL     1       4.287   5.564  18.477  0.00  0.00    +0.000 A 
ATOM      5  C   UNL     1       3.453   5.610  19.608  0.00  0.00    +0.000 A 
ATOM      6  C   UNL     1       2.509   6.621  19.735  0.00  0.00    +0.000 A 
ATOM      7  F   UNL     1       1.709   6.645  20.808  0.00  0.00    +0.000 F 
ATOM      8  C   UNL     1       2.370   7.596  18.757  0.00  0.00    +0.000 A 
ATOM      9  C   UNL     1       3.198   7.558  17.634  0.00  0.00    +0.000 A 
ATOM     10  C   UNL     1       4.161   6.544  17.486  0.00  0.00    +0.000 A 
ATOM     11 BR   UNL     1       5.227   6.632  15.919  0.00  0.00    +0.000 Br
ENDBRANCH   1   4
BRANCH   1  12
ATOM     12  N   UNL     1       4.953   3.146  19.610  0.00  0.00    +0.000 NA
ATOM     13  H   UNL     1       5.773   3.008  20.206  0.00  0.00    +0.000 HD
BRANCH  12  14
ATOM     14  C   UNL     1       4.198   1.944  19.267  0.00  0.00    +0.000 C 
BRANCH  14  20
ATOM     15  C   UNL     1       2.400   2.665  21.725  0.00  0.00    +0.000 C 
ATOM     16  N   UNL     1       1.984   2.586  20.344  0.00  0.00    +0.000 N 
ATOM     17  N   UNL     1       0.710   2.903  20.034  0.00  0.00    +0.000 NA
ATOM     18  C   UNL     1       0.651   2.756  18.711  0.00  0.00    +0.000 A 
ATOM     19  C   UNL     1       1.873   2.329  18.173  0.00  0.00    +0.000 A 
ATOM     20  C   UNL     1       2.738   2.239  19.250  0.00  0.00    +0.000 A 
ENDBRANCH  14  20
ENDBRANCH  12  14
ENDBRANCH   1  12
TORSDOF 4
ENDMDL
MODEL 2
REMARK VINA RESULT:      -6.9      3.291      5.004
REMARK  Name = 
REMARK  5 active torsions:
REMARK  status: ('A' for Active; 'I' for Inactive)
REMARK    1  A    between atoms: C_1  and  N_2
REMARK    2  A    between atoms: C_6  and  C_7
REMARK    3  A    between atoms: C_7  and  N_8
REMARK    4  A    between atoms: N_8  and  S_9
REMARK    5  A    between atoms: S_9  and  C_12
REMARK                            x       y       z     vdW  Elec       q    Type
REMARK                         _______ _______ _______ _____ _____    ______ ____
ROOT
ATOM      1  S   UNL     1       3.062   3.316  18.099  0.00  0.00    +0.000 S 
ATOM      2  O   UNL     1       1.894   2.608  17.625  0.00  0.00    +0.000 OA
ATOM      3  O   UNL     1       4.011   2.658  18.973  0.00  0.00    +0.000 OA
ENDROOT
BRANCH   1   4
ATOM      4  C   UNL     1       2.520   4.804  18.895  0.00  0.00    +0.000 A 
ATOM      5  C   UNL     1       2.770   6.017  18.231  0.00  0.00    +0.000 A 
ATOM      6  C   UNL     1       2.473   7.224  18.850  0.00  0.00    +0.000 A 
ATOM      7  F   UNL     1       2.731   8.373  18.214  0.00  0.00    +0.000 F 
ATOM      8  C   UNL     1       1.929   7.257  20.126  0.00  0.00    +0.000 A 
ATOM      9  C   UNL     1       1.673   6.056  20.790  0.00  0.00    +0.000 A 
ATOM     10  C   UNL     1       1.966   4.823  20.181  0.00  0.00    +0.000 A 
ATOM     11 BR   UNL     1       1.547   3.274  21.194  0.00  0.00    +0.000 Br
ENDBRANCH   1   4
BRANCH   1  12
ATOM     12  N   UNL     1       3.916   3.834  16.732  0.00  0.00    +0.000 NA
ATOM     13  H   UNL     1       3.364   3.639  15.893  0.00  0.00    +0.000 HD
BRANCH  12  14
ATOM     14  C   UNL     1       5.326   3.459  16.675  0.00  0.00    +0.000 C 
BRANCH  14  20
ATOM     15  C   UNL     1       7.057   4.913  14.510  0.00  0.00    +0.000 C 
ATOM     16  N   UNL     1       6.910   5.292  15.897  0.00  0.00    +0.000 N 
ATOM     17  N   UNL     1       7.519   6.415  16.327  0.00  0.00    +0.000 NA
ATOM     18  C   UNL     1       7.178   6.498  17.612  0.00  0.00    +0.000 A 
ATOM     19  C   UNL     1       6.368   5.426  18.012  0.00  0.00    +0.000 A 
ATOM     20  C   UNL     1       6.187   4.656  16.876  0.00  0.00    +0.000 A 
ENDBRANCH  14  20
ENDBRANCH  12  14
ENDBRANCH   1  12
TORSDOF 4
ENDMDL
MODEL 3
REMARK VINA RESULT:      -6.9      3.574      5.040
REMARK  Name = 
REMARK  5 active torsions:
REMARK  status: ('A' for Active; 'I' for Inactive)
REMARK    1  A    between atoms: C_1  and  N_2
REMARK    2  A    between atoms: C_6  and  C_7
REMARK    3  A    between atoms: C_7  and  N_8
REMARK    4  A    between atoms: N_8  and  S_9
REMARK    5  A    between atoms: S_9  and  C_12
REMARK                            x       y       z     vdW  Elec       q    Type
REMARK                         _______ _______ _______ _____ _____    ______ ____
ROOT
ATOM      1  S   UNL     1       3.013   3.384  18.079  0.00  0.00    +0.000 S 
ATOM      2  O   UNL     1       1.843   2.717  17.555  0.00  0.00    +0.000 OA
ATOM      3  O   UNL     1       3.908   2.689  18.980  0.00  0.00    +0.000 OA
ENDROOT
BRANCH   1   4
ATOM      4  C   UNL     1       2.488   4.881  18.869  0.00  0.00    +0.000 A 
ATOM      5  C   UNL     1       2.706   6.085  18.177  0.00  0.00    +0.000 A 
ATOM      6  C   UNL     1       2.421   7.300  18.787  0.00  0.00    +0.000 A 
ATOM      7  F   UNL     1       2.649   8.440  18.124  0.00  0.00    +0.000 F 
ATOM      8  C   UNL     1       1.922   7.350  20.081  0.00  0.00    +0.000 A 
ATOM      9  C   UNL     1       1.699   6.158  20.772  0.00  0.00    +0.000 A 
ATOM     10  C   UNL     1       1.979   4.917  20.173  0.00  0.00    +0.000 A 
ATOM     11 BR   UNL     1       1.607   3.383  21.225  0.00  0.00    +0.000 Br
ENDBRANCH   1   4
BRANCH   1  12
ATOM     12  N   UNL     1       3.932   3.887  16.748  0.00  0.00    +0.000 NA
ATOM     13  H   UNL     1       3.378   3.786  15.895  0.00  0.00    +0.000 HD
BRANCH  12  14
ATOM     14  C   UNL     1       5.303   3.387  16.689  0.00  0.00    +0.000 C 
BRANCH  14  20
ATOM     15  C   UNL     1       7.294   5.755  17.166  0.00  0.00    +0.000 C 
ATOM     16  N   UNL     1       6.970   5.140  15.900  0.00  0.00    +0.000 N 
ATOM     17  N   UNL     1       7.614   5.564  14.793  0.00  0.00    +0.000 NA
ATOM     18  C   UNL     1       7.121   4.803  13.818  0.00  0.00    +0.000 A 
ATOM     19  C   UNL     1       6.152   3.905  14.289  0.00  0.00    +0.000 A 
ATOM     20  C   UNL     1       6.077   4.126  15.653  0.00  0.00    +0.000 A 
ENDBRANCH  14  20
ENDBRANCH  12  14
ENDBRANCH   1  12
TORSDOF 4
ENDMDL
MODEL 4
REMARK VINA RESULT:      -6.9      0.464      1.389
REMARK  Name = 
REMARK  5 active torsions:
REMARK  status: ('A' for Active; 'I' for Inactive)
REMARK    1  A    between atoms: C_1  and  N_2
REMARK    2  A    between atoms: C_6  and  C_7
REMARK    3  A    between atoms: C_7  and  N_8
REMARK    4  A    between atoms: N_8  and  S_9
REMARK    5  A    between atoms: S_9  and  C_12
REMARK                            x       y       z     vdW  Elec       q    Type
REMARK                         _______ _______ _______ _____ _____    ______ ____
ROOT
ATOM      1  S   UNL     1       5.439   4.179  18.250  0.00  0.00    +0.000 S 
ATOM      2  O   UNL     1       6.803   4.658  18.290  0.00  0.00    +0.000 OA
ATOM      3  O   UNL     1       4.978   3.381  17.134  0.00  0.00    +0.000 OA
ENDROOT
BRANCH   1   4
ATOM      4  C   UNL     1       4.359   5.575  18.414  0.00  0.00    +0.000 A 
ATOM      5  C   UNL     1       3.553   5.633  19.563  0.00  0.00    +0.000 A 
ATOM      6  C   UNL     1       2.605   6.640  19.699  0.00  0.00    +0.000 A 
ATOM      7  F   UNL     1       1.831   6.674  20.791  0.00  0.00    +0.000 F 
ATOM      8  C   UNL     1       2.435   7.598  18.710  0.00  0.00    +0.000 A 
ATOM      9  C   UNL     1       3.236   7.549  17.567  0.00  0.00    +0.000 A 
ATOM     10  C   UNL     1       4.202   6.539  17.411  0.00  0.00    +0.000 A 
ATOM     11 BR   UNL     1       5.229   6.611  15.818  0.00  0.00    +0.000 Br
ENDBRANCH   1   4
BRANCH   1  12
ATOM     12  N   UNL     1       5.195   3.266  19.655  0.00  0.00    +0.000 NA
ATOM     13  H   UNL     1       6.099   3.040  20.075  0.00  0.00    +0.000 HD
BRANCH  12  14
ATOM     14  C   UNL     1       4.244   2.162  19.547  0.00  0.00    +0.000 C 
BRANCH  14  20
ATOM     15  C   UNL     1       1.549   2.853  18.112  0.00  0.00    +0.000 C 
ATOM     16  N   UNL     1       1.779   2.792  19.537  0.00  0.00    +0.000 N 
ATOM     17  N   UNL     1       0.735   2.991  20.367  0.00  0.00    +0.000 NA
ATOM     18  C   UNL     1       1.257   2.850  21.585  0.00  0.00    +0.000 A 
ATOM     19  C   UNL     1       2.632   2.579  21.540  0.00  0.00    +0.000 A 
ATOM     20  C   UNL     1       2.954   2.527  20.195  0.00  0.00    +0.000 A 
ENDBRANCH  14  20
ENDBRANCH  12  14
ENDBRANCH   1  12
TORSDOF 4
ENDMDL
MODEL 5
REMARK VINA RESULT:      -6.8      3.172      4.601
REMARK  Name = 
REMARK  5 active torsions:
REMARK  status: ('A' for Active; 'I' for Inactive)
REMARK    1  A    between atoms: C_1  and  N_2
REMARK    2  A    between atoms: C_6  and  C_7
REMARK    3  A    between atoms: C_7  and  N_8
REMARK    4  A    between atoms: N_8  and  S_9
REMARK    5  A    between atoms: S_9  and  C_12
REMARK                            x       y       z     vdW  Elec       q    Type
REMARK                         _______ _______ _______ _____ _____    ______ ____
ROOT
ATOM      1  S   UNL     1       2.530   3.041  18.056  0.00  0.00    +0.000 S 
ATOM      2  O   UNL     1       2.300   3.175  16.636  0.00  0.00    +0.000 OA
ATOM      3  O   UNL     1       1.802   2.053  18.824  0.00  0.00    +0.000 OA
ENDROOT
BRANCH   1   4
ATOM      4  C   UNL     1       2.274   4.624  18.810  0.00  0.00    +0.000 A 
ATOM      5  C   UNL     1       2.366   5.754  17.979  0.00  0.00    +0.000 A 
ATOM      6  C   UNL     1       2.287   7.029  18.526  0.00  0.00    +0.000 A 
ATOM      7  F   UNL     1       2.392   8.097  17.726  0.00  0.00    +0.000 F 
ATOM      8  C   UNL     1       2.119   7.211  19.891  0.00  0.00    +0.000 A 
ATOM      9  C   UNL     1       2.023   6.093  20.721  0.00  0.00    +0.000 A 
ATOM     10  C   UNL     1       2.099   4.794  20.188  0.00  0.00    +0.000 A 
ATOM     11 BR   UNL     1       1.932   3.372  21.433  0.00  0.00    +0.000 Br
ENDBRANCH   1   4
BRANCH   1  12
ATOM     12  N   UNL     1       4.180   2.717  18.261  0.00  0.00    +0.000 NA
ATOM     13  H   UNL     1       4.293   1.893  18.855  0.00  0.00    +0.000 HD
BRANCH  12  14
ATOM     14  C   UNL     1       5.025   3.864  18.584  0.00  0.00    +0.000 C 
BRANCH  14  20
ATOM     15  C   UNL     1       7.668   5.540  18.575  0.00  0.00    +0.000 C 
ATOM     16  N   UNL     1       6.996   4.980  17.425  0.00  0.00    +0.000 N 
ATOM     17  N   UNL     1       7.566   5.123  16.211  0.00  0.00    +0.000 NA
ATOM     18  C   UNL     1       6.734   4.492  15.384  0.00  0.00    +0.000 A 
ATOM     19  C   UNL     1       5.625   3.959  16.059  0.00  0.00    +0.000 A 
ATOM     20  C   UNL     1       5.820   4.271  17.393  0.00  0.00    +0.000 A 
ENDBRANCH  14  20
ENDBRANCH  12  14
ENDBRANCH   1  12
TORSDOF 4
ENDMDL
MODEL 6
REMARK VINA RESULT:      -6.7      3.556      4.830
REMARK  Name = 
REMARK  5 active torsions:
REMARK  status: ('A' for Active; 'I' for Inactive)
REMARK    1  A    between atoms: C_1  and  N_2
REMARK    2  A    between atoms: C_6  and  C_7
REMARK    3  A    between atoms: C_7  and  N_8
REMARK    4  A    between atoms: N_8  and  S_9
REMARK    5  A    between atoms: S_9  and  C_12
REMARK                            x       y       z     vdW  Elec       q    Type
REMARK                         _______ _______ _______ _____ _____    ______ ____
ROOT
ATOM      1  S   UNL     1       4.371   4.045  18.828  0.00  0.00    +0.000 S 
ATOM      2  O   UNL     1       5.191   3.190  19.655  0.00  0.00    +0.000 OA
ATOM      3  O   UNL     1       3.070   3.596  18.378  0.00  0.00    +0.000 OA
ENDROOT
BRANCH   1   4
ATOM      4  C   UNL     1       5.318   4.508  17.403  0.00  0.00    +0.000 A 
ATOM      5  C   UNL     1       4.791   4.173  16.144  0.00  0.00    +0.000 A 
ATOM      6  C   UNL     1       5.534   4.406  14.993  0.00  0.00    +0.000 A 
ATOM      7  F   UNL     1       5.028   4.068  13.801  0.00  0.00    +0.000 F 
ATOM      8  C   UNL     1       6.801   4.967  15.064  0.00  0.00    +0.000 A 
ATOM      9  C   UNL     1       7.329   5.306  16.311  0.00  0.00    +0.000 A 
ATOM     10  C   UNL     1       6.593   5.080  17.487  0.00  0.00    +0.000 A 
ATOM     11 BR   UNL     1       7.429   5.608  19.106  0.00  0.00    +0.000 Br
ENDBRANCH   1   4
BRANCH   1  12
ATOM     12  N   UNL     1       4.135   5.485  19.687  0.00  0.00    +0.000 NA
ATOM     13  H   UNL     1       4.782   5.519  20.478  0.00  0.00    +0.000 HD
BRANCH  12  14
ATOM     14  C   UNL     1       2.748   5.840  19.976  0.00  0.00    +0.000 C 
BRANCH  14  20
ATOM     15  C   UNL     1       1.188   8.296  21.130  0.00  0.00    +0.000 C 
ATOM     16  N   UNL     1       1.713   8.158  19.791  0.00  0.00    +0.000 N 
ATOM     17  N   UNL     1       1.590   9.195  18.939  0.00  0.00    +0.000 NA
ATOM     18  C   UNL     1       2.181   8.772  17.823  0.00  0.00    +0.000 A 
ATOM     19  C   UNL     1       2.668   7.462  17.949  0.00  0.00    +0.000 A 
ATOM     20  C   UNL     1       2.370   7.082  19.246  0.00  0.00    +0.000 A 
ENDBRANCH  14  20
ENDBRANCH  12  14
ENDBRANCH   1  12
TORSDOF 4
ENDMDL
MODEL 7
REMARK VINA RESULT:      -6.5      3.384      4.250
REMARK  Name = 
REMARK  5 active torsions:
REMARK  status: ('A' for Active; 'I' for Inactive)
REMARK    1  A    between atoms: C_1  and  N_2
REMARK    2  A    between atoms: C_6  and  C_7
REMARK    3  A    between atoms: C_7  and  N_8
REMARK    4  A    between atoms: N_8  and  S_9
REMARK    5  A    between atoms: S_9  and  C_12
REMARK                            x       y       z     vdW  Elec       q    Type
REMARK                         _______ _______ _______ _____ _____    ______ ____
ROOT
ATOM      1  S   UNL     1       4.720   3.979  17.847  0.00  0.00    +0.000 S 
ATOM      2  O   UNL     1       5.637   3.934  18.963  0.00  0.00    +0.000 OA
ATOM      3  O   UNL     1       3.902   2.828  17.526  0.00  0.00    +0.000 OA
ENDROOT
BRANCH   1   4
ATOM      4  C   UNL     1       5.637   4.425  16.397  0.00  0.00    +0.000 A 
ATOM      5  C   UNL     1       5.313   3.760  15.201  0.00  0.00    +0.000 A 
ATOM      6  C   UNL     1       6.067   3.980  14.056  0.00  0.00    +0.000 A 
ATOM      7  F   UNL     1       5.759   3.328  12.928  0.00  0.00    +0.000 F 
ATOM      8  C   UNL     1       7.147   4.851  14.069  0.00  0.00    +0.000 A 
ATOM      9  C   UNL     1       7.471   5.518  15.251  0.00  0.00    +0.000 A 
ATOM     10  C   UNL     1       6.720   5.311  16.422  0.00  0.00    +0.000 A 
ATOM     11 BR   UNL     1       7.265   6.300  17.946  0.00  0.00    +0.000 Br
ENDBRANCH   1   4
BRANCH   1  12
ATOM     12  N   UNL     1       3.670   5.279  18.122  0.00  0.00    +0.000 NA
ATOM     13  H   UNL     1       4.061   5.884  18.847  0.00  0.00    +0.000 HD
BRANCH  12  14
ATOM     14  C   UNL     1       2.255   4.944  18.259  0.00  0.00    +0.000 C 
BRANCH  14  20
ATOM     15  C   UNL     1       0.676   2.289  18.762  0.00  0.00    +0.000 C 
ATOM     16  N   UNL     1       1.335   3.104  19.756  0.00  0.00    +0.000 N 
ATOM     17  N   UNL     1       1.341   2.681  21.036  0.00  0.00    +0.000 NA
ATOM     18  C   UNL     1       2.031   3.618  21.685  0.00  0.00    +0.000 A 
ATOM     19  C   UNL     1       2.452   4.648  20.832  0.00  0.00    +0.000 A 
ATOM     20  C   UNL     1       2.004   4.289  19.572  0.00  0.00    +0.000 A 
ENDBRANCH  14  20
ENDBRANCH  12  14
ENDBRANCH   1  12
TORSDOF 4
ENDMDL
MODEL 8
REMARK VINA RESULT:      -6.5      3.241      3.992
REMARK  Name = 
REMARK  5 active torsions:
REMARK  status: ('A' for Active; 'I' for Inactive)
REMARK    1  A    between atoms: C_1  and  N_2
REMARK    2  A    between atoms: C_6  and  C_7
REMARK    3  A    between atoms: C_7  and  N_8
REMARK    4  A    between atoms: N_8  and  S_9
REMARK    5  A    between atoms: S_9  and  C_12
REMARK                            x       y       z     vdW  Elec       q    Type
REMARK                         _______ _______ _______ _____ _____    ______ ____
ROOT
ATOM      1  S   UNL     1       4.111   5.796  18.189  0.00  0.00    +0.000 S 
ATOM      2  O   UNL     1       3.680   7.159  17.975  0.00  0.00    +0.000 OA
ATOM      3  O   UNL     1       4.694   5.404  19.456  0.00  0.00    +0.000 OA
ENDROOT
BRANCH   1   4
ATOM      4  C   UNL     1       5.252   5.369  16.902  0.00  0.00    +0.000 A 
ATOM      5  C   UNL     1       4.710   4.912  15.688  0.00  0.00    +0.000 A 
ATOM      6  C   UNL     1       5.549   4.456  14.679  0.00  0.00    +0.000 A 
ATOM      7  F   UNL     1       5.020   4.008  13.534  0.00  0.00    +0.000 F 
ATOM      8  C   UNL     1       6.926   4.439  14.849  0.00  0.00    +0.000 A 
ATOM      9  C   UNL     1       7.471   4.895  16.050  0.00  0.00    +0.000 A 
ATOM     10  C   UNL     1       6.640   5.363  17.084  0.00  0.00    +0.000 A 
ATOM     11 BR   UNL     1       7.522   5.970  18.650  0.00  0.00    +0.000 Br
ENDBRANCH   1   4
BRANCH   1  12
ATOM     12  N   UNL     1       2.763   4.805  17.930  0.00  0.00    +0.000 NA
ATOM     13  H   UNL     1       1.931   5.255  18.318  0.00  0.00    +0.000 HD
BRANCH  12  14
ATOM     14  C   UNL     1       2.935   3.390  18.249  0.00  0.00    +0.000 C 
BRANCH  14  20
ATOM     15  C   UNL     1       4.612   2.012  20.504  0.00  0.00    +0.000 C 
ATOM     16  N   UNL     1       3.273   2.541  20.623  0.00  0.00    +0.000 N 
ATOM     17  N   UNL     1       2.671   2.508  21.829  0.00  0.00    +0.000 NA
ATOM     18  C   UNL     1       1.486   3.077  21.618  0.00  0.00    +0.000 A 
ATOM     19  C   UNL     1       1.317   3.459  20.279  0.00  0.00    +0.000 A 
ATOM     20  C   UNL     1       2.499   3.118  19.646  0.00  0.00    +0.000 A 
ENDBRANCH  14  20
ENDBRANCH  12  14
ENDBRANCH   1  12
TORSDOF 4
ENDMDL
MODEL 9
REMARK VINA RESULT:      -6.5      2.712      3.294
REMARK  Name = 
REMARK  5 active torsions:
REMARK  status: ('A' for Active; 'I' for Inactive)
REMARK    1  A    between atoms: C_1  and  N_2
REMARK    2  A    between atoms: C_6  and  C_7
REMARK    3  A    between atoms: C_7  and  N_8
REMARK    4  A    between atoms: N_8  and  S_9
REMARK    5  A    between atoms: S_9  and  C_12
REMARK                            x       y       z     vdW  Elec       q    Type
REMARK                         _______ _______ _______ _____ _____    ______ ____
ROOT
ATOM      1  S   UNL     1       5.256   4.688  19.166  0.00  0.00    +0.000 S 
ATOM      2  O   UNL     1       3.995   5.144  19.705  0.00  0.00    +0.000 OA
ATOM      3  O   UNL     1       6.504   5.147  19.738  0.00  0.00    +0.000 OA
ENDROOT
BRANCH   1   4
ATOM      4  C   UNL     1       5.278   5.050  17.431  0.00  0.00    +0.000 A 
ATOM      5  C   UNL     1       5.985   4.165  16.598  0.00  0.00    +0.000 A 
ATOM      6  C   UNL     1       6.136   4.452  15.247  0.00  0.00    +0.000 A 
ATOM      7  F   UNL     1       6.825   3.609  14.468  0.00  0.00    +0.000 F 
ATOM      8  C   UNL     1       5.600   5.608  14.698  0.00  0.00    +0.000 A 
ATOM      9  C   UNL     1       4.894   6.489  15.519  0.00  0.00    +0.000 A 
ATOM     10  C   UNL     1       4.727   6.217  16.888  0.00  0.00    +0.000 A 
ATOM     11 BR   UNL     1       3.729   7.494  17.874  0.00  0.00    +0.000 Br
ENDBRANCH   1   4
BRANCH   1  12
ATOM     12  N   UNL     1       5.252   2.997  19.263  0.00  0.00    +0.000 NA
ATOM     13  H   UNL     1       5.235   2.603  18.320  0.00  0.00    +0.000 HD
BRANCH  12  14
ATOM     14  C   UNL     1       4.320   2.411  20.223  0.00  0.00    +0.000 C 
BRANCH  14  20
ATOM     15  C   UNL     1       1.636   2.914  21.751  0.00  0.00    +0.000 C 
ATOM     16  N   UNL     1       1.788   2.633  20.343  0.00  0.00    +0.000 N 
ATOM     17  N   UNL     1       0.689   2.635  19.562  0.00  0.00    +0.000 NA
ATOM     18  C   UNL     1       1.156   2.372  18.342  0.00  0.00    +0.000 A 
ATOM     19  C   UNL     1       2.546   2.183  18.340  0.00  0.00    +0.000 A 
ATOM     20  C   UNL     1       2.946   2.374  19.651  0.00  0.00    +0.000 A 
ENDBRANCH  14  20
ENDBRANCH  12  14
ENDBRANCH   1  12
TORSDOF 4
ENDMDL
