MODEL 1
REMARK VINA RESULT:      -8.9      0.000      0.000
REMARK  Name = 
REMARK  4 active torsions:
REMARK  status: ('A' for Active; 'I' for Inactive)
REMARK    1  A    between atoms: C_7  and  C_8
REMARK    2  A    between atoms: C_13  and  C_14
REMARK    3  A    between atoms: C_21  and  N_22
REMARK    4  A    between atoms: N_22  and  C_23
REMARK                            x       y       z     vdW  Elec       q    Type
REMARK                         _______ _______ _______ _____ _____    ______ ____
ROOT
ATOM      1  C   UNL     1       0.809   8.923  21.102  0.00  0.00    +0.000 A 
ATOM      2  C   UNL     1       0.705   8.852  22.564  0.00  0.00    +0.000 A 
ATOM      3  C   UNL     1      -0.071   9.698  23.270  0.00  0.00    +0.000 A 
ATOM      4  C   UNL     1      -0.840  10.684  22.596  0.00  0.00    +0.000 A 
ATOM      5  N   UNL     1      -1.647  11.607  23.070  0.00  0.00    +0.000 NA
ATOM      6  C   UNL     1      -2.114  12.284  21.967  0.00  0.00    +0.000 A 
ATOM      7  C   UNL     1      -1.581  11.768  20.791  0.00  0.00    +0.000 A 
ATOM      8  N   UNL     1      -0.732  10.746  21.209  0.00  0.00    +0.000 N 
ATOM      9  C   UNL     1       0.114   9.900  20.484  0.00  0.00    +0.000 A 
ENDROOT
BRANCH   1  16
ATOM     10  F   UNL     1       4.607   3.440  18.461  0.00  0.00    +0.000 F 
ATOM     11  C   UNL     1       4.002   4.632  18.563  0.00  0.00    +0.000 A 
ATOM     12  C   UNL     1       4.144   5.552  17.528  0.00  0.00    +0.000 A 
ATOM     13  C   UNL     1       3.526   6.807  17.605  0.00  0.00    +0.000 A 
ATOM     14  C   UNL     1       2.776   7.115  18.751  0.00  0.00    +0.000 A 
ATOM     15  N   UNL     1       2.095   8.261  19.070  0.00  0.00    +0.000 NA
ATOM     16  C   UNL     1       1.596   8.067  20.277  0.00  0.00    +0.000 A 
ATOM     17  N   UNL     1       1.890   6.795  20.715  0.00  0.00    +0.000 N 
ATOM     18  C   UNL     1       2.663   6.173  19.767  0.00  0.00    +0.000 A 
ATOM     19  C   UNL     1       3.254   4.910  19.709  0.00  0.00    +0.000 A 
ATOM     20  H   UNL     1       1.581   6.385  21.583  0.00  0.00    +0.000 HD
ENDBRANCH   1  16
BRANCH   6  21
ATOM     21  C   UNL     1      -3.049  13.397  22.091  0.00  0.00    +0.000 A 
ATOM     22  C   UNL     1      -4.424  13.161  21.941  0.00  0.00    +0.000 A 
ATOM     23  C   UNL     1      -5.346  14.208  22.059  0.00  0.00    +0.000 A 
ATOM     24  C   UNL     1      -4.893  15.498  22.324  0.00  0.00    +0.000 A 
ATOM     25 BR   UNL     1      -6.133  16.915  22.493  0.00  0.00    +0.000 Br
ATOM     26  C   UNL     1      -3.531  15.754  22.456  0.00  0.00    +0.000 A 
ATOM     27  C   UNL     1      -2.612  14.707  22.329  0.00  0.00    +0.000 A 
ENDBRANCH   6  21
BRANCH   7  28
ATOM     28  N   UNL     1      -1.680  12.192  19.498  0.00  0.00    +0.000 N 
ATOM     29  H   UNL     1      -1.575  13.192  19.330  0.00  0.00    +0.000 HD
BRANCH  28  30
ATOM     30  C   UNL     1      -2.432  11.606  18.449  0.00  0.00    +0.000 A 
ATOM     31  C   UNL     1      -1.866  10.895  17.383  0.00  0.00    +0.000 A 
ATOM     32  C   UNL     1      -2.657  10.439  16.323  0.00  0.00    +0.000 A 
ATOM     33  C   UNL     1      -4.028  10.680  16.319  0.00  0.00    +0.000 A 
ATOM     34  C   UNL     1      -4.611  11.374  17.375  0.00  0.00    +0.000 A 
ATOM     35  C   UNL     1      -3.817  11.836  18.428  0.00  0.00    +0.000 A 
ENDBRANCH  28  30
ENDBRANCH   7  28
TORSDOF 4
ENDMDL
MODEL 2
REMARK VINA RESULT:      -8.8      0.408      1.244
REMARK  Name = 
REMARK  4 active torsions:
REMARK  status: ('A' for Active; 'I' for Inactive)
REMARK    1  A    between atoms: C_7  and  C_8
REMARK    2  A    between atoms: C_13  and  C_14
REMARK    3  A    between atoms: C_21  and  N_22
REMARK    4  A    between atoms: N_22  and  C_23
REMARK                            x       y       z     vdW  Elec       q    Type
REMARK                         _______ _______ _______ _____ _____    ______ ____
ROOT
ATOM      1  C   UNL     1       0.762   9.104  21.078  0.00  0.00    +0.000 A 
ATOM      2  C   UNL     1       0.652   8.917  22.529  0.00  0.00    +0.000 A 
ATOM      3  C   UNL     1      -0.147   9.687  23.293  0.00  0.00    +0.000 A 
ATOM      4  C   UNL     1      -0.936  10.705  22.692  0.00  0.00    +0.000 A 
ATOM      5  N   UNL     1      -1.766  11.569  23.231  0.00  0.00    +0.000 NA
ATOM      6  C   UNL     1      -2.244  12.319  22.181  0.00  0.00    +0.000 A 
ATOM      7  C   UNL     1      -1.693  11.909  20.971  0.00  0.00    +0.000 A 
ATOM      8  N   UNL     1      -0.822  10.877  21.315  0.00  0.00    +0.000 N 
ATOM      9  C   UNL     1       0.047  10.110  20.532  0.00  0.00    +0.000 A 
ENDROOT
BRANCH   1  16
ATOM     10  F   UNL     1       4.851   4.007  18.117  0.00  0.00    +0.000 F 
ATOM     11  C   UNL     1       4.159   5.143  18.279  0.00  0.00    +0.000 A 
ATOM     12  C   UNL     1       4.176   6.095  17.263  0.00  0.00    +0.000 A 
ATOM     13  C   UNL     1       3.465   7.293  17.402  0.00  0.00    +0.000 A 
ATOM     14  C   UNL     1       2.750   7.514  18.590  0.00  0.00    +0.000 A 
ATOM     15  N   UNL     1       1.996   8.593  18.971  0.00  0.00    +0.000 NA
ATOM     16  C   UNL     1       1.573   8.334  20.194  0.00  0.00    +0.000 A 
ATOM     17  N   UNL     1       1.989   7.079  20.584  0.00  0.00    +0.000 N 
ATOM     18  C   UNL     1       2.762   6.544  19.585  0.00  0.00    +0.000 A 
ATOM     19  C   UNL     1       3.448   5.334  19.466  0.00  0.00    +0.000 A 
ATOM     20  H   UNL     1       1.757   6.626  21.455  0.00  0.00    +0.000 HD
ENDBRANCH   1  16
BRANCH   6  21
ATOM     21  C   UNL     1      -3.205  13.397  22.383  0.00  0.00    +0.000 A 
ATOM     22  C   UNL     1      -2.751  14.656  22.803  0.00  0.00    +0.000 A 
ATOM     23  C   UNL     1      -3.649  15.711  23.001  0.00  0.00    +0.000 A 
ATOM     24  C   UNL     1      -5.010  15.507  22.784  0.00  0.00    +0.000 A 
ATOM     25 BR   UNL     1      -6.227  16.930  23.041  0.00  0.00    +0.000 Br
ATOM     26  C   UNL     1      -5.481  14.260  22.385  0.00  0.00    +0.000 A 
ATOM     27  C   UNL     1      -4.581  13.205  22.197  0.00  0.00    +0.000 A 
ENDBRANCH   6  21
BRANCH   7  28
ATOM     28  N   UNL     1      -1.795  12.429  19.715  0.00  0.00    +0.000 N 
ATOM     29  H   UNL     1      -1.634  13.431  19.614  0.00  0.00    +0.000 HD
BRANCH  28  30
ATOM     30  C   UNL     1      -2.604  11.965  18.648  0.00  0.00    +0.000 A 
ATOM     31  C   UNL     1      -3.997  11.844  18.717  0.00  0.00    +0.000 A 
ATOM     32  C   UNL     1      -4.723  11.273  17.665  0.00  0.00    +0.000 A 
ATOM     33  C   UNL     1      -4.064  10.823  16.525  0.00  0.00    +0.000 A 
ATOM     34  C   UNL     1      -2.681  10.945  16.432  0.00  0.00    +0.000 A 
ATOM     35  C   UNL     1      -1.959  11.508  17.487  0.00  0.00    +0.000 A 
ENDBRANCH  28  30
ENDBRANCH   7  28
TORSDOF 4
ENDMDL
MODEL 3
REMARK VINA RESULT:      -8.6      2.542      3.571
REMARK  Name = 
REMARK  4 active torsions:
REMARK  status: ('A' for Active; 'I' for Inactive)
REMARK    1  A    between atoms: C_7  and  C_8
REMARK    2  A    between atoms: C_13  and  C_14
REMARK    3  A    between atoms: C_21  and  N_22
REMARK    4  A    between atoms: N_22  and  C_23
REMARK                            x       y       z     vdW  Elec       q    Type
REMARK                         _______ _______ _______ _____ _____    ______ ____
ROOT
ATOM      1  C   UNL     1       2.111   7.775  19.304  0.00  0.00    +0.000 A 
ATOM      2  C   UNL     1       1.720   7.251  20.617  0.00  0.00    +0.000 A 
ATOM      3  C   UNL     1       0.893   7.924  21.441  0.00  0.00    +0.000 A 
ATOM      4  C   UNL     1       0.352   9.173  21.036  0.00  0.00    +0.000 A 
ATOM      5  N   UNL     1      -0.455   9.998  21.666  0.00  0.00    +0.000 NA
ATOM      6  C   UNL     1      -0.643  11.054  20.805  0.00  0.00    +0.000 A 
ATOM      7  C   UNL     1       0.065  10.876  19.621  0.00  0.00    +0.000 A 
ATOM      8  N   UNL     1       0.731   9.664  19.789  0.00  0.00    +0.000 N 
ATOM      9  C   UNL     1       1.631   8.987  18.959  0.00  0.00    +0.000 A 
ENDROOT
BRANCH   1  16
ATOM     10  F   UNL     1       5.875   2.958  15.549  0.00  0.00    +0.000 F 
ATOM     11  C   UNL     1       5.368   4.126  15.966  0.00  0.00    +0.000 A 
ATOM     12  C   UNL     1       5.796   5.303  15.357  0.00  0.00    +0.000 A 
ATOM     13  C   UNL     1       5.287   6.541  15.770  0.00  0.00    +0.000 A 
ATOM     14  C   UNL     1       4.350   6.565  16.815  0.00  0.00    +0.000 A 
ATOM     15  N   UNL     1       3.720   7.631  17.403  0.00  0.00    +0.000 NA
ATOM     16  C   UNL     1       2.972   7.130  18.368  0.00  0.00    +0.000 A 
ATOM     17  N   UNL     1       3.059   5.755  18.372  0.00  0.00    +0.000 N 
ATOM     18  C   UNL     1       3.951   5.370  17.403  0.00  0.00    +0.000 A 
ATOM     19  C   UNL     1       4.430   4.122  17.000  0.00  0.00    +0.000 A 
ATOM     20  H   UNL     1       2.546   5.133  18.979  0.00  0.00    +0.000 HD
ENDBRANCH   1  16
BRANCH   6  21
ATOM     21  C   UNL     1      -1.490  12.187  21.156  0.00  0.00    +0.000 A 
ATOM     22  C   UNL     1      -1.206  12.929  22.312  0.00  0.00    +0.000 A 
ATOM     23  C   UNL     1      -1.998  14.026  22.672  0.00  0.00    +0.000 A 
ATOM     24  C   UNL     1      -3.085  14.381  21.876  0.00  0.00    +0.000 A 
ATOM     25 BR   UNL     1      -4.154  15.865  22.351  0.00  0.00    +0.000 Br
ATOM     26  C   UNL     1      -3.394  13.644  20.736  0.00  0.00    +0.000 A 
ATOM     27  C   UNL     1      -2.605  12.544  20.384  0.00  0.00    +0.000 A 
ENDBRANCH   6  21
BRANCH   7  28
ATOM     28  N   UNL     1       0.253  11.704  18.554  0.00  0.00    +0.000 N 
ATOM     29  H   UNL     1       0.178  11.287  17.626  0.00  0.00    +0.000 HD
BRANCH  28  30
ATOM     30  C   UNL     1       1.058  12.869  18.491  0.00  0.00    +0.000 A 
ATOM     31  C   UNL     1       2.434  12.857  18.231  0.00  0.00    +0.000 A 
ATOM     32  C   UNL     1       3.188  14.033  18.294  0.00  0.00    +0.000 A 
ATOM     33  C   UNL     1       2.574  15.242  18.611  0.00  0.00    +0.000 A 
ATOM     34  C   UNL     1       1.205  15.276  18.860  0.00  0.00    +0.000 A 
ATOM     35  C   UNL     1       0.457  14.098  18.805  0.00  0.00    +0.000 A 
ENDBRANCH  28  30
ENDBRANCH   7  28
TORSDOF 4
ENDMDL
MODEL 4
REMARK VINA RESULT:      -8.5      0.875      1.336
REMARK  Name = 
REMARK  4 active torsions:
REMARK  status: ('A' for Active; 'I' for Inactive)
REMARK    1  A    between atoms: C_7  and  C_8
REMARK    2  A    between atoms: C_13  and  C_14
REMARK    3  A    between atoms: C_21  and  N_22
REMARK    4  A    between atoms: N_22  and  C_23
REMARK                            x       y       z     vdW  Elec       q    Type
REMARK                         _______ _______ _______ _____ _____    ______ ____
ROOT
ATOM      1  C   UNL     1       0.755   8.766  21.031  0.00  0.00    +0.000 A 
ATOM      2  C   UNL     1       0.591   8.928  22.479  0.00  0.00    +0.000 A 
ATOM      3  C   UNL     1      -0.147   9.922  23.011  0.00  0.00    +0.000 A 
ATOM      4  C   UNL     1      -0.816  10.842  22.160  0.00  0.00    +0.000 A 
ATOM      5  N   UNL     1      -1.571  11.878  22.450  0.00  0.00    +0.000 NA
ATOM      6  C   UNL     1      -1.945  12.408  21.236  0.00  0.00    +0.000 A 
ATOM      7  C   UNL     1      -1.407  11.683  20.178  0.00  0.00    +0.000 A 
ATOM      8  N   UNL     1      -0.652  10.682  20.786  0.00  0.00    +0.000 N 
ATOM      9  C   UNL     1       0.157   9.681  20.239  0.00  0.00    +0.000 A 
ENDROOT
BRANCH   1  16
ATOM     10  F   UNL     1       4.749   4.981  16.428  0.00  0.00    +0.000 F 
ATOM     11  C   UNL     1       4.029   5.311  17.509  0.00  0.00    +0.000 A 
ATOM     12  C   UNL     1       3.788   4.343  18.480  0.00  0.00    +0.000 A 
ATOM     13  C   UNL     1       3.038   4.656  19.621  0.00  0.00    +0.000 A 
ATOM     14  C   UNL     1       2.528   5.957  19.752  0.00  0.00    +0.000 A 
ATOM     15  N   UNL     1       1.765   6.502  20.752  0.00  0.00    +0.000 NA
ATOM     16  C   UNL     1       1.508   7.743  20.383  0.00  0.00    +0.000 A 
ATOM     17  N   UNL     1       2.143   8.027  19.194  0.00  0.00    +0.000 N 
ATOM     18  C   UNL     1       2.784   6.895  18.759  0.00  0.00    +0.000 A 
ATOM     19  C   UNL     1       3.542   6.615  17.620  0.00  0.00    +0.000 A 
ATOM     20  H   UNL     1       2.145   8.921  18.725  0.00  0.00    +0.000 HD
ENDBRANCH   1  16
BRANCH   6  21
ATOM     21  C   UNL     1      -2.800  13.585  21.145  0.00  0.00    +0.000 A 
ATOM     22  C   UNL     1      -4.183  13.422  20.976  0.00  0.00    +0.000 A 
ATOM     23  C   UNL     1      -5.030  14.533  20.890  0.00  0.00    +0.000 A 
ATOM     24  C   UNL     1      -4.493  15.816  20.970  0.00  0.00    +0.000 A 
ATOM     25 BR   UNL     1      -5.631  17.321  20.864  0.00  0.00    +0.000 Br
ATOM     26  C   UNL     1      -3.121  15.998  21.119  0.00  0.00    +0.000 A 
ATOM     27  C   UNL     1      -2.276  14.884  21.195  0.00  0.00    +0.000 A 
ENDBRANCH   6  21
BRANCH   7  28
ATOM     28  N   UNL     1      -1.426  11.908  18.833  0.00  0.00    +0.000 N 
ATOM     29  H   UNL     1      -1.168  12.843  18.517  0.00  0.00    +0.000 HD
BRANCH  28  30
ATOM     30  C   UNL     1      -2.247  11.283  17.861  0.00  0.00    +0.000 A 
ATOM     31  C   UNL     1      -1.796  10.302  16.970  0.00  0.00    +0.000 A 
ATOM     32  C   UNL     1      -2.630   9.807  15.962  0.00  0.00    +0.000 A 
ATOM     33  C   UNL     1      -3.933  10.283  15.837  0.00  0.00    +0.000 A 
ATOM     34  C   UNL     1      -4.404  11.249  16.720  0.00  0.00    +0.000 A 
ATOM     35  C   UNL     1      -3.565  11.747  17.721  0.00  0.00    +0.000 A 
ENDBRANCH  28  30
ENDBRANCH   7  28
TORSDOF 4
ENDMDL
MODEL 5
REMARK VINA RESULT:      -8.5      0.872      1.260
REMARK  Name = 
REMARK  4 active torsions:
REMARK  status: ('A' for Active; 'I' for Inactive)
REMARK    1  A    between atoms: C_7  and  C_8
REMARK    2  A    between atoms: C_13  and  C_14
REMARK    3  A    between atoms: C_21  and  N_22
REMARK    4  A    between atoms: N_22  and  C_23
REMARK                            x       y       z     vdW  Elec       q    Type
REMARK                         _______ _______ _______ _____ _____    ______ ____
ROOT
ATOM      1  C   UNL     1       1.367   8.600  20.333  0.00  0.00    +0.000 A 
ATOM      2  C   UNL     1       1.353   8.510  21.797  0.00  0.00    +0.000 A 
ATOM      3  C   UNL     1       0.591   9.318  22.559  0.00  0.00    +0.000 A 
ATOM      4  C   UNL     1      -0.253  10.283  21.944  0.00  0.00    +0.000 A 
ATOM      5  N   UNL     1      -1.063  11.170  22.478  0.00  0.00    +0.000 NA
ATOM      6  C   UNL     1      -1.619  11.841  21.414  0.00  0.00    +0.000 A 
ATOM      7  C   UNL     1      -1.139  11.358  20.201  0.00  0.00    +0.000 A 
ATOM      8  N   UNL     1      -0.230  10.364  20.554  0.00  0.00    +0.000 N 
ATOM      9  C   UNL     1       0.601   9.558  19.769  0.00  0.00    +0.000 A 
ENDROOT
BRANCH   1  16
ATOM     10  F   UNL     1       4.604   3.095  17.064  0.00  0.00    +0.000 F 
ATOM     11  C   UNL     1       4.198   4.340  17.350  0.00  0.00    +0.000 A 
ATOM     12  C   UNL     1       4.674   5.398  16.580  0.00  0.00    +0.000 A 
ATOM     13  C   UNL     1       4.270   6.712  16.854  0.00  0.00    +0.000 A 
ATOM     14  C   UNL     1       3.391   6.932  17.926  0.00  0.00    +0.000 A 
ATOM     15  N   UNL     1       2.865   8.106  18.400  0.00  0.00    +0.000 NA
ATOM     16  C   UNL     1       2.134   7.784  19.451  0.00  0.00    +0.000 A 
ATOM     17  N   UNL     1       2.129   6.417  19.625  0.00  0.00    +0.000 N 
ATOM     18  C   UNL     1       2.943   5.852  18.676  0.00  0.00    +0.000 A 
ATOM     19  C   UNL     1       3.316   4.532  18.415  0.00  0.00    +0.000 A 
ATOM     20  H   UNL     1       1.606   5.915  20.327  0.00  0.00    +0.000 HD
ENDBRANCH   1  16
BRANCH   6  21
ATOM     21  C   UNL     1      -2.585  12.916  21.607  0.00  0.00    +0.000 A 
ATOM     22  C   UNL     1      -2.144  14.164  22.074  0.00  0.00    +0.000 A 
ATOM     23  C   UNL     1      -3.046  15.217  22.264  0.00  0.00    +0.000 A 
ATOM     24  C   UNL     1      -4.398  15.023  21.991  0.00  0.00    +0.000 A 
ATOM     25 BR   UNL     1      -5.621  16.443  22.238  0.00  0.00    +0.000 Br
ATOM     26  C   UNL     1      -4.857  13.786  21.546  0.00  0.00    +0.000 A 
ATOM     27  C   UNL     1      -3.953  12.734  21.365  0.00  0.00    +0.000 A 
ENDBRANCH   6  21
BRANCH   7  28
ATOM     28  N   UNL     1      -1.331  11.792  18.922  0.00  0.00    +0.000 N 
ATOM     29  H   UNL     1      -1.192  12.786  18.745  0.00  0.00    +0.000 HD
BRANCH  28  30
ATOM     30  C   UNL     1      -2.200  11.248  17.944  0.00  0.00    +0.000 A 
ATOM     31  C   UNL     1      -1.811  10.293  16.995  0.00  0.00    +0.000 A 
ATOM     32  C   UNL     1      -2.690   9.882  15.987  0.00  0.00    +0.000 A 
ATOM     33  C   UNL     1      -3.975  10.414  15.919  0.00  0.00    +0.000 A 
ATOM     34  C   UNL     1      -4.384  11.354  16.860  0.00  0.00    +0.000 A 
ATOM     35  C   UNL     1      -3.501  11.769  17.860  0.00  0.00    +0.000 A 
ENDBRANCH  28  30
ENDBRANCH   7  28
TORSDOF 4
ENDMDL
MODEL 6
REMARK VINA RESULT:      -8.5      2.705      3.918
REMARK  Name = 
REMARK  4 active torsions:
REMARK  status: ('A' for Active; 'I' for Inactive)
REMARK    1  A    between atoms: C_7  and  C_8
REMARK    2  A    between atoms: C_13  and  C_14
REMARK    3  A    between atoms: C_21  and  N_22
REMARK    4  A    between atoms: N_22  and  C_23
REMARK                            x       y       z     vdW  Elec       q    Type
REMARK                         _______ _______ _______ _____ _____    ______ ____
ROOT
ATOM      1  C   UNL     1       2.151   7.408  19.392  0.00  0.00    +0.000 A 
ATOM      2  C   UNL     1       1.714   6.972  20.723  0.00  0.00    +0.000 A 
ATOM      3  C   UNL     1       0.945   7.744  21.515  0.00  0.00    +0.000 A 
ATOM      4  C   UNL     1       0.512   9.018  21.057  0.00  0.00    +0.000 A 
ATOM      5  N   UNL     1      -0.223   9.932  21.651  0.00  0.00    +0.000 NA
ATOM      6  C   UNL     1      -0.319  10.966  20.747  0.00  0.00    +0.000 A 
ATOM      7  C   UNL     1       0.374  10.681  19.575  0.00  0.00    +0.000 A 
ATOM      8  N   UNL     1       0.935   9.425  19.795  0.00  0.00    +0.000 N 
ATOM      9  C   UNL     1       1.776   8.643  18.997  0.00  0.00    +0.000 A 
ENDROOT
BRANCH   1  16
ATOM     10  F   UNL     1       6.644   5.376  14.182  0.00  0.00    +0.000 F 
ATOM     11  C   UNL     1       5.786   5.321  15.211  0.00  0.00    +0.000 A 
ATOM     12  C   UNL     1       5.377   4.077  15.682  0.00  0.00    +0.000 A 
ATOM     13  C   UNL     1       4.480   3.986  16.755  0.00  0.00    +0.000 A 
ATOM     14  C   UNL     1       3.999   5.173  17.328  0.00  0.00    +0.000 A 
ATOM     15  N   UNL     1       3.118   5.352  18.363  0.00  0.00    +0.000 NA
ATOM     16  C   UNL     1       2.956   6.656  18.488  0.00  0.00    +0.000 A 
ATOM     17  N   UNL     1       3.765   7.323  17.594  0.00  0.00    +0.000 N 
ATOM     18  C   UNL     1       4.425   6.397  16.826  0.00  0.00    +0.000 A 
ATOM     19  C   UNL     1       5.331   6.517  15.770  0.00  0.00    +0.000 A 
ATOM     20  H   UNL     1       3.864   8.324  17.522  0.00  0.00    +0.000 HD
ENDBRANCH   1  16
BRANCH   6  21
ATOM     21  C   UNL     1      -1.069  12.179  21.048  0.00  0.00    +0.000 A 
ATOM     22  C   UNL     1      -0.576  13.073  22.010  0.00  0.00    +0.000 A 
ATOM     23  C   UNL     1      -1.270  14.249  22.317  0.00  0.00    +0.000 A 
ATOM     24  C   UNL     1      -2.467  14.533  21.663  0.00  0.00    +0.000 A 
ATOM     25 BR   UNL     1      -3.406  16.123  22.066  0.00  0.00    +0.000 Br
ATOM     26  C   UNL     1      -2.981  13.648  20.719  0.00  0.00    +0.000 A 
ATOM     27  C   UNL     1      -2.288  12.469  20.421  0.00  0.00    +0.000 A 
ENDBRANCH   6  21
BRANCH   7  28
ATOM     28  N   UNL     1       0.634  11.448  18.477  0.00  0.00    +0.000 N 
ATOM     29  H   UNL     1       0.724  10.961  17.585  0.00  0.00    +0.000 HD
BRANCH  28  30
ATOM     30  C   UNL     1       1.336  12.678  18.425  0.00  0.00    +0.000 A 
ATOM     31  C   UNL     1       2.722  12.782  18.260  0.00  0.00    +0.000 A 
ATOM     32  C   UNL     1       3.364  14.024  18.329  0.00  0.00    +0.000 A 
ATOM     33  C   UNL     1       2.624  15.181  18.556  0.00  0.00    +0.000 A 
ATOM     34  C   UNL     1       1.243  15.100  18.710  0.00  0.00    +0.000 A 
ATOM     35  C   UNL     1       0.607  13.857  18.648  0.00  0.00    +0.000 A 
ENDBRANCH  28  30
ENDBRANCH   7  28
TORSDOF 4
ENDMDL
MODEL 7
REMARK VINA RESULT:      -8.4      1.272      1.741
REMARK  Name = 
REMARK  4 active torsions:
REMARK  status: ('A' for Active; 'I' for Inactive)
REMARK    1  A    between atoms: C_7  and  C_8
REMARK    2  A    between atoms: C_13  and  C_14
REMARK    3  A    between atoms: C_21  and  N_22
REMARK    4  A    between atoms: N_22  and  C_23
REMARK                            x       y       z     vdW  Elec       q    Type
REMARK                         _______ _______ _______ _____ _____    ______ ____
ROOT
ATOM      1  C   UNL     1       1.477   8.285  20.257  0.00  0.00    +0.000 A 
ATOM      2  C   UNL     1       1.452   8.341  21.723  0.00  0.00    +0.000 A 
ATOM      3  C   UNL     1       0.725   9.256  22.393  0.00  0.00    +0.000 A 
ATOM      4  C   UNL     1      -0.070  10.192  21.679  0.00  0.00    +0.000 A 
ATOM      5  N   UNL     1      -0.841  11.164  22.114  0.00  0.00    +0.000 NA
ATOM      6  C   UNL     1      -1.361  11.751  20.984  0.00  0.00    +0.000 A 
ATOM      7  C   UNL     1      -0.898  11.128  19.829  0.00  0.00    +0.000 A 
ATOM      8  N   UNL     1      -0.038  10.133  20.288  0.00  0.00    +0.000 N 
ATOM      9  C   UNL     1       0.758   9.216  19.594  0.00  0.00    +0.000 A 
ENDROOT
BRANCH   1  16
ATOM     10  F   UNL     1       5.648   5.172  15.320  0.00  0.00    +0.000 F 
ATOM     11  C   UNL     1       4.834   5.336  16.372  0.00  0.00    +0.000 A 
ATOM     12  C   UNL     1       4.392   4.212  17.065  0.00  0.00    +0.000 A 
ATOM     13  C   UNL     1       3.539   4.351  18.168  0.00  0.00    +0.000 A 
ATOM     14  C   UNL     1       3.135   5.641  18.545  0.00  0.00    +0.000 A 
ATOM     15  N   UNL     1       2.308   6.037  19.564  0.00  0.00    +0.000 NA
ATOM     16  C   UNL     1       2.209   7.350  19.467  0.00  0.00    +0.000 A 
ATOM     17  N   UNL     1       3.006   7.814  18.444  0.00  0.00    +0.000 N 
ATOM     18  C   UNL     1       3.592   6.738  17.825  0.00  0.00    +0.000 A 
ATOM     19  C   UNL     1       4.455   6.631  16.732  0.00  0.00    +0.000 A 
ATOM     20  H   UNL     1       3.145   8.782  18.197  0.00  0.00    +0.000 HD
ENDBRANCH   1  16
BRANCH   6  21
ATOM     21  C   UNL     1      -2.276  12.883  21.060  0.00  0.00    +0.000 A 
ATOM     22  C   UNL     1      -3.637  12.653  21.309  0.00  0.00    +0.000 A 
ATOM     23  C   UNL     1      -4.540  13.720  21.393  0.00  0.00    +0.000 A 
ATOM     24  C   UNL     1      -4.081  15.024  21.224  0.00  0.00    +0.000 A 
ATOM     25 BR   UNL     1      -5.292  16.471  21.345  0.00  0.00    +0.000 Br
ATOM     26  C   UNL     1      -2.737  15.271  20.957  0.00  0.00    +0.000 A 
ATOM     27  C   UNL     1      -1.840  14.201  20.865  0.00  0.00    +0.000 A 
ENDBRANCH   6  21
BRANCH   7  28
ATOM     28  N   UNL     1      -1.064  11.440  18.512  0.00  0.00    +0.000 N 
ATOM     29  H   UNL     1      -0.714  12.348  18.204  0.00  0.00    +0.000 HD
BRANCH  28  30
ATOM     30  C   UNL     1      -2.091  11.001  17.639  0.00  0.00    +0.000 A 
ATOM     31  C   UNL     1      -1.917  10.018  16.658  0.00  0.00    +0.000 A 
ATOM     32  C   UNL     1      -2.942   9.711  15.757  0.00  0.00    +0.000 A 
ATOM     33  C   UNL     1      -4.161  10.380  15.830  0.00  0.00    +0.000 A 
ATOM     34  C   UNL     1      -4.357  11.352  16.807  0.00  0.00    +0.000 A 
ATOM     35  C   UNL     1      -3.328  11.662  17.700  0.00  0.00    +0.000 A 
ENDBRANCH  28  30
ENDBRANCH   7  28
TORSDOF 4
ENDMDL
MODEL 8
REMARK VINA RESULT:      -8.3      1.262      2.071
REMARK  Name = 
REMARK  4 active torsions:
REMARK  status: ('A' for Active; 'I' for Inactive)
REMARK    1  A    between atoms: C_7  and  C_8
REMARK    2  A    between atoms: C_13  and  C_14
REMARK    3  A    between atoms: C_21  and  N_22
REMARK    4  A    between atoms: N_22  and  C_23
REMARK                            x       y       z     vdW  Elec       q    Type
REMARK                         _______ _______ _______ _____ _____    ______ ____
ROOT
ATOM      1  C   UNL     1       1.504   8.348  20.275  0.00  0.00    +0.000 A 
ATOM      2  C   UNL     1       1.459   8.367  21.741  0.00  0.00    +0.000 A 
ATOM      3  C   UNL     1       0.727   9.269  22.424  0.00  0.00    +0.000 A 
ATOM      4  C   UNL     1      -0.053  10.228  21.722  0.00  0.00    +0.000 A 
ATOM      5  N   UNL     1      -0.824  11.193  22.171  0.00  0.00    +0.000 NA
ATOM      6  C   UNL     1      -1.324  11.811  21.048  0.00  0.00    +0.000 A 
ATOM      7  C   UNL     1      -0.848  11.215  19.885  0.00  0.00    +0.000 A 
ATOM      8  N   UNL     1      -0.001  10.204  20.331  0.00  0.00    +0.000 N 
ATOM      9  C   UNL     1       0.801   9.300  19.626  0.00  0.00    +0.000 A 
ENDROOT
BRANCH   1  16
ATOM     10  F   UNL     1       5.656   5.325  15.266  0.00  0.00    +0.000 F 
ATOM     11  C   UNL     1       4.857   5.472  16.332  0.00  0.00    +0.000 A 
ATOM     12  C   UNL     1       4.450   4.339  17.031  0.00  0.00    +0.000 A 
ATOM     13  C   UNL     1       3.613   4.459  18.149  0.00  0.00    +0.000 A 
ATOM     14  C   UNL     1       3.188   5.740  18.533  0.00  0.00    +0.000 A 
ATOM     15  N   UNL     1       2.370   6.119  19.566  0.00  0.00    +0.000 NA
ATOM     16  C   UNL     1       2.242   7.429  19.472  0.00  0.00    +0.000 A 
ATOM     17  N   UNL     1       3.013   7.910  18.437  0.00  0.00    +0.000 N 
ATOM     18  C   UNL     1       3.610   6.847  17.807  0.00  0.00    +0.000 A 
ATOM     19  C   UNL     1       4.457   6.758  16.700  0.00  0.00    +0.000 A 
ATOM     20  H   UNL     1       3.127   8.881  18.188  0.00  0.00    +0.000 HD
ENDBRANCH   1  16
BRANCH   6  21
ATOM     21  C   UNL     1      -2.234  12.947  21.141  0.00  0.00    +0.000 A 
ATOM     22  C   UNL     1      -1.743  14.243  20.923  0.00  0.00    +0.000 A 
ATOM     23  C   UNL     1      -2.594  15.352  20.999  0.00  0.00    +0.000 A 
ATOM     24  C   UNL     1      -3.941  15.168  21.300  0.00  0.00    +0.000 A 
ATOM     25 BR   UNL     1      -5.097  16.661  21.396  0.00  0.00    +0.000 Br
ATOM     26  C   UNL     1      -4.442  13.891  21.538  0.00  0.00    +0.000 A 
ATOM     27  C   UNL     1      -3.587  12.785  21.469  0.00  0.00    +0.000 A 
ENDBRANCH   6  21
BRANCH   7  28
ATOM     28  N   UNL     1      -0.993  11.562  18.574  0.00  0.00    +0.000 N 
ATOM     29  H   UNL     1      -0.550  12.430  18.274  0.00  0.00    +0.000 HD
BRANCH  28  30
ATOM     30  C   UNL     1      -2.071  11.249  17.709  0.00  0.00    +0.000 A 
ATOM     31  C   UNL     1      -3.355  11.795  17.831  0.00  0.00    +0.000 A 
ATOM     32  C   UNL     1      -4.403  11.359  17.011  0.00  0.00    +0.000 A 
ATOM     33  C   UNL     1      -4.177  10.375  16.052  0.00  0.00    +0.000 A 
ATOM     34  C   UNL     1      -2.905   9.830  15.908  0.00  0.00    +0.000 A 
ATOM     35  C   UNL     1      -1.864  10.262  16.733  0.00  0.00    +0.000 A 
ENDBRANCH  28  30
ENDBRANCH   7  28
TORSDOF 4
ENDMDL
MODEL 9
REMARK VINA RESULT:      -8.2      0.765      1.732
REMARK  Name = 
REMARK  4 active torsions:
REMARK  status: ('A' for Active; 'I' for Inactive)
REMARK    1  A    between atoms: C_7  and  C_8
REMARK    2  A    between atoms: C_13  and  C_14
REMARK    3  A    between atoms: C_21  and  N_22
REMARK    4  A    between atoms: N_22  and  C_23
REMARK                            x       y       z     vdW  Elec       q    Type
REMARK                         _______ _______ _______ _____ _____    ______ ____
ROOT
ATOM      1  C   UNL     1       0.477   9.156  21.290  0.00  0.00    +0.000 A 
ATOM      2  C   UNL     1       0.290   9.154  22.745  0.00  0.00    +0.000 A 
ATOM      3  C   UNL     1      -0.498  10.052  23.368  0.00  0.00    +0.000 A 
ATOM      4  C   UNL     1      -1.200  11.026  22.609  0.00  0.00    +0.000 A 
ATOM      5  N   UNL     1      -2.005  11.991  22.995  0.00  0.00    +0.000 NA
ATOM      6  C   UNL     1      -2.391  12.629  21.839  0.00  0.00    +0.000 A 
ATOM      7  C   UNL     1      -1.809  12.046  20.719  0.00  0.00    +0.000 A 
ATOM      8  N   UNL     1      -1.014  11.022  21.229  0.00  0.00    +0.000 N 
ATOM      9  C   UNL     1      -0.154  10.122  20.591  0.00  0.00    +0.000 A 
ENDROOT
BRANCH   1  16
ATOM     10  F   UNL     1       4.562   6.013  16.300  0.00  0.00    +0.000 F 
ATOM     11  C   UNL     1       3.867   6.214  17.428  0.00  0.00    +0.000 A 
ATOM     12  C   UNL     1       3.755   5.174  18.346  0.00  0.00    +0.000 A 
ATOM     13  C   UNL     1       3.035   5.352  19.535  0.00  0.00    +0.000 A 
ATOM     14  C   UNL     1       2.422   6.593  19.767  0.00  0.00    +0.000 A 
ATOM     15  N   UNL     1       1.663   7.010  20.830  0.00  0.00    +0.000 NA
ATOM     16  C   UNL     1       1.284   8.243  20.549  0.00  0.00    +0.000 A 
ATOM     17  N   UNL     1       1.837   8.651  19.355  0.00  0.00    +0.000 N 
ATOM     18  C   UNL     1       2.551   7.606  18.825  0.00  0.00    +0.000 A 
ATOM     19  C   UNL     1       3.276   7.462  17.640  0.00  0.00    +0.000 A 
ATOM     20  H   UNL     1       1.740   9.567  18.944  0.00  0.00    +0.000 HD
ENDBRANCH   1  16
BRANCH   6  21
ATOM     21  C   UNL     1      -3.298  13.770  21.860  0.00  0.00    +0.000 A 
ATOM     22  C   UNL     1      -2.774  15.066  21.972  0.00  0.00    +0.000 A 
ATOM     23  C   UNL     1      -3.619  16.182  21.990  0.00  0.00    +0.000 A 
ATOM     24  C   UNL     1      -4.997  16.002  21.899  0.00  0.00    +0.000 A 
ATOM     25 BR   UNL     1      -6.145  17.504  21.914  0.00  0.00    +0.000 Br
ATOM     26  C   UNL     1      -5.537  14.723  21.807  0.00  0.00    +0.000 A 
ATOM     27  C   UNL     1      -4.689  13.610  21.798  0.00  0.00    +0.000 A 
ENDBRANCH   6  21
BRANCH   7  28
ATOM     28  N   UNL     1      -1.824  12.412  19.405  0.00  0.00    +0.000 N 
ATOM     29  H   UNL     1      -1.665  13.398  19.198  0.00  0.00    +0.000 HD
BRANCH  28  30
ATOM     30  C   UNL     1      -2.548  11.811  18.345  0.00  0.00    +0.000 A 
ATOM     31  C   UNL     1      -3.946  11.786  18.269  0.00  0.00    +0.000 A 
ATOM     32  C   UNL     1      -4.598  11.078  17.253  0.00  0.00    +0.000 A 
ATOM     33  C   UNL     1      -3.859  10.392  16.293  0.00  0.00    +0.000 A 
ATOM     34  C   UNL     1      -2.468  10.416  16.345  0.00  0.00    +0.000 A 
ATOM     35  C   UNL     1      -1.821  11.116  17.366  0.00  0.00    +0.000 A 
ENDBRANCH  28  30
ENDBRANCH   7  28
TORSDOF 4
ENDMDL
