MODEL 1
REMARK VINA RESULT:      -7.2      0.000      0.000
REMARK  Name = 
REMARK  3 active torsions:
REMARK  status: ('A' for Active; 'I' for Inactive)
REMARK    1  A    between atoms: C_1  and  C_2
REMARK    2  A    between atoms: N_7  and  C_8
REMARK    3  A    between atoms: C_19  and  C_20
REMARK                            x       y       z     vdW  Elec       q    Type
REMARK                         _______ _______ _______ _____ _____    ______ ____
ROOT
ATOM      1  C   UNL     1      -0.026  16.031  20.936  0.00  0.00    +0.000 A 
ATOM      2  C   UNL     1       0.991  16.952  20.591  0.00  0.00    +0.000 A 
ATOM      3  N   UNL     1       1.811  16.501  19.646  0.00  0.00    +0.000 NA
ATOM      4  N   UNL     1       1.342  15.264  19.378  0.00  0.00    +0.000 N 
ATOM      5  C   UNL     1       1.935  14.327  18.551  0.00  0.00    +0.000 A 
ATOM      6  C   UNL     1       1.350  13.146  18.343  0.00  0.00    +0.000 A 
ATOM      7  C   UNL     1      -0.018  12.950  18.947  0.00  0.00    +0.000 A 
ATOM      8  N   UNL     1      -0.761  11.840  18.576  0.00  0.00    +0.000 N 
ATOM      9  C   UNL     1      -2.043  12.024  17.905  0.00  0.00    +0.000 C 
ATOM     10  C   UNL     1      -2.595  10.613  17.802  0.00  0.00    +0.000 C 
ATOM     11  C   UNL     1      -1.353   9.789  17.497  0.00  0.00    +0.000 C 
ATOM     12  C   UNL     1      -0.207  10.518  18.228  0.00  0.00    +0.000 C 
ATOM     13  N   UNL     1      -0.554  13.823  19.783  0.00  0.00    +0.000 NA
ATOM     14  C   UNL     1       0.155  14.973  20.057  0.00  0.00    +0.000 A 
ENDROOT
BRANCH   1  21
ATOM     15  C   UNL     1      -3.208  14.352  24.604  0.00  0.00    +0.000 C 
ATOM     16  C   UNL     1      -3.633  15.786  24.932  0.00  0.00    +0.000 C 
ATOM     17  C   UNL     1      -2.738  16.806  24.182  0.00  0.00    +0.000 C 
ATOM     18  N   UNL     1      -3.081  16.849  22.761  0.00  0.00    +0.000 N 
ATOM     19  C   UNL     1      -2.266  16.608  21.675  0.00  0.00    +0.000 C 
ATOM     20  O   UNL     1      -2.686  16.808  20.533  0.00  0.00    +0.000 OA
ATOM     21  N   UNL     1      -0.997  16.132  21.931  0.00  0.00    +0.000 N 
ATOM     22  C   UNL     1      -4.498  17.153  22.527  0.00  0.00    +0.000 C 
ATOM     23  C   UNL     1      -5.389  16.127  23.249  0.00  0.00    +0.000 C 
ATOM     24  N   UNL     1      -5.078  15.995  24.686  0.00  0.00    +0.000 NA
ATOM     25  H   UNL     1      -0.767  15.707  22.814  0.00  0.00    +0.000 HD
ATOM     26  H   UNL     1      -5.613  15.217  25.071  0.00  0.00    +0.000 HD
ENDBRANCH   1  21
BRANCH  12  27
ATOM     27  C   UNL     1       0.256   9.766  19.460  0.00  0.00    +0.000 A 
ATOM     28  C   UNL     1      -0.434   9.912  20.680  0.00  0.00    +0.000 A 
ATOM     29  C   UNL     1      -0.030   9.225  21.820  0.00  0.00    +0.000 A 
ATOM     30  F   UNL     1      -0.698   9.398  22.965  0.00  0.00    +0.000 F 
ATOM     31  C   UNL     1       1.058   8.364  21.783  0.00  0.00    +0.000 A 
ATOM     32  C   UNL     1       1.749   8.189  20.585  0.00  0.00    +0.000 A 
ATOM     33  C   UNL     1       1.351   8.881  19.435  0.00  0.00    +0.000 A 
ATOM     34 CL   UNL     1       2.262   8.594  17.991  0.00  0.00    +0.000 Cl
ENDBRANCH  12  27
TORSDOF 2
ENDMDL
MODEL 2
REMARK VINA RESULT:      -7.0      3.175      5.219
REMARK  Name = 
REMARK  3 active torsions:
REMARK  status: ('A' for Active; 'I' for Inactive)
REMARK    1  A    between atoms: C_1  and  C_2
REMARK    2  A    between atoms: N_7  and  C_8
REMARK    3  A    between atoms: C_19  and  C_20
REMARK                            x       y       z     vdW  Elec       q    Type
REMARK                         _______ _______ _______ _____ _____    ______ ____
ROOT
ATOM      1  C   UNL     1      -5.089  12.410  18.863  0.00  0.00    +0.000 A 
ATOM      2  C   UNL     1      -5.605  12.197  17.563  0.00  0.00    +0.000 A 
ATOM      3  N   UNL     1      -4.719  11.666  16.726  0.00  0.00    +0.000 NA
ATOM      4  N   UNL     1      -3.603  11.543  17.474  0.00  0.00    +0.000 N 
ATOM      5  C   UNL     1      -2.354  11.159  17.022  0.00  0.00    +0.000 A 
ATOM      6  C   UNL     1      -1.334  11.045  17.875  0.00  0.00    +0.000 A 
ATOM      7  C   UNL     1      -1.648  11.233  19.338  0.00  0.00    +0.000 A 
ATOM      8  N   UNL     1      -0.683  10.904  20.278  0.00  0.00    +0.000 N 
ATOM      9  C   UNL     1      -0.956   9.853  21.252  0.00  0.00    +0.000 C 
ATOM     10  C   UNL     1       0.253   9.897  22.168  0.00  0.00    +0.000 C 
ATOM     11  C   UNL     1       1.397  10.168  21.202  0.00  0.00    +0.000 C 
ATOM     12  C   UNL     1       0.774  11.035  20.088  0.00  0.00    +0.000 C 
ATOM     13  N   UNL     1      -2.826  11.658  19.759  0.00  0.00    +0.000 NA
ATOM     14  C   UNL     1      -3.808  11.877  18.817  0.00  0.00    +0.000 A 
ENDROOT
BRANCH   1  21
ATOM     15  C   UNL     1      -5.317  14.953  23.321  0.00  0.00    +0.000 C 
ATOM     16  C   UNL     1      -6.846  15.000  23.249  0.00  0.00    +0.000 C 
ATOM     17  C   UNL     1      -7.343  14.503  21.868  0.00  0.00    +0.000 C 
ATOM     18  N   UNL     1      -7.214  13.051  21.763  0.00  0.00    +0.000 N 
ATOM     19  C   UNL     1      -6.507  12.318  20.832  0.00  0.00    +0.000 C 
ATOM     20  O   UNL     1      -6.604  11.089  20.814  0.00  0.00    +0.000 OA
ATOM     21  N   UNL     1      -5.700  13.016  19.959  0.00  0.00    +0.000 N 
ATOM     22  C   UNL     1      -7.916  12.338  22.838  0.00  0.00    +0.000 C 
ATOM     23  C   UNL     1      -7.406  12.811  24.211  0.00  0.00    +0.000 C 
ATOM     24  N   UNL     1      -7.467  14.275  24.382  0.00  0.00    +0.000 NA
ATOM     25  H   UNL     1      -5.407  13.958  20.159  0.00  0.00    +0.000 HD
ATOM     26  H   UNL     1      -7.002  14.526  25.253  0.00  0.00    +0.000 HD
ENDBRANCH   1  21
BRANCH  12  27
ATOM     27  C   UNL     1       1.218  12.482  20.174  0.00  0.00    +0.000 A 
ATOM     28  C   UNL     1       0.784  13.296  21.239  0.00  0.00    +0.000 A 
ATOM     29  C   UNL     1       1.186  14.623  21.339  0.00  0.00    +0.000 A 
ATOM     30  F   UNL     1       0.744  15.371  22.355  0.00  0.00    +0.000 F 
ATOM     31  C   UNL     1       2.041  15.180  20.399  0.00  0.00    +0.000 A 
ATOM     32  C   UNL     1       2.500  14.393  19.343  0.00  0.00    +0.000 A 
ATOM     33  C   UNL     1       2.094  13.058  19.233  0.00  0.00    +0.000 A 
ATOM     34 CL   UNL     1       2.721  12.155  17.896  0.00  0.00    +0.000 Cl
ENDBRANCH  12  27
TORSDOF 2
ENDMDL
MODEL 3
REMARK VINA RESULT:      -6.9      5.584      8.027
REMARK  Name = 
REMARK  3 active torsions:
REMARK  status: ('A' for Active; 'I' for Inactive)
REMARK    1  A    between atoms: C_1  and  C_2
REMARK    2  A    between atoms: N_7  and  C_8
REMARK    3  A    between atoms: C_19  and  C_20
REMARK                            x       y       z     vdW  Elec       q    Type
REMARK                         _______ _______ _______ _____ _____    ______ ____
ROOT
ATOM      1  C   UNL     1       2.901  15.053  18.469  0.00  0.00    +0.000 A 
ATOM      2  C   UNL     1       2.384  16.354  18.266  0.00  0.00    +0.000 A 
ATOM      3  N   UNL     1       3.320  17.299  18.266  0.00  0.00    +0.000 NA
ATOM      4  N   UNL     1       4.464  16.617  18.488  0.00  0.00    +0.000 N 
ATOM      5  C   UNL     1       5.713  17.168  18.708  0.00  0.00    +0.000 A 
ATOM      6  C   UNL     1       6.775  16.379  18.885  0.00  0.00    +0.000 A 
ATOM      7  C   UNL     1       6.558  14.897  18.711  0.00  0.00    +0.000 A 
ATOM      8  N   UNL     1       7.661  14.060  18.658  0.00  0.00    +0.000 N 
ATOM      9  C   UNL     1       7.915  13.279  17.452  0.00  0.00    +0.000 C 
ATOM     10  C   UNL     1       9.095  12.406  17.838  0.00  0.00    +0.000 C 
ATOM     11  C   UNL     1       9.943  13.343  18.685  0.00  0.00    +0.000 C 
ATOM     12  C   UNL     1       8.926  14.267  19.388  0.00  0.00    +0.000 C 
ATOM     13  N   UNL     1       5.354  14.372  18.560  0.00  0.00    +0.000 NA
ATOM     14  C   UNL     1       4.277  15.231  18.507  0.00  0.00    +0.000 A 
ENDROOT
BRANCH   1  21
ATOM     15  C   UNL     1      -1.082  11.832  18.081  0.00  0.00    +0.000 C 
ATOM     16  C   UNL     1      -0.236  10.675  18.618  0.00  0.00    +0.000 C 
ATOM     17  C   UNL     1       1.255  11.089  18.717  0.00  0.00    +0.000 C 
ATOM     18  N   UNL     1       1.467  11.991  19.847  0.00  0.00    +0.000 N 
ATOM     19  C   UNL     1       1.984  13.270  19.838  0.00  0.00    +0.000 C 
ATOM     20  O   UNL     1       2.211  13.850  20.902  0.00  0.00    +0.000 OA
ATOM     21  N   UNL     1       2.212  13.849  18.608  0.00  0.00    +0.000 N 
ATOM     22  C   UNL     1       1.015  11.421  21.123  0.00  0.00    +0.000 C 
ATOM     23  C   UNL     1      -0.471  11.033  21.035  0.00  0.00    +0.000 C 
ATOM     24  N   UNL     1      -0.776  10.150  19.892  0.00  0.00    +0.000 NA
ATOM     25  H   UNL     1       1.767  13.500  17.775  0.00  0.00    +0.000 HD
ATOM     26  H   UNL     1      -1.787  10.037  19.822  0.00  0.00    +0.000 HD
ENDBRANCH   1  21
BRANCH  12  27
ATOM     27  C   UNL     1       8.779  13.941  20.861  0.00  0.00    +0.000 A 
ATOM     28  C   UNL     1       8.587  12.608  21.276  0.00  0.00    +0.000 A 
ATOM     29  C   UNL     1       8.458  12.287  22.623  0.00  0.00    +0.000 A 
ATOM     30  F   UNL     1       8.263  11.014  22.982  0.00  0.00    +0.000 F 
ATOM     31  C   UNL     1       8.529  13.271  23.598  0.00  0.00    +0.000 A 
ATOM     32  C   UNL     1       8.733  14.597  23.217  0.00  0.00    +0.000 A 
ATOM     33  C   UNL     1       8.859  14.928  21.862  0.00  0.00    +0.000 A 
ATOM     34 CL   UNL     1       9.121  16.596  21.483  0.00  0.00    +0.000 Cl
ENDBRANCH  12  27
TORSDOF 2
ENDMDL
MODEL 4
REMARK VINA RESULT:      -6.8      1.049      1.608
REMARK  Name = 
REMARK  3 active torsions:
REMARK  status: ('A' for Active; 'I' for Inactive)
REMARK    1  A    between atoms: C_1  and  C_2
REMARK    2  A    between atoms: N_7  and  C_8
REMARK    3  A    between atoms: C_19  and  C_20
REMARK                            x       y       z     vdW  Elec       q    Type
REMARK                         _______ _______ _______ _____ _____    ______ ____
ROOT
ATOM      1  C   UNL     1      -1.013  16.261  20.270  0.00  0.00    +0.000 A 
ATOM      2  C   UNL     1      -0.044  17.258  20.009  0.00  0.00    +0.000 A 
ATOM      3  N   UNL     1       1.011  16.804  19.339  0.00  0.00    +0.000 NA
ATOM      4  N   UNL     1       0.744  15.492  19.170  0.00  0.00    +0.000 N 
ATOM      5  C   UNL     1       1.601  14.546  18.640  0.00  0.00    +0.000 A 
ATOM      6  C   UNL     1       1.202  13.280  18.496  0.00  0.00    +0.000 A 
ATOM      7  C   UNL     1      -0.240  12.982  18.821  0.00  0.00    +0.000 A 
ATOM      8  N   UNL     1      -0.762  11.745  18.476  0.00  0.00    +0.000 N 
ATOM      9  C   UNL     1      -1.870  11.671  17.530  0.00  0.00    +0.000 C 
ATOM     10  C   UNL     1      -2.238  10.198  17.530  0.00  0.00    +0.000 C 
ATOM     11  C   UNL     1      -0.882   9.513  17.623  0.00  0.00    +0.000 C 
ATOM     12  C   UNL     1      -0.012  10.475  18.459  0.00  0.00    +0.000 C 
ATOM     13  N   UNL     1      -1.038  13.874  19.382  0.00  0.00    +0.000 NA
ATOM     14  C   UNL     1      -0.531  15.134  19.620  0.00  0.00    +0.000 A 
ENDROOT
BRANCH   1  21
ATOM     15  C   UNL     1      -4.874  18.631  22.693  0.00  0.00    +0.000 C 
ATOM     16  C   UNL     1      -5.555  17.290  22.980  0.00  0.00    +0.000 C 
ATOM     17  C   UNL     1      -4.845  16.143  22.217  0.00  0.00    +0.000 C 
ATOM     18  N   UNL     1      -3.565  15.818  22.844  0.00  0.00    +0.000 N 
ATOM     19  C   UNL     1      -2.305  15.840  22.282  0.00  0.00    +0.000 C 
ATOM     20  O   UNL     1      -1.339  15.417  22.920  0.00  0.00    +0.000 OA
ATOM     21  N   UNL     1      -2.191  16.358  21.010  0.00  0.00    +0.000 N 
ATOM     22  C   UNL     1      -3.698  15.473  24.265  0.00  0.00    +0.000 C 
ATOM     23  C   UNL     1      -4.380  16.621  25.030  0.00  0.00    +0.000 C 
ATOM     24  N   UNL     1      -5.665  17.035  24.435  0.00  0.00    +0.000 NA
ATOM     25  H   UNL     1      -2.906  16.951  20.620  0.00  0.00    +0.000 HD
ATOM     26  H   UNL     1      -5.996  17.873  24.912  0.00  0.00    +0.000 HD
ENDBRANCH   1  21
BRANCH  12  27
ATOM     27  C   UNL     1       0.232   9.954  19.861  0.00  0.00    +0.000 A 
ATOM     28  C   UNL     1      -0.507  10.465  20.946  0.00  0.00    +0.000 A 
ATOM     29  C   UNL     1      -0.303   9.995  22.239  0.00  0.00    +0.000 A 
ATOM     30  F   UNL     1      -1.012  10.512  23.248  0.00  0.00    +0.000 F 
ATOM     31  C   UNL     1       0.626   8.996  22.494  0.00  0.00    +0.000 A 
ATOM     32  C   UNL     1       1.361   8.461  21.436  0.00  0.00    +0.000 A 
ATOM     33  C   UNL     1       1.164   8.934  20.133  0.00  0.00    +0.000 A 
ATOM     34 CL   UNL     1       2.113   8.204  18.882  0.00  0.00    +0.000 Cl
ENDBRANCH  12  27
TORSDOF 2
ENDMDL
MODEL 5
REMARK VINA RESULT:      -6.8      5.082      6.684
REMARK  Name = 
REMARK  3 active torsions:
REMARK  status: ('A' for Active; 'I' for Inactive)
REMARK    1  A    between atoms: C_1  and  C_2
REMARK    2  A    between atoms: N_7  and  C_8
REMARK    3  A    between atoms: C_19  and  C_20
REMARK                            x       y       z     vdW  Elec       q    Type
REMARK                         _______ _______ _______ _____ _____    ______ ____
ROOT
ATOM      1  C   UNL     1       4.941  14.847  22.027  0.00  0.00    +0.000 A 
ATOM      2  C   UNL     1       5.731  15.278  20.936  0.00  0.00    +0.000 A 
ATOM      3  N   UNL     1       5.079  15.265  19.777  0.00  0.00    +0.000 NA
ATOM      4  N   UNL     1       3.854  14.805  20.103  0.00  0.00    +0.000 N 
ATOM      5  C   UNL     1       2.840  14.484  19.219  0.00  0.00    +0.000 A 
ATOM      6  C   UNL     1       1.656  14.067  19.673  0.00  0.00    +0.000 A 
ATOM      7  C   UNL     1       1.458  14.086  21.168  0.00  0.00    +0.000 A 
ATOM      8  N   UNL     1       0.184  13.882  21.677  0.00  0.00    +0.000 N 
ATOM      9  C   UNL     1      -0.456  14.936  22.457  0.00  0.00    +0.000 C 
ATOM     10  C   UNL     1      -1.739  14.286  22.943  0.00  0.00    +0.000 C 
ATOM     11  C   UNL     1      -2.168  13.452  21.745  0.00  0.00    +0.000 C 
ATOM     12  C   UNL     1      -0.847  13.016  21.076  0.00  0.00    +0.000 C 
ATOM     13  N   UNL     1       2.446  14.335  22.009  0.00  0.00    +0.000 NA
ATOM     14  C   UNL     1       3.682  14.642  21.481  0.00  0.00    +0.000 A 
ENDROOT
BRANCH   1  21
ATOM     15  C   UNL     1       7.953  15.209  26.173  0.00  0.00    +0.000 C 
ATOM     16  C   UNL     1       6.883  14.545  27.044  0.00  0.00    +0.000 C 
ATOM     17  C   UNL     1       5.554  14.398  26.259  0.00  0.00    +0.000 C 
ATOM     18  N   UNL     1       5.654  13.326  25.270  0.00  0.00    +0.000 N 
ATOM     19  C   UNL     1       5.475  13.401  23.904  0.00  0.00    +0.000 C 
ATOM     20  O   UNL     1       5.475  12.372  23.225  0.00  0.00    +0.000 OA
ATOM     21  N   UNL     1       5.314  14.657  23.357  0.00  0.00    +0.000 N 
ATOM     22  C   UNL     1       6.036  12.038  25.862  0.00  0.00    +0.000 C 
ATOM     23  C   UNL     1       7.368  12.176  26.620  0.00  0.00    +0.000 C 
ATOM     24  N   UNL     1       7.362  13.266  27.615  0.00  0.00    +0.000 NA
ATOM     25  H   UNL     1       5.598  15.484  23.855  0.00  0.00    +0.000 HD
ATOM     26  H   UNL     1       8.305  13.381  27.986  0.00  0.00    +0.000 HD
ENDBRANCH   1  21
BRANCH  12  27
ATOM     27  C   UNL     1      -0.546  11.548  21.308  0.00  0.00    +0.000 A 
ATOM     28  C   UNL     1      -0.430  11.047  22.619  0.00  0.00    +0.000 A 
ATOM     29  C   UNL     1      -0.161   9.702  22.853  0.00  0.00    +0.000 A 
ATOM     30  F   UNL     1      -0.043   9.262  24.110  0.00  0.00    +0.000 F 
ATOM     31  C   UNL     1      -0.015   8.813  21.798  0.00  0.00    +0.000 A 
ATOM     32  C   UNL     1      -0.140   9.278  20.490  0.00  0.00    +0.000 A 
ATOM     33  C   UNL     1      -0.405  10.632  20.247  0.00  0.00    +0.000 A 
ATOM     34 CL   UNL     1      -0.555  11.118  18.593  0.00  0.00    +0.000 Cl
ENDBRANCH  12  27
TORSDOF 2
ENDMDL
MODEL 6
REMARK VINA RESULT:      -6.6      3.435      5.468
REMARK  Name = 
REMARK  3 active torsions:
REMARK  status: ('A' for Active; 'I' for Inactive)
REMARK    1  A    between atoms: C_1  and  C_2
REMARK    2  A    between atoms: N_7  and  C_8
REMARK    3  A    between atoms: C_19  and  C_20
REMARK                            x       y       z     vdW  Elec       q    Type
REMARK                         _______ _______ _______ _____ _____    ______ ____
ROOT
ATOM      1  C   UNL     1      -5.160  12.258  18.730  0.00  0.00    +0.000 A 
ATOM      2  C   UNL     1      -5.784  12.050  17.477  0.00  0.00    +0.000 A 
ATOM      3  N   UNL     1      -4.976  11.505  16.572  0.00  0.00    +0.000 NA
ATOM      4  N   UNL     1      -3.804  11.369  17.227  0.00  0.00    +0.000 N 
ATOM      5  C   UNL     1      -2.602  10.967  16.675  0.00  0.00    +0.000 A 
ATOM      6  C   UNL     1      -1.517  10.841  17.442  0.00  0.00    +0.000 A 
ATOM      7  C   UNL     1      -1.707  11.036  18.925  0.00  0.00    +0.000 A 
ATOM      8  N   UNL     1      -0.673  10.696  19.784  0.00  0.00    +0.000 N 
ATOM      9  C   UNL     1      -0.880   9.651  20.781  0.00  0.00    +0.000 C 
ATOM     10  C   UNL     1       0.400   9.680  21.595  0.00  0.00    +0.000 C 
ATOM     11  C   UNL     1       1.465   9.934  20.538  0.00  0.00    +0.000 C 
ATOM     12  C   UNL     1       0.764  10.808  19.477  0.00  0.00    +0.000 C 
ATOM     13  N   UNL     1      -2.842  11.478  19.440  0.00  0.00    +0.000 NA
ATOM     14  C   UNL     1      -3.895  11.708  18.581  0.00  0.00    +0.000 A 
ENDROOT
BRANCH   1  21
ATOM     15  C   UNL     1      -4.987  14.690  23.252  0.00  0.00    +0.000 C 
ATOM     16  C   UNL     1      -6.510  14.842  23.262  0.00  0.00    +0.000 C 
ATOM     17  C   UNL     1      -7.110  14.417  21.897  0.00  0.00    +0.000 C 
ATOM     18  N   UNL     1      -7.086  12.962  21.751  0.00  0.00    +0.000 N 
ATOM     19  C   UNL     1      -6.480  12.208  20.768  0.00  0.00    +0.000 C 
ATOM     20  O   UNL     1      -6.661  10.990  20.726  0.00  0.00    +0.000 OA
ATOM     21  N   UNL     1      -5.672  12.874  19.871  0.00  0.00    +0.000 N 
ATOM     22  C   UNL     1      -7.779  12.270  22.845  0.00  0.00    +0.000 C 
ATOM     23  C   UNL     1      -7.169  12.670  24.200  0.00  0.00    +0.000 C 
ATOM     24  N   UNL     1      -7.121  14.130  24.408  0.00  0.00    +0.000 NA
ATOM     25  H   UNL     1      -5.305  13.789  20.077  0.00  0.00    +0.000 HD
ATOM     26  H   UNL     1      -6.596  14.326  25.260  0.00  0.00    +0.000 HD
ENDBRANCH   1  21
BRANCH  12  27
ATOM     27  C   UNL     1       1.233  12.249  19.521  0.00  0.00    +0.000 A 
ATOM     28  C   UNL     1       2.083  12.749  18.514  0.00  0.00    +0.000 A 
ATOM     29  C   UNL     1       2.518  14.070  18.532  0.00  0.00    +0.000 A 
ATOM     30  F   UNL     1       3.335  14.508  17.569  0.00  0.00    +0.000 F 
ATOM     31  C   UNL     1       2.114  14.937  19.537  0.00  0.00    +0.000 A 
ATOM     32  C   UNL     1       1.261  14.474  20.538  0.00  0.00    +0.000 A 
ATOM     33  C   UNL     1       0.824  13.144  20.528  0.00  0.00    +0.000 A 
ATOM     34 CL   UNL     1      -0.241  12.659  21.804  0.00  0.00    +0.000 Cl
ENDBRANCH  12  27
TORSDOF 2
ENDMDL
MODEL 7
REMARK VINA RESULT:      -6.6      4.856      6.460
REMARK  Name = 
REMARK  3 active torsions:
REMARK  status: ('A' for Active; 'I' for Inactive)
REMARK    1  A    between atoms: C_1  and  C_2
REMARK    2  A    between atoms: N_7  and  C_8
REMARK    3  A    between atoms: C_19  and  C_20
REMARK                            x       y       z     vdW  Elec       q    Type
REMARK                         _______ _______ _______ _____ _____    ______ ____
ROOT
ATOM      1  C   UNL     1       5.096  14.580  21.711  0.00  0.00    +0.000 A 
ATOM      2  C   UNL     1       5.770  15.099  20.581  0.00  0.00    +0.000 A 
ATOM      3  N   UNL     1       4.977  15.268  19.527  0.00  0.00    +0.000 NA
ATOM      4  N   UNL     1       3.773  14.840  19.959  0.00  0.00    +0.000 N 
ATOM      5  C   UNL     1       2.635  14.690  19.189  0.00  0.00    +0.000 A 
ATOM      6  C   UNL     1       1.491  14.286  19.747  0.00  0.00    +0.000 A 
ATOM      7  C   UNL     1       1.486  14.129  21.246  0.00  0.00    +0.000 A 
ATOM      8  N   UNL     1       0.277  13.935  21.896  0.00  0.00    +0.000 N 
ATOM      9  C   UNL     1      -0.181  14.918  22.872  0.00  0.00    +0.000 C 
ATOM     10  C   UNL     1      -1.436  14.286  23.448  0.00  0.00    +0.000 C 
ATOM     11  C   UNL     1      -2.073  13.633  22.229  0.00  0.00    +0.000 C 
ATOM     12  C   UNL     1      -0.883  13.211  21.343  0.00  0.00    +0.000 C 
ATOM     13  N   UNL     1       2.589  14.216  21.970  0.00  0.00    +0.000 NA
ATOM     14  C   UNL     1       3.766  14.516  21.320  0.00  0.00    +0.000 A 
ENDROOT
BRANCH   1  21
ATOM     15  C   UNL     1       5.976  11.476  25.709  0.00  0.00    +0.000 C 
ATOM     16  C   UNL     1       6.919  12.505  26.338  0.00  0.00    +0.000 C 
ATOM     17  C   UNL     1       7.200  13.664  25.348  0.00  0.00    +0.000 C 
ATOM     18  N   UNL     1       6.039  14.545  25.239  0.00  0.00    +0.000 N 
ATOM     19  C   UNL     1       5.317  14.877  24.111  0.00  0.00    +0.000 C 
ATOM     20  O   UNL     1       4.434  15.735  24.175  0.00  0.00    +0.000 OA
ATOM     21  N   UNL     1       5.621  14.204  22.947  0.00  0.00    +0.000 N 
ATOM     22  C   UNL     1       5.608  15.082  26.536  0.00  0.00    +0.000 C 
ATOM     23  C   UNL     1       5.304  13.933  27.513  0.00  0.00    +0.000 C 
ATOM     24  N   UNL     1       6.417  12.974  27.649  0.00  0.00    +0.000 NA
ATOM     25  H   UNL     1       6.120  13.329  22.964  0.00  0.00    +0.000 HD
ATOM     26  H   UNL     1       6.104  12.181  28.207  0.00  0.00    +0.000 HD
ENDBRANCH   1  21
BRANCH  12  27
ATOM     27  C   UNL     1      -0.661  11.711  21.359  0.00  0.00    +0.000 A 
ATOM     28  C   UNL     1      -0.516  11.029  22.583  0.00  0.00    +0.000 A 
ATOM     29  C   UNL     1      -0.320   9.652  22.619  0.00  0.00    +0.000 A 
ATOM     30  F   UNL     1      -0.172   9.038  23.798  0.00  0.00    +0.000 F 
ATOM     31  C   UNL     1      -0.276   8.909  21.448  0.00  0.00    +0.000 A 
ATOM     32  C   UNL     1      -0.433   9.556  20.223  0.00  0.00    +0.000 A 
ATOM     33  C   UNL     1      -0.625  10.943  20.179  0.00  0.00    +0.000 A 
ATOM     34 CL   UNL     1      -0.820  11.659  18.615  0.00  0.00    +0.000 Cl
ENDBRANCH  12  27
TORSDOF 2
ENDMDL
MODEL 8
REMARK VINA RESULT:      -6.6      6.572      8.879
REMARK  Name = 
REMARK  3 active torsions:
REMARK  status: ('A' for Active; 'I' for Inactive)
REMARK    1  A    between atoms: C_1  and  C_2
REMARK    2  A    between atoms: N_7  and  C_8
REMARK    3  A    between atoms: C_19  and  C_20
REMARK                            x       y       z     vdW  Elec       q    Type
REMARK                         _______ _______ _______ _____ _____    ______ ____
ROOT
ATOM      1  C   UNL     1       4.873  15.948  22.094  0.00  0.00    +0.000 A 
ATOM      2  C   UNL     1       4.834  15.991  23.508  0.00  0.00    +0.000 A 
ATOM      3  N   UNL     1       6.036  15.905  24.070  0.00  0.00    +0.000 NA
ATOM      4  N   UNL     1       6.874  15.787  23.019  0.00  0.00    +0.000 N 
ATOM      5  C   UNL     1       8.232  15.535  23.081  0.00  0.00    +0.000 A 
ATOM      6  C   UNL     1       8.958  15.473  21.963  0.00  0.00    +0.000 A 
ATOM      7  C   UNL     1       8.251  15.809  20.675  0.00  0.00    +0.000 A 
ATOM      8  N   UNL     1       9.003  15.981  19.523  0.00  0.00    +0.000 N 
ATOM      9  C   UNL     1       8.996  17.273  18.845  0.00  0.00    +0.000 C 
ATOM     10  C   UNL     1       9.801  17.015  17.584  0.00  0.00    +0.000 C 
ATOM     11  C   UNL     1      10.903  16.086  18.073  0.00  0.00    +0.000 C 
ATOM     12  C   UNL     1      10.250  15.261  19.201  0.00  0.00    +0.000 C 
ATOM     13  N   UNL     1       6.943  15.991  20.613  0.00  0.00    +0.000 NA
ATOM     14  C   UNL     1       6.225  15.922  21.787  0.00  0.00    +0.000 A 
ENDROOT
BRANCH   1  21
ATOM     15  C   UNL     1       0.195  17.081  20.296  0.00  0.00    +0.000 C 
ATOM     16  C   UNL     1       0.496  16.363  18.978  0.00  0.00    +0.000 C 
ATOM     17  C   UNL     1       1.994  15.970  18.900  0.00  0.00    +0.000 C 
ATOM     18  N   UNL     1       2.278  14.836  19.778  0.00  0.00    +0.000 N 
ATOM     19  C   UNL     1       3.180  14.763  20.819  0.00  0.00    +0.000 C 
ATOM     20  O   UNL     1       3.384  13.686  21.383  0.00  0.00    +0.000 OA
ATOM     21  N   UNL     1       3.811  15.931  21.190  0.00  0.00    +0.000 N 
ATOM     22  C   UNL     1       1.434  13.670  19.490  0.00  0.00    +0.000 C 
ATOM     23  C   UNL     1      -0.053  14.050  19.592  0.00  0.00    +0.000 C 
ATOM     24  N   UNL     1      -0.414  15.215  18.762  0.00  0.00    +0.000 NA
ATOM     25  H   UNL     1       3.439  16.831  20.933  0.00  0.00    +0.000 HD
ATOM     26  H   UNL     1      -1.374  15.487  18.972  0.00  0.00    +0.000 HD
ENDBRANCH   1  21
BRANCH  12  27
ATOM     27  C   UNL     1       9.974  13.832  18.779  0.00  0.00    +0.000 A 
ATOM     28  C   UNL     1       8.815  13.522  18.040  0.00  0.00    +0.000 A 
ATOM     29  C   UNL     1       8.548  12.218  17.636  0.00  0.00    +0.000 A 
ATOM     30  F   UNL     1       7.432  11.956  16.948  0.00  0.00    +0.000 F 
ATOM     31  C   UNL     1       9.425  11.186  17.938  0.00  0.00    +0.000 A 
ATOM     32  C   UNL     1      10.588  11.467  18.655  0.00  0.00    +0.000 A 
ATOM     33  C   UNL     1      10.860  12.777  19.069  0.00  0.00    +0.000 A 
ATOM     34 CL   UNL     1      12.331  13.033  19.945  0.00  0.00    +0.000 Cl
ENDBRANCH  12  27
TORSDOF 2
ENDMDL
MODEL 9
REMARK VINA RESULT:      -6.5      3.877      6.913
REMARK  Name = 
REMARK  3 active torsions:
REMARK  status: ('A' for Active; 'I' for Inactive)
REMARK    1  A    between atoms: C_1  and  C_2
REMARK    2  A    between atoms: N_7  and  C_8
REMARK    3  A    between atoms: C_19  and  C_20
REMARK                            x       y       z     vdW  Elec       q    Type
REMARK                         _______ _______ _______ _____ _____    ______ ____
ROOT
ATOM      1  C   UNL     1      -2.212  11.344  18.360  0.00  0.00    +0.000 A 
ATOM      2  C   UNL     1      -1.624  10.109  17.995  0.00  0.00    +0.000 A 
ATOM      3  N   UNL     1      -0.298  10.109  18.092  0.00  0.00    +0.000 NA
ATOM      4  N   UNL     1      -0.006  11.360  18.507  0.00  0.00    +0.000 N 
ATOM      5  C   UNL     1       1.259  11.904  18.633  0.00  0.00    +0.000 A 
ATOM      6  C   UNL     1       1.414  13.149  19.088  0.00  0.00    +0.000 A 
ATOM      7  C   UNL     1       0.171  13.860  19.560  0.00  0.00    +0.000 A 
ATOM      8  N   UNL     1       0.303  15.057  20.247  0.00  0.00    +0.000 N 
ATOM      9  C   UNL     1      -0.174  15.154  21.622  0.00  0.00    +0.000 C 
ATOM     10  C   UNL     1       0.014  16.622  21.959  0.00  0.00    +0.000 C 
ATOM     11  C   UNL     1       1.330  16.959  21.273  0.00  0.00    +0.000 C 
ATOM     12  C   UNL     1       1.360  16.060  20.019  0.00  0.00    +0.000 C 
ATOM     13  N   UNL     1      -1.040  13.359  19.384  0.00  0.00    +0.000 NA
ATOM     14  C   UNL     1      -1.146  12.118  18.795  0.00  0.00    +0.000 A 
ENDROOT
BRANCH   1  21
ATOM     15  C   UNL     1      -6.278  14.039  16.747  0.00  0.00    +0.000 C 
ATOM     16  C   UNL     1      -7.220  13.180  17.595  0.00  0.00    +0.000 C 
ATOM     17  C   UNL     1      -6.463  11.965  18.190  0.00  0.00    +0.000 C 
ATOM     18  N   UNL     1      -5.588  12.384  19.284  0.00  0.00    +0.000 N 
ATOM     19  C   UNL     1      -4.223  12.222  19.400  0.00  0.00    +0.000 C 
ATOM     20  O   UNL     1      -3.654  12.527  20.449  0.00  0.00    +0.000 OA
ATOM     21  N   UNL     1      -3.551  11.726  18.302  0.00  0.00    +0.000 N 
ATOM     22  C   UNL     1      -6.307  13.100  20.345  0.00  0.00    +0.000 C 
ATOM     23  C   UNL     1      -7.038  14.323  19.761  0.00  0.00    +0.000 C 
ATOM     24  N   UNL     1      -7.915  13.988  18.623  0.00  0.00    +0.000 NA
ATOM     25  H   UNL     1      -3.960  11.754  17.382  0.00  0.00    +0.000 HD
ATOM     26  H   UNL     1      -8.266  14.851  18.210  0.00  0.00    +0.000 HD
ENDBRANCH   1  21
BRANCH  12  27
ATOM     27  C   UNL     1       1.117  16.845  18.746  0.00  0.00    +0.000 A 
ATOM     28  C   UNL     1      -0.152  17.398  18.485  0.00  0.00    +0.000 A 
ATOM     29  C   UNL     1      -0.394  18.129  17.327  0.00  0.00    +0.000 A 
ATOM     30  F   UNL     1      -1.614  18.628  17.104  0.00  0.00    +0.000 F 
ATOM     31  C   UNL     1       0.616  18.346  16.400  0.00  0.00    +0.000 A 
ATOM     32  C   UNL     1       1.886  17.823  16.639  0.00  0.00    +0.000 A 
ATOM     33  C   UNL     1       2.135  17.083  17.801  0.00  0.00    +0.000 A 
ATOM     34 CL   UNL     1       3.743  16.481  18.020  0.00  0.00    +0.000 Cl
ENDBRANCH  12  27
TORSDOF 2
ENDMDL
