MODEL 1
REMARK VINA RESULT:      -7.1      0.000      0.000
REMARK  Name = 
REMARK  9 active torsions:
REMARK  status: ('A' for Active; 'I' for Inactive)
REMARK    1  A    between atoms: C_1  and  C_2
REMARK    2  A    between atoms: C_2  and  C_3
REMARK    3  A    between atoms: C_2  and  O_4
REMARK    4  A    between atoms: O_4  and  C_5
REMARK    5  A    between atoms: C_5  and  C_7
REMARK    6  A    between atoms: C_7  and  C_8
REMARK    7  A    between atoms: C_7  and  N_9
REMARK    8  A    between atoms: N_9  and  C_10
REMARK    9  A    between atoms: C_15  and  C_16
REMARK                            x       y       z     vdW  Elec       q    Type
REMARK                         _______ _______ _______ _____ _____    ______ ____
ROOT
ATOM      1  N   UNL     1       6.056   4.370  16.783  0.00  0.00    +0.000 N 
ATOM      2  C   UNL     1       7.437   4.615  17.167  0.00  0.00    +0.000 C 
ATOM      3  C   UNL     1       5.185   4.107  17.825  0.00  0.00    +0.000 A 
ATOM      4  N   UNL     1       5.684   3.767  19.025  0.00  0.00    +0.000 NA
ATOM      5  C   UNL     1       4.826   3.428  20.003  0.00  0.00    +0.000 A 
ATOM      6  C   UNL     1       3.467   3.420  19.841  0.00  0.00    +0.000 A 
ATOM      7  C   UNL     1       3.012   3.789  18.593  0.00  0.00    +0.000 A 
ATOM      8  N   UNL     1       3.867   4.148  17.597  0.00  0.00    +0.000 NA
ENDROOT
BRANCH   7   9
ATOM      9  C   UNL     1       1.529   3.756  18.279  0.00  0.00    +0.000 C 
ATOM     10  F   UNL     1       0.751   4.201  19.311  0.00  0.00    +0.000 F 
ATOM     11  F   UNL     1       1.188   4.528  17.209  0.00  0.00    +0.000 F 
ATOM     12  F   UNL     1       1.075   2.501  17.999  0.00  0.00    +0.000 F 
ENDBRANCH   7   9
BRANCH   1  13
ATOM     13  C   UNL     1       5.512   4.855  15.496  0.00  0.00    +0.000 C 
ATOM     14  C   UNL     1       5.205   6.348  15.559  0.00  0.00    +0.000 C 
BRANCH  13  15
ATOM     15  C   UNL     1       6.458   4.588  14.305  0.00  0.00    +0.000 C 
ATOM     16  O   UNL     1       7.356   5.334  13.924  0.00  0.00    +0.000 OA
BRANCH  15  17
ATOM     17  O   UNL     1       6.119   3.421  13.669  0.00  0.00    +0.000 OA
BRANCH  17  19
ATOM     18  C   UNL     1       6.864   2.406  11.579  0.00  0.00    +0.000 C 
ATOM     19  C   UNL     1       6.032   3.507  12.230  0.00  0.00    +0.000 C 
ATOM     20  C   UNL     1       4.569   3.363  11.819  0.00  0.00    +0.000 C 
ENDBRANCH  17  19
ENDBRANCH  15  17
ENDBRANCH  13  15
ENDBRANCH   1  13
TORSDOF 5
ENDMDL
MODEL 2
REMARK VINA RESULT:      -6.8      2.783      4.537
REMARK  Name = 
REMARK  9 active torsions:
REMARK  status: ('A' for Active; 'I' for Inactive)
REMARK    1  A    between atoms: C_1  and  C_2
REMARK    2  A    between atoms: C_2  and  C_3
REMARK    3  A    between atoms: C_2  and  O_4
REMARK    4  A    between atoms: O_4  and  C_5
REMARK    5  A    between atoms: C_5  and  C_7
REMARK    6  A    between atoms: C_7  and  C_8
REMARK    7  A    between atoms: C_7  and  N_9
REMARK    8  A    between atoms: N_9  and  C_10
REMARK    9  A    between atoms: C_15  and  C_16
REMARK                            x       y       z     vdW  Elec       q    Type
REMARK                         _______ _______ _______ _____ _____    ______ ____
ROOT
ATOM      1  N   UNL     1       4.815   4.419  17.335  0.00  0.00    +0.000 N 
ATOM      2  C   UNL     1       5.669   3.767  16.355  0.00  0.00    +0.000 C 
ATOM      3  C   UNL     1       3.951   3.585  18.020  0.00  0.00    +0.000 A 
ATOM      4  N   UNL     1       3.707   2.355  17.538  0.00  0.00    +0.000 NA
ATOM      5  C   UNL     1       2.797   1.589  18.165  0.00  0.00    +0.000 A 
ATOM      6  C   UNL     1       2.112   1.995  19.278  0.00  0.00    +0.000 A 
ATOM      7  C   UNL     1       2.412   3.261  19.735  0.00  0.00    +0.000 A 
ATOM      8  N   UNL     1       3.338   4.043  19.119  0.00  0.00    +0.000 NA
ENDROOT
BRANCH   7   9
ATOM      9  C   UNL     1       1.667   3.841  20.922  0.00  0.00    +0.000 C 
ATOM     10  F   UNL     1       1.176   2.886  21.767  0.00  0.00    +0.000 F 
ATOM     11  F   UNL     1       2.442   4.649  21.701  0.00  0.00    +0.000 F 
ATOM     12  F   UNL     1       0.589   4.590  20.558  0.00  0.00    +0.000 F 
ENDBRANCH   7   9
BRANCH   1  13
ATOM     13  C   UNL     1       5.172   5.728  17.925  0.00  0.00    +0.000 C 
ATOM     14  C   UNL     1       6.680   5.848  18.120  0.00  0.00    +0.000 C 
BRANCH  13  15
ATOM     15  C   UNL     1       4.680   6.923  17.082  0.00  0.00    +0.000 C 
ATOM     16  O   UNL     1       4.883   7.082  15.881  0.00  0.00    +0.000 OA
BRANCH  15  17
ATOM     17  O   UNL     1       4.029   7.838  17.870  0.00  0.00    +0.000 OA
BRANCH  17  19
ATOM     18  C   UNL     1       2.355   7.269  19.552  0.00  0.00    +0.000 C 
ATOM     19  C   UNL     1       2.624   7.579  18.082  0.00  0.00    +0.000 C 
ATOM     20  C   UNL     1       1.830   8.812  17.659  0.00  0.00    +0.000 C 
ENDBRANCH  17  19
ENDBRANCH  15  17
ENDBRANCH  13  15
ENDBRANCH   1  13
TORSDOF 5
ENDMDL
MODEL 3
REMARK VINA RESULT:      -6.8      2.463      4.356
REMARK  Name = 
REMARK  9 active torsions:
REMARK  status: ('A' for Active; 'I' for Inactive)
REMARK    1  A    between atoms: C_1  and  C_2
REMARK    2  A    between atoms: C_2  and  C_3
REMARK    3  A    between atoms: C_2  and  O_4
REMARK    4  A    between atoms: O_4  and  C_5
REMARK    5  A    between atoms: C_5  and  C_7
REMARK    6  A    between atoms: C_7  and  C_8
REMARK    7  A    between atoms: C_7  and  N_9
REMARK    8  A    between atoms: N_9  and  C_10
REMARK    9  A    between atoms: C_15  and  C_16
REMARK                            x       y       z     vdW  Elec       q    Type
REMARK                         _______ _______ _______ _____ _____    ______ ____
ROOT
ATOM      1  N   UNL     1       4.698   5.687  17.334  0.00  0.00    +0.000 N 
ATOM      2  C   UNL     1       4.574   6.897  16.538  0.00  0.00    +0.000 C 
ATOM      3  C   UNL     1       3.766   5.540  18.346  0.00  0.00    +0.000 A 
ATOM      4  N   UNL     1       3.059   6.611  18.744  0.00  0.00    +0.000 NA
ATOM      5  C   UNL     1       2.222   6.473  19.787  0.00  0.00    +0.000 A 
ATOM      6  C   UNL     1       2.046   5.294  20.460  0.00  0.00    +0.000 A 
ATOM      7  C   UNL     1       2.789   4.228  19.999  0.00  0.00    +0.000 A 
ATOM      8  N   UNL     1       3.630   4.347  18.938  0.00  0.00    +0.000 NA
ENDROOT
BRANCH   7   9
ATOM      9  C   UNL     1       2.723   2.889  20.708  0.00  0.00    +0.000 C 
ATOM     10  F   UNL     1       1.933   1.978  20.065  0.00  0.00    +0.000 F 
ATOM     11  F   UNL     1       3.940   2.287  20.835  0.00  0.00    +0.000 F 
ATOM     12  F   UNL     1       2.215   2.981  21.970  0.00  0.00    +0.000 F 
ENDBRANCH   7   9
BRANCH   1  13
ATOM     13  C   UNL     1       5.394   4.488  16.818  0.00  0.00    +0.000 C 
ATOM     14  C   UNL     1       5.192   4.343  15.313  0.00  0.00    +0.000 C 
BRANCH  13  15
ATOM     15  C   UNL     1       6.907   4.493  17.122  0.00  0.00    +0.000 C 
ATOM     16  O   UNL     1       7.804   4.369  16.292  0.00  0.00    +0.000 OA
BRANCH  15  17
ATOM     17  O   UNL     1       7.130   4.589  18.472  0.00  0.00    +0.000 OA
BRANCH  17  19
ATOM     18  C   UNL     1       7.839   6.922  18.387  0.00  0.00    +0.000 C 
ATOM     19  C   UNL     1       8.173   5.510  18.859  0.00  0.00    +0.000 C 
ATOM     20  C   UNL     1       8.304   5.489  20.380  0.00  0.00    +0.000 C 
ENDBRANCH  17  19
ENDBRANCH  15  17
ENDBRANCH  13  15
ENDBRANCH   1  13
TORSDOF 5
ENDMDL
MODEL 4
REMARK VINA RESULT:      -6.8      0.673      1.156
REMARK  Name = 
REMARK  9 active torsions:
REMARK  status: ('A' for Active; 'I' for Inactive)
REMARK    1  A    between atoms: C_1  and  C_2
REMARK    2  A    between atoms: C_2  and  C_3
REMARK    3  A    between atoms: C_2  and  O_4
REMARK    4  A    between atoms: O_4  and  C_5
REMARK    5  A    between atoms: C_5  and  C_7
REMARK    6  A    between atoms: C_7  and  C_8
REMARK    7  A    between atoms: C_7  and  N_9
REMARK    8  A    between atoms: N_9  and  C_10
REMARK    9  A    between atoms: C_15  and  C_16
REMARK                            x       y       z     vdW  Elec       q    Type
REMARK                         _______ _______ _______ _____ _____    ______ ____
ROOT
ATOM      1  N   UNL     1       6.180   4.771  16.900  0.00  0.00    +0.000 N 
ATOM      2  C   UNL     1       7.365   5.460  17.384  0.00  0.00    +0.000 C 
ATOM      3  C   UNL     1       5.341   4.268  17.879  0.00  0.00    +0.000 A 
ATOM      4  N   UNL     1       5.803   4.140  19.133  0.00  0.00    +0.000 NA
ATOM      5  C   UNL     1       5.008   3.567  20.053  0.00  0.00    +0.000 A 
ATOM      6  C   UNL     1       3.745   3.114  19.779  0.00  0.00    +0.000 A 
ATOM      7  C   UNL     1       3.321   3.283  18.478  0.00  0.00    +0.000 A 
ATOM      8  N   UNL     1       4.108   3.873  17.539  0.00  0.00    +0.000 NA
ENDROOT
BRANCH   7   9
ATOM      9  C   UNL     1       1.964   2.762  18.043  0.00  0.00    +0.000 C 
ATOM     10  F   UNL     1       2.040   1.826  17.051  0.00  0.00    +0.000 F 
ATOM     11  F   UNL     1       1.270   2.164  19.053  0.00  0.00    +0.000 F 
ATOM     12  F   UNL     1       1.151   3.742  17.556  0.00  0.00    +0.000 F 
ENDBRANCH   7   9
BRANCH   1  13
ATOM     13  C   UNL     1       5.638   5.019  15.546  0.00  0.00    +0.000 C 
ATOM     14  C   UNL     1       5.187   6.468  15.394  0.00  0.00    +0.000 C 
BRANCH  13  15
ATOM     15  C   UNL     1       6.645   4.688  14.425  0.00  0.00    +0.000 C 
ATOM     16  O   UNL     1       7.602   5.384  14.095  0.00  0.00    +0.000 OA
BRANCH  15  17
ATOM     17  O   UNL     1       6.294   3.528  13.783  0.00  0.00    +0.000 OA
BRANCH  17  19
ATOM     18  C   UNL     1       7.060   2.611  11.656  0.00  0.00    +0.000 C 
ATOM     19  C   UNL     1       6.162   3.633  12.349  0.00  0.00    +0.000 C 
ATOM     20  C   UNL     1       4.705   3.383  11.972  0.00  0.00    +0.000 C 
ENDBRANCH  17  19
ENDBRANCH  15  17
ENDBRANCH  13  15
ENDBRANCH   1  13
TORSDOF 5
ENDMDL
MODEL 5
REMARK VINA RESULT:      -6.8      3.542      5.779
REMARK  Name = 
REMARK  9 active torsions:
REMARK  status: ('A' for Active; 'I' for Inactive)
REMARK    1  A    between atoms: C_1  and  C_2
REMARK    2  A    between atoms: C_2  and  C_3
REMARK    3  A    between atoms: C_2  and  O_4
REMARK    4  A    between atoms: O_4  and  C_5
REMARK    5  A    between atoms: C_5  and  C_7
REMARK    6  A    between atoms: C_7  and  C_8
REMARK    7  A    between atoms: C_7  and  N_9
REMARK    8  A    between atoms: N_9  and  C_10
REMARK    9  A    between atoms: C_15  and  C_16
REMARK                            x       y       z     vdW  Elec       q    Type
REMARK                         _______ _______ _______ _____ _____    ______ ____
ROOT
ATOM      1  N   UNL     1       4.159   3.516  18.814  0.00  0.00    +0.000 N 
ATOM      2  C   UNL     1       4.445   2.982  20.136  0.00  0.00    +0.000 C 
ATOM      3  C   UNL     1       5.262   3.925  18.085  0.00  0.00    +0.000 A 
ATOM      4  N   UNL     1       6.429   4.123  18.720  0.00  0.00    +0.000 NA
ATOM      5  C   UNL     1       7.467   4.605  18.015  0.00  0.00    +0.000 A 
ATOM      6  C   UNL     1       7.399   4.897  16.679  0.00  0.00    +0.000 A 
ATOM      7  C   UNL     1       6.180   4.662  16.079  0.00  0.00    +0.000 A 
ATOM      8  N   UNL     1       5.124   4.163  16.775  0.00  0.00    +0.000 NA
ENDROOT
BRANCH   7   9
ATOM      9  C   UNL     1       5.969   5.009  14.618  0.00  0.00    +0.000 C 
ATOM     10  F   UNL     1       5.231   6.144  14.435  0.00  0.00    +0.000 F 
ATOM     11  F   UNL     1       7.135   5.222  13.943  0.00  0.00    +0.000 F 
ATOM     12  F   UNL     1       5.309   4.034  13.931  0.00  0.00    +0.000 F 
ENDBRANCH   7   9
BRANCH   1  13
ATOM     13  C   UNL     1       2.906   3.188  18.100  0.00  0.00    +0.000 C 
ATOM     14  C   UNL     1       2.200   2.001  18.748  0.00  0.00    +0.000 C 
BRANCH  13  15
ATOM     15  C   UNL     1       1.924   4.377  18.030  0.00  0.00    +0.000 C 
ATOM     16  O   UNL     1       0.973   4.476  17.259  0.00  0.00    +0.000 OA
BRANCH  15  17
ATOM     17  O   UNL     1       2.293   5.362  18.911  0.00  0.00    +0.000 OA
BRANCH  17  19
ATOM     18  C   UNL     1       2.008   7.711  19.509  0.00  0.00    +0.000 C 
ATOM     19  C   UNL     1       2.248   6.706  18.385  0.00  0.00    +0.000 C 
ATOM     20  C   UNL     1       3.577   7.007  17.697  0.00  0.00    +0.000 C 
ENDBRANCH  17  19
ENDBRANCH  15  17
ENDBRANCH  13  15
ENDBRANCH   1  13
TORSDOF 5
ENDMDL
MODEL 6
REMARK VINA RESULT:      -6.7      2.436      4.155
REMARK  Name = 
REMARK  9 active torsions:
REMARK  status: ('A' for Active; 'I' for Inactive)
REMARK    1  A    between atoms: C_1  and  C_2
REMARK    2  A    between atoms: C_2  and  C_3
REMARK    3  A    between atoms: C_2  and  O_4
REMARK    4  A    between atoms: O_4  and  C_5
REMARK    5  A    between atoms: C_5  and  C_7
REMARK    6  A    between atoms: C_7  and  C_8
REMARK    7  A    between atoms: C_7  and  N_9
REMARK    8  A    between atoms: N_9  and  C_10
REMARK    9  A    between atoms: C_15  and  C_16
REMARK                            x       y       z     vdW  Elec       q    Type
REMARK                         _______ _______ _______ _____ _____    ______ ____
ROOT
ATOM      1  N   UNL     1       4.785   5.838  17.329  0.00  0.00    +0.000 N 
ATOM      2  C   UNL     1       4.606   7.077  16.591  0.00  0.00    +0.000 C 
ATOM      3  C   UNL     1       3.855   5.597  18.324  0.00  0.00    +0.000 A 
ATOM      4  N   UNL     1       3.091   6.610  18.766  0.00  0.00    +0.000 NA
ATOM      5  C   UNL     1       2.255   6.382  19.793  0.00  0.00    +0.000 A 
ATOM      6  C   UNL     1       2.134   5.164  20.408  0.00  0.00    +0.000 A 
ATOM      7  C   UNL     1       2.933   4.160  19.904  0.00  0.00    +0.000 A 
ATOM      8  N   UNL     1       3.774   4.371  18.857  0.00  0.00    +0.000 NA
ENDROOT
BRANCH   7   9
ATOM      9  C   UNL     1       2.929   2.786  20.548  0.00  0.00    +0.000 C 
ATOM     10  F   UNL     1       2.246   2.749  21.730  0.00  0.00    +0.000 F 
ATOM     11  F   UNL     1       2.354   1.828  19.767  0.00  0.00    +0.000 F 
ATOM     12  F   UNL     1       4.182   2.334  20.839  0.00  0.00    +0.000 F 
ENDBRANCH   7   9
BRANCH   1  13
ATOM     13  C   UNL     1       5.544   4.701  16.763  0.00  0.00    +0.000 C 
ATOM     14  C   UNL     1       4.897   4.196  15.477  0.00  0.00    +0.000 C 
BRANCH  13  15
ATOM     15  C   UNL     1       7.021   5.046  16.478  0.00  0.00    +0.000 C 
ATOM     16  O   UNL     1       7.491   5.323  15.377  0.00  0.00    +0.000 OA
BRANCH  15  17
ATOM     17  O   UNL     1       7.774   4.939  17.619  0.00  0.00    +0.000 OA
BRANCH  17  19
ATOM     18  C   UNL     1       8.157   5.525  19.957  0.00  0.00    +0.000 C 
ATOM     19  C   UNL     1       7.479   5.912  18.645  0.00  0.00    +0.000 C 
ATOM     20  C   UNL     1       7.983   7.277  18.184  0.00  0.00    +0.000 C 
ENDBRANCH  17  19
ENDBRANCH  15  17
ENDBRANCH  13  15
ENDBRANCH   1  13
TORSDOF 5
ENDMDL
MODEL 7
REMARK VINA RESULT:      -6.7      0.842      1.349
REMARK  Name = 
REMARK  9 active torsions:
REMARK  status: ('A' for Active; 'I' for Inactive)
REMARK    1  A    between atoms: C_1  and  C_2
REMARK    2  A    between atoms: C_2  and  C_3
REMARK    3  A    between atoms: C_2  and  O_4
REMARK    4  A    between atoms: O_4  and  C_5
REMARK    5  A    between atoms: C_5  and  C_7
REMARK    6  A    between atoms: C_7  and  C_8
REMARK    7  A    between atoms: C_7  and  N_9
REMARK    8  A    between atoms: N_9  and  C_10
REMARK    9  A    between atoms: C_15  and  C_16
REMARK                            x       y       z     vdW  Elec       q    Type
REMARK                         _______ _______ _______ _____ _____    ______ ____
ROOT
ATOM      1  N   UNL     1       5.815   4.337  17.350  0.00  0.00    +0.000 N 
ATOM      2  C   UNL     1       7.188   4.488  17.802  0.00  0.00    +0.000 C 
ATOM      3  C   UNL     1       4.922   3.872  18.300  0.00  0.00    +0.000 A 
ATOM      4  N   UNL     1       5.396   3.289  19.413  0.00  0.00    +0.000 NA
ATOM      5  C   UNL     1       4.518   2.763  20.284  0.00  0.00    +0.000 A 
ATOM      6  C   UNL     1       3.162   2.798  20.099  0.00  0.00    +0.000 A 
ATOM      7  C   UNL     1       2.734   3.419  18.944  0.00  0.00    +0.000 A 
ATOM      8  N   UNL     1       3.608   3.967  18.060  0.00  0.00    +0.000 NA
ENDROOT
BRANCH   7   9
ATOM      9  C   UNL     1       1.256   3.460  18.603  0.00  0.00    +0.000 C 
ATOM     10  F   UNL     1       0.981   4.209  17.494  0.00  0.00    +0.000 F 
ATOM     11  F   UNL     1       0.729   2.229  18.348  0.00  0.00    +0.000 F 
ATOM     12  F   UNL     1       0.497   3.997  19.600  0.00  0.00    +0.000 F 
ENDBRANCH   7   9
BRANCH   1  13
ATOM     13  C   UNL     1       5.298   5.080  16.180  0.00  0.00    +0.000 C 
ATOM     14  C   UNL     1       5.029   6.539  16.532  0.00  0.00    +0.000 C 
BRANCH  13  15
ATOM     15  C   UNL     1       6.248   5.025  14.965  0.00  0.00    +0.000 C 
ATOM     16  O   UNL     1       7.435   5.341  14.971  0.00  0.00    +0.000 OA
BRANCH  15  17
ATOM     17  O   UNL     1       5.572   4.635  13.837  0.00  0.00    +0.000 OA
BRANCH  17  19
ATOM     18  C   UNL     1       5.287   2.921  12.124  0.00  0.00    +0.000 C 
ATOM     19  C   UNL     1       6.274   3.696  12.993  0.00  0.00    +0.000 C 
ATOM     20  C   UNL     1       7.250   4.467  12.109  0.00  0.00    +0.000 C 
ENDBRANCH  17  19
ENDBRANCH  15  17
ENDBRANCH  13  15
ENDBRANCH   1  13
TORSDOF 5
ENDMDL
MODEL 8
REMARK VINA RESULT:      -6.6      3.524      6.293
REMARK  Name = 
REMARK  9 active torsions:
REMARK  status: ('A' for Active; 'I' for Inactive)
REMARK    1  A    between atoms: C_1  and  C_2
REMARK    2  A    between atoms: C_2  and  C_3
REMARK    3  A    between atoms: C_2  and  O_4
REMARK    4  A    between atoms: O_4  and  C_5
REMARK    5  A    between atoms: C_5  and  C_7
REMARK    6  A    between atoms: C_7  and  C_8
REMARK    7  A    between atoms: C_7  and  N_9
REMARK    8  A    between atoms: N_9  and  C_10
REMARK    9  A    between atoms: C_15  and  C_16
REMARK                            x       y       z     vdW  Elec       q    Type
REMARK                         _______ _______ _______ _____ _____    ______ ____
ROOT
ATOM      1  N   UNL     1       4.334   3.758  18.181  0.00  0.00    +0.000 N 
ATOM      2  C   UNL     1       4.624   3.924  19.596  0.00  0.00    +0.000 C 
ATOM      3  C   UNL     1       5.326   4.184  17.316  0.00  0.00    +0.000 A 
ATOM      4  N   UNL     1       6.292   4.995  17.776  0.00  0.00    +0.000 NA
ATOM      5  C   UNL     1       7.198   5.472  16.904  0.00  0.00    +0.000 A 
ATOM      6  C   UNL     1       7.190   5.165  15.570  0.00  0.00    +0.000 A 
ATOM      7  C   UNL     1       6.182   4.319  15.157  0.00  0.00    +0.000 A 
ATOM      8  N   UNL     1       5.267   3.818  16.029  0.00  0.00    +0.000 NA
ENDROOT
BRANCH   7   9
ATOM      9  C   UNL     1       6.038   3.963  13.690  0.00  0.00    +0.000 C 
ATOM     10  F   UNL     1       6.345   2.659  13.421  0.00  0.00    +0.000 F 
ATOM     11  F   UNL     1       4.772   4.142  13.216  0.00  0.00    +0.000 F 
ATOM     12  F   UNL     1       6.851   4.700  12.883  0.00  0.00    +0.000 F 
ENDBRANCH   7   9
BRANCH   1  13
ATOM     13  C   UNL     1       3.336   2.775  17.705  0.00  0.00    +0.000 C 
ATOM     14  C   UNL     1       3.587   1.400  18.315  0.00  0.00    +0.000 C 
BRANCH  13  15
ATOM     15  C   UNL     1       1.883   3.199  18.007  0.00  0.00    +0.000 C 
ATOM     16  O   UNL     1       1.268   4.099  17.440  0.00  0.00    +0.000 OA
BRANCH  15  17
ATOM     17  O   UNL     1       1.374   2.475  19.055  0.00  0.00    +0.000 OA
BRANCH  17  19
ATOM     18  C   UNL     1       1.446   2.678  21.485  0.00  0.00    +0.000 C 
ATOM     19  C   UNL     1       0.913   3.257  20.177  0.00  0.00    +0.000 C 
ATOM     20  C   UNL     1       1.403   4.693  20.008  0.00  0.00    +0.000 C 
ENDBRANCH  17  19
ENDBRANCH  15  17
ENDBRANCH  13  15
ENDBRANCH   1  13
TORSDOF 5
ENDMDL
MODEL 9
REMARK VINA RESULT:      -6.6      1.347      2.043
REMARK  Name = 
REMARK  9 active torsions:
REMARK  status: ('A' for Active; 'I' for Inactive)
REMARK    1  A    between atoms: C_1  and  C_2
REMARK    2  A    between atoms: C_2  and  C_3
REMARK    3  A    between atoms: C_2  and  O_4
REMARK    4  A    between atoms: O_4  and  C_5
REMARK    5  A    between atoms: C_5  and  C_7
REMARK    6  A    between atoms: C_7  and  C_8
REMARK    7  A    between atoms: C_7  and  N_9
REMARK    8  A    between atoms: N_9  and  C_10
REMARK    9  A    between atoms: C_15  and  C_16
REMARK                            x       y       z     vdW  Elec       q    Type
REMARK                         _______ _______ _______ _____ _____    ______ ____
ROOT
ATOM      1  N   UNL     1       5.784   4.884  18.018  0.00  0.00    +0.000 N 
ATOM      2  C   UNL     1       7.158   4.801  18.484  0.00  0.00    +0.000 C 
ATOM      3  C   UNL     1       4.875   4.093  18.697  0.00  0.00    +0.000 A 
ATOM      4  N   UNL     1       5.328   3.092  19.470  0.00  0.00    +0.000 NA
ATOM      5  C   UNL     1       4.432   2.276  20.053  0.00  0.00    +0.000 A 
ATOM      6  C   UNL     1       3.079   2.419  19.906  0.00  0.00    +0.000 A 
ATOM      7  C   UNL     1       2.672   3.470  19.112  0.00  0.00    +0.000 A 
ATOM      8  N   UNL     1       3.565   4.312  18.526  0.00  0.00    +0.000 NA
ENDROOT
BRANCH   7   9
ATOM      9  C   UNL     1       1.198   3.686  18.826  0.00  0.00    +0.000 C 
ATOM     10  F   UNL     1       0.528   2.527  18.556  0.00  0.00    +0.000 F 
ATOM     11  F   UNL     1       0.528   4.258  19.866  0.00  0.00    +0.000 F 
ATOM     12  F   UNL     1       0.979   4.491  17.748  0.00  0.00    +0.000 F 
ENDBRANCH   7   9
BRANCH   1  13
ATOM     13  C   UNL     1       5.292   6.055  17.260  0.00  0.00    +0.000 C 
ATOM     14  C   UNL     1       6.167   7.279  17.513  0.00  0.00    +0.000 C 
BRANCH  13  15
ATOM     15  C   UNL     1       5.218   5.799  15.739  0.00  0.00    +0.000 C 
ATOM     16  O   UNL     1       5.176   6.665  14.869  0.00  0.00    +0.000 OA
BRANCH  15  17
ATOM     17  O   UNL     1       5.137   4.455  15.477  0.00  0.00    +0.000 OA
BRANCH  17  19
ATOM     18  C   UNL     1       5.758   3.716  13.237  0.00  0.00    +0.000 C 
ATOM     19  C   UNL     1       6.213   3.917  14.679  0.00  0.00    +0.000 C 
ATOM     20  C   UNL     1       7.388   4.891  14.721  0.00  0.00    +0.000 C 
ENDBRANCH  17  19
ENDBRANCH  15  17
ENDBRANCH  13  15
ENDBRANCH   1  13
TORSDOF 5
ENDMDL
