MODEL 1
REMARK VINA RESULT:      -7.1      0.000      0.000
REMARK  Name = 
REMARK  7 active torsions:
REMARK  status: ('A' for Active; 'I' for Inactive)
REMARK    1  A    between atoms: C_1  and  C_2
REMARK    2  A    between atoms: C_2  and  C_3
REMARK    3  A    between atoms: C_2  and  C_4
REMARK    4  A    between atoms: C_4  and  O_5
REMARK    5  A    between atoms: O_5  and  C_6
REMARK    6  A    between atoms: C_6  and  C_8
REMARK    7  A    between atoms: C_10  and  O_11
REMARK                            x       y       z     vdW  Elec       q    Type
REMARK                         _______ _______ _______ _____ _____    ______ ____
ROOT
ATOM      1  C   UNL     1       4.948   4.033  18.029  0.00  0.00    +0.000 A 
ATOM      2  C   UNL     1       5.587   4.478  19.193  0.00  0.00    +0.000 A 
ATOM      3  C   UNL     1       6.781   5.142  19.056  0.00  0.00    +0.000 A 
ATOM      4  N   UNL     1       7.367   5.390  17.880  0.00  0.00    +0.000 NA
ATOM      5  C   UNL     1       6.759   4.972  16.761  0.00  0.00    +0.000 A 
ATOM      6  C   UNL     1       7.396   5.233  15.554  0.00  0.00    +0.000 A 
ATOM      7  C   UNL     1       6.851   4.840  14.330  0.00  0.00    +0.000 A 
ATOM      8  C   UNL     1       5.633   4.180  14.307  0.00  0.00    +0.000 A 
ATOM      9  C   UNL     1       4.975   3.904  15.504  0.00  0.00    +0.000 A 
ATOM     10  C   UNL     1       5.528   4.286  16.757  0.00  0.00    +0.000 A 
ENDROOT
BRANCH   1  11
ATOM     11  C   UNL     1       3.631   3.352  18.184  0.00  0.00    +0.000 C 
ATOM     12  O   UNL     1       3.451   2.152  18.082  0.00  0.00    +0.000 OA
BRANCH  11  13
ATOM     13  O   UNL     1       2.667   4.289  18.381  0.00  0.00    +0.000 OA
BRANCH  13  14
ATOM     14  C   UNL     1       1.376   3.799  18.772  0.00  0.00    +0.000 C 
BRANCH  14  16
ATOM     15  C   UNL     1       1.426   2.959  21.165  0.00  0.00    +0.000 C 
ATOM     16  C   UNL     1       1.060   4.118  20.237  0.00  0.00    +0.000 C 
ATOM     17  C   UNL     1       1.817   5.380  20.648  0.00  0.00    +0.000 C 
ENDBRANCH  14  16
ENDBRANCH  13  14
ENDBRANCH  11  13
ENDBRANCH   1  11
BRANCH   3  18
ATOM     18  O   UNL     1       7.461   5.607  20.143  0.00  0.00    +0.000 OA
ATOM     19  H   UNL     1       8.017   4.894  20.488  0.00  0.00    +0.000 HD
ENDBRANCH   3  18
TORSDOF 5
ENDMDL
MODEL 2
REMARK VINA RESULT:      -7.0      1.079      1.454
REMARK  Name = 
REMARK  7 active torsions:
REMARK  status: ('A' for Active; 'I' for Inactive)
REMARK    1  A    between atoms: C_1  and  C_2
REMARK    2  A    between atoms: C_2  and  C_3
REMARK    3  A    between atoms: C_2  and  C_4
REMARK    4  A    between atoms: C_4  and  O_5
REMARK    5  A    between atoms: O_5  and  C_6
REMARK    6  A    between atoms: C_6  and  C_8
REMARK    7  A    between atoms: C_10  and  O_11
REMARK                            x       y       z     vdW  Elec       q    Type
REMARK                         _______ _______ _______ _____ _____    ______ ____
ROOT
ATOM      1  C   UNL     1       5.768   4.581  18.492  0.00  0.00    +0.000 A 
ATOM      2  C   UNL     1       6.622   5.411  19.229  0.00  0.00    +0.000 A 
ATOM      3  C   UNL     1       7.565   6.134  18.540  0.00  0.00    +0.000 A 
ATOM      4  N   UNL     1       7.713   6.094  17.212  0.00  0.00    +0.000 NA
ATOM      5  C   UNL     1       6.895   5.306  16.500  0.00  0.00    +0.000 A 
ATOM      6  C   UNL     1       7.080   5.275  15.123  0.00  0.00    +0.000 A 
ATOM      7  C   UNL     1       6.285   4.488  14.288  0.00  0.00    +0.000 A 
ATOM      8  C   UNL     1       5.272   3.719  14.837  0.00  0.00    +0.000 A 
ATOM      9  C   UNL     1       5.068   3.731  16.216  0.00  0.00    +0.000 A 
ATOM     10  C   UNL     1       5.880   4.517  17.078  0.00  0.00    +0.000 A 
ENDROOT
BRANCH   1  11
ATOM     11  C   UNL     1       4.718   3.833  19.243  0.00  0.00    +0.000 C 
ATOM     12  O   UNL     1       4.903   2.794  19.850  0.00  0.00    +0.000 OA
BRANCH  11  13
ATOM     13  O   UNL     1       3.523   4.457  19.076  0.00  0.00    +0.000 OA
BRANCH  13  14
ATOM     14  C   UNL     1       2.838   4.848  20.275  0.00  0.00    +0.000 C 
BRANCH  14  16
ATOM     15  C   UNL     1       1.095   3.335  19.221  0.00  0.00    +0.000 C 
ATOM     16  C   UNL     1       1.565   4.026  20.503  0.00  0.00    +0.000 C 
ATOM     17  C   UNL     1       1.828   2.989  21.594  0.00  0.00    +0.000 C 
ENDBRANCH  14  16
ENDBRANCH  13  14
ENDBRANCH  11  13
ENDBRANCH   1  11
BRANCH   3  18
ATOM     18  O   UNL     1       8.430   6.965  19.188  0.00  0.00    +0.000 OA
ATOM     19  H   UNL     1       7.958   7.401  19.911  0.00  0.00    +0.000 HD
ENDBRANCH   3  18
TORSDOF 5
ENDMDL
MODEL 3
REMARK VINA RESULT:      -7.0      1.322      1.665
REMARK  Name = 
REMARK  7 active torsions:
REMARK  status: ('A' for Active; 'I' for Inactive)
REMARK    1  A    between atoms: C_1  and  C_2
REMARK    2  A    between atoms: C_2  and  C_3
REMARK    3  A    between atoms: C_2  and  C_4
REMARK    4  A    between atoms: C_4  and  O_5
REMARK    5  A    between atoms: O_5  and  C_6
REMARK    6  A    between atoms: C_6  and  C_8
REMARK    7  A    between atoms: C_10  and  O_11
REMARK                            x       y       z     vdW  Elec       q    Type
REMARK                         _______ _______ _______ _____ _____    ______ ____
ROOT
ATOM      1  C   UNL     1       5.862   4.667  18.632  0.00  0.00    +0.000 A 
ATOM      2  C   UNL     1       6.748   5.515  19.308  0.00  0.00    +0.000 A 
ATOM      3  C   UNL     1       7.640   6.241  18.559  0.00  0.00    +0.000 A 
ATOM      4  N   UNL     1       7.712   6.187  17.224  0.00  0.00    +0.000 NA
ATOM      5  C   UNL     1       6.864   5.381  16.569  0.00  0.00    +0.000 A 
ATOM      6  C   UNL     1       6.969   5.336  15.185  0.00  0.00    +0.000 A 
ATOM      7  C   UNL     1       6.138   4.531  14.405  0.00  0.00    +0.000 A 
ATOM      8  C   UNL     1       5.167   3.757  15.021  0.00  0.00    +0.000 A 
ATOM      9  C   UNL     1       5.042   3.782  16.410  0.00  0.00    +0.000 A 
ATOM     10  C   UNL     1       5.894   4.588  17.214  0.00  0.00    +0.000 A 
ENDROOT
BRANCH   1  11
ATOM     11  C   UNL     1       4.867   3.917  19.450  0.00  0.00    +0.000 C 
ATOM     12  O   UNL     1       4.986   2.756  19.800  0.00  0.00    +0.000 OA
BRANCH  11  13
ATOM     13  O   UNL     1       3.786   4.710  19.673  0.00  0.00    +0.000 OA
BRANCH  13  14
ATOM     14  C   UNL     1       2.536   4.036  19.879  0.00  0.00    +0.000 C 
BRANCH  14  16
ATOM     15  C   UNL     1       0.845   2.443  18.860  0.00  0.00    +0.000 C 
ATOM     16  C   UNL     1       2.007   3.400  18.590  0.00  0.00    +0.000 C 
ATOM     17  C   UNL     1       1.564   4.507  17.632  0.00  0.00    +0.000 C 
ENDBRANCH  14  16
ENDBRANCH  13  14
ENDBRANCH  11  13
ENDBRANCH   1  11
BRANCH   3  18
ATOM     18  O   UNL     1       8.532   7.088  19.146  0.00  0.00    +0.000 OA
ATOM     19  H   UNL     1       8.043   7.814  19.559  0.00  0.00    +0.000 HD
ENDBRANCH   3  18
TORSDOF 5
ENDMDL
MODEL 4
REMARK VINA RESULT:      -6.9      0.979      1.531
REMARK  Name = 
REMARK  7 active torsions:
REMARK  status: ('A' for Active; 'I' for Inactive)
REMARK    1  A    between atoms: C_1  and  C_2
REMARK    2  A    between atoms: C_2  and  C_3
REMARK    3  A    between atoms: C_2  and  C_4
REMARK    4  A    between atoms: C_4  and  O_5
REMARK    5  A    between atoms: O_5  and  C_6
REMARK    6  A    between atoms: C_6  and  C_8
REMARK    7  A    between atoms: C_10  and  O_11
REMARK                            x       y       z     vdW  Elec       q    Type
REMARK                         _______ _______ _______ _____ _____    ______ ____
ROOT
ATOM      1  C   UNL     1       4.810   4.947  18.224  0.00  0.00    +0.000 A 
ATOM      2  C   UNL     1       5.581   5.214  19.362  0.00  0.00    +0.000 A 
ATOM      3  C   UNL     1       6.939   5.341  19.202  0.00  0.00    +0.000 A 
ATOM      4  N   UNL     1       7.566   5.227  18.027  0.00  0.00    +0.000 NA
ATOM      5  C   UNL     1       6.834   4.977  16.932  0.00  0.00    +0.000 A 
ATOM      6  C   UNL     1       7.514   4.851  15.726  0.00  0.00    +0.000 A 
ATOM      7  C   UNL     1       6.850   4.589  14.527  0.00  0.00    +0.000 A 
ATOM      8  C   UNL     1       5.470   4.460  14.526  0.00  0.00    +0.000 A 
ATOM      9  C   UNL     1       4.765   4.579  15.723  0.00  0.00    +0.000 A 
ATOM     10  C   UNL     1       5.432   4.831  16.952  0.00  0.00    +0.000 A 
ENDROOT
BRANCH   1  11
ATOM     11  C   UNL     1       3.332   4.855  18.399  0.00  0.00    +0.000 C 
ATOM     12  O   UNL     1       2.608   5.783  18.713  0.00  0.00    +0.000 OA
BRANCH  11  13
ATOM     13  O   UNL     1       2.944   3.564  18.226  0.00  0.00    +0.000 OA
BRANCH  13  14
ATOM     14  C   UNL     1       3.069   2.705  19.369  0.00  0.00    +0.000 C 
BRANCH  14  16
ATOM     15  C   UNL     1       1.306   3.269  21.104  0.00  0.00    +0.000 C 
ATOM     16  C   UNL     1       1.705   2.335  19.960  0.00  0.00    +0.000 C 
ATOM     17  C   UNL     1       0.651   2.379  18.853  0.00  0.00    +0.000 C 
ENDBRANCH  14  16
ENDBRANCH  13  14
ENDBRANCH  11  13
ENDBRANCH   1  11
BRANCH   3  18
ATOM     18  O   UNL     1       7.754   5.602  20.263  0.00  0.00    +0.000 OA
ATOM     19  H   UNL     1       8.653   5.748  19.934  0.00  0.00    +0.000 HD
ENDBRANCH   3  18
TORSDOF 5
ENDMDL
MODEL 5
REMARK VINA RESULT:      -6.9      1.392      1.984
REMARK  Name = 
REMARK  7 active torsions:
REMARK  status: ('A' for Active; 'I' for Inactive)
REMARK    1  A    between atoms: C_1  and  C_2
REMARK    2  A    between atoms: C_2  and  C_3
REMARK    3  A    between atoms: C_2  and  C_4
REMARK    4  A    between atoms: C_4  and  O_5
REMARK    5  A    between atoms: O_5  and  C_6
REMARK    6  A    between atoms: C_6  and  C_8
REMARK    7  A    between atoms: C_10  and  O_11
REMARK                            x       y       z     vdW  Elec       q    Type
REMARK                         _______ _______ _______ _____ _____    ______ ____
ROOT
ATOM      1  C   UNL     1       4.839   5.579  18.251  0.00  0.00    +0.000 A 
ATOM      2  C   UNL     1       5.635   5.679  19.400  0.00  0.00    +0.000 A 
ATOM      3  C   UNL     1       6.957   5.327  19.298  0.00  0.00    +0.000 A 
ATOM      4  N   UNL     1       7.530   4.896  18.168  0.00  0.00    +0.000 NA
ATOM      5  C   UNL     1       6.777   4.804  17.063  0.00  0.00    +0.000 A 
ATOM      6  C   UNL     1       7.396   4.342  15.908  0.00  0.00    +0.000 A 
ATOM      7  C   UNL     1       6.704   4.205  14.703  0.00  0.00    +0.000 A 
ATOM      8  C   UNL     1       5.363   4.548  14.644  0.00  0.00    +0.000 A 
ATOM      9  C   UNL     1       4.718   5.010  15.791  0.00  0.00    +0.000 A 
ATOM     10  C   UNL     1       5.409   5.140  17.026  0.00  0.00    +0.000 A 
ENDROOT
BRANCH   1  11
ATOM     11  C   UNL     1       3.415   6.006  18.360  0.00  0.00    +0.000 C 
ATOM     12  O   UNL     1       2.999   7.120  18.096  0.00  0.00    +0.000 OA
BRANCH  11  13
ATOM     13  O   UNL     1       2.681   4.981  18.867  0.00  0.00    +0.000 OA
BRANCH  13  14
ATOM     14  C   UNL     1       1.755   4.357  17.967  0.00  0.00    +0.000 C 
BRANCH  14  16
ATOM     15  C   UNL     1       2.914   2.101  17.904  0.00  0.00    +0.000 C 
ATOM     16  C   UNL     1       1.623   2.853  18.230  0.00  0.00    +0.000 C 
ATOM     17  C   UNL     1       1.242   2.634  19.694  0.00  0.00    +0.000 C 
ENDBRANCH  14  16
ENDBRANCH  13  14
ENDBRANCH  11  13
ENDBRANCH   1  11
BRANCH   3  18
ATOM     18  O   UNL     1       7.794   5.399  20.371  0.00  0.00    +0.000 OA
ATOM     19  H   UNL     1       7.818   4.534  20.804  0.00  0.00    +0.000 HD
ENDBRANCH   3  18
TORSDOF 5
ENDMDL
MODEL 6
REMARK VINA RESULT:      -6.8      2.246      5.405
REMARK  Name = 
REMARK  7 active torsions:
REMARK  status: ('A' for Active; 'I' for Inactive)
REMARK    1  A    between atoms: C_1  and  C_2
REMARK    2  A    between atoms: C_2  and  C_3
REMARK    3  A    between atoms: C_2  and  C_4
REMARK    4  A    between atoms: C_4  and  O_5
REMARK    5  A    between atoms: O_5  and  C_6
REMARK    6  A    between atoms: C_6  and  C_8
REMARK    7  A    between atoms: C_10  and  O_11
REMARK                            x       y       z     vdW  Elec       q    Type
REMARK                         _______ _______ _______ _____ _____    ______ ____
ROOT
ATOM      1  C   UNL     1       5.867   5.481  17.021  0.00  0.00    +0.000 A 
ATOM      2  C   UNL     1       7.036   5.784  17.730  0.00  0.00    +0.000 A 
ATOM      3  C   UNL     1       7.117   5.379  19.039  0.00  0.00    +0.000 A 
ATOM      4  N   UNL     1       6.148   4.711  19.675  0.00  0.00    +0.000 NA
ATOM      5  C   UNL     1       5.028   4.412  19.002  0.00  0.00    +0.000 A 
ATOM      6  C   UNL     1       4.034   3.729  19.691  0.00  0.00    +0.000 A 
ATOM      7  C   UNL     1       2.828   3.370  19.087  0.00  0.00    +0.000 A 
ATOM      8  C   UNL     1       2.611   3.690  17.756  0.00  0.00    +0.000 A 
ATOM      9  C   UNL     1       3.591   4.378  17.043  0.00  0.00    +0.000 A 
ATOM     10  C   UNL     1       4.817   4.761  17.653  0.00  0.00    +0.000 A 
ENDROOT
BRANCH   1  11
ATOM     11  C   UNL     1       5.805   5.886  15.588  0.00  0.00    +0.000 C 
ATOM     12  O   UNL     1       5.183   6.841  15.159  0.00  0.00    +0.000 OA
BRANCH  11  13
ATOM     13  O   UNL     1       6.489   4.980  14.840  0.00  0.00    +0.000 OA
BRANCH  13  14
ATOM     14  C   UNL     1       5.702   3.975  14.184  0.00  0.00    +0.000 C 
BRANCH  14  16
ATOM     15  C   UNL     1       5.259   3.196  11.810  0.00  0.00    +0.000 C 
ATOM     16  C   UNL     1       6.324   3.536  12.854  0.00  0.00    +0.000 C 
ATOM     17  C   UNL     1       7.232   4.652  12.336  0.00  0.00    +0.000 C 
ENDBRANCH  14  16
ENDBRANCH  13  14
ENDBRANCH  11  13
ENDBRANCH   1  11
BRANCH   3  18
ATOM     18  O   UNL     1       8.224   5.636  19.792  0.00  0.00    +0.000 OA
ATOM     19  H   UNL     1       8.961   5.837  19.199  0.00  0.00    +0.000 HD
ENDBRANCH   3  18
TORSDOF 5
ENDMDL
MODEL 7
REMARK VINA RESULT:      -6.8      2.673      5.305
REMARK  Name = 
REMARK  7 active torsions:
REMARK  status: ('A' for Active; 'I' for Inactive)
REMARK    1  A    between atoms: C_1  and  C_2
REMARK    2  A    between atoms: C_2  and  C_3
REMARK    3  A    between atoms: C_2  and  C_4
REMARK    4  A    between atoms: C_4  and  O_5
REMARK    5  A    between atoms: O_5  and  C_6
REMARK    6  A    between atoms: C_6  and  C_8
REMARK    7  A    between atoms: C_10  and  O_11
REMARK                            x       y       z     vdW  Elec       q    Type
REMARK                         _______ _______ _______ _____ _____    ______ ____
ROOT
ATOM      1  C   UNL     1       3.758   4.394  19.006  0.00  0.00    +0.000 A 
ATOM      2  C   UNL     1       3.373   3.570  20.072  0.00  0.00    +0.000 A 
ATOM      3  C   UNL     1       2.495   4.083  20.994  0.00  0.00    +0.000 A 
ATOM      4  N   UNL     1       1.986   5.318  20.934  0.00  0.00    +0.000 NA
ATOM      5  C   UNL     1       2.345   6.110  19.914  0.00  0.00    +0.000 A 
ATOM      6  C   UNL     1       1.809   7.392  19.884  0.00  0.00    +0.000 A 
ATOM      7  C   UNL     1       2.118   8.298  18.869  0.00  0.00    +0.000 A 
ATOM      8  C   UNL     1       2.975   7.914  17.849  0.00  0.00    +0.000 A 
ATOM      9  C   UNL     1       3.528   6.635  17.858  0.00  0.00    +0.000 A 
ATOM     10  C   UNL     1       3.232   5.708  18.895  0.00  0.00    +0.000 A 
ENDROOT
BRANCH   1  11
ATOM     11  C   UNL     1       4.677   3.815  17.985  0.00  0.00    +0.000 C 
ATOM     12  O   UNL     1       4.322   3.184  17.006  0.00  0.00    +0.000 OA
BRANCH  11  13
ATOM     13  O   UNL     1       5.963   4.040  18.366  0.00  0.00    +0.000 OA
BRANCH  13  14
ATOM     14  C   UNL     1       6.808   4.680  17.398  0.00  0.00    +0.000 C 
BRANCH  14  16
ATOM     15  C   UNL     1       7.241   7.177  17.511  0.00  0.00    +0.000 C 
ATOM     16  C   UNL     1       7.652   5.796  18.023  0.00  0.00    +0.000 C 
ATOM     17  C   UNL     1       7.512   5.736  19.544  0.00  0.00    +0.000 C 
ENDBRANCH  14  16
ENDBRANCH  13  14
ENDBRANCH  11  13
ENDBRANCH   1  11
BRANCH   3  18
ATOM     18  O   UNL     1       2.073   3.341  22.057  0.00  0.00    +0.000 OA
ATOM     19  H   UNL     1       2.015   2.414  21.784  0.00  0.00    +0.000 HD
ENDBRANCH   3  18
TORSDOF 5
ENDMDL
MODEL 8
REMARK VINA RESULT:      -6.7      2.557      5.096
REMARK  Name = 
REMARK  7 active torsions:
REMARK  status: ('A' for Active; 'I' for Inactive)
REMARK    1  A    between atoms: C_1  and  C_2
REMARK    2  A    between atoms: C_2  and  C_3
REMARK    3  A    between atoms: C_2  and  C_4
REMARK    4  A    between atoms: C_4  and  O_5
REMARK    5  A    between atoms: O_5  and  C_6
REMARK    6  A    between atoms: C_6  and  C_8
REMARK    7  A    between atoms: C_10  and  O_11
REMARK                            x       y       z     vdW  Elec       q    Type
REMARK                         _______ _______ _______ _____ _____    ______ ____
ROOT
ATOM      1  C   UNL     1       4.460   5.321  16.671  0.00  0.00    +0.000 A 
ATOM      2  C   UNL     1       4.263   6.692  16.879  0.00  0.00    +0.000 A 
ATOM      3  C   UNL     1       3.272   7.073  17.750  0.00  0.00    +0.000 A 
ATOM      4  N   UNL     1       2.489   6.214  18.411  0.00  0.00    +0.000 NA
ATOM      5  C   UNL     1       2.675   4.900  18.222  0.00  0.00    +0.000 A 
ATOM      6  C   UNL     1       1.839   4.032  18.913  0.00  0.00    +0.000 A 
ATOM      7  C   UNL     1       1.946   2.646  18.787  0.00  0.00    +0.000 A 
ATOM      8  C   UNL     1       2.920   2.110  17.959  0.00  0.00    +0.000 A 
ATOM      9  C   UNL     1       3.769   2.960  17.253  0.00  0.00    +0.000 A 
ATOM     10  C   UNL     1       3.660   4.373  17.362  0.00  0.00    +0.000 A 
ENDROOT
BRANCH   1  11
ATOM     11  C   UNL     1       5.566   4.915  15.757  0.00  0.00    +0.000 C 
ATOM     12  O   UNL     1       5.440   4.184  14.791  0.00  0.00    +0.000 OA
BRANCH  11  13
ATOM     13  O   UNL     1       6.736   5.430  16.219  0.00  0.00    +0.000 OA
BRANCH  13  14
ATOM     14  C   UNL     1       7.389   4.689  17.260  0.00  0.00    +0.000 C 
BRANCH  14  16
ATOM     15  C   UNL     1       7.815   7.034  18.128  0.00  0.00    +0.000 C 
ATOM     16  C   UNL     1       7.671   5.556  18.491  0.00  0.00    +0.000 C 
ATOM     17  C   UNL     1       6.539   5.371  19.503  0.00  0.00    +0.000 C 
ENDBRANCH  14  16
ENDBRANCH  13  14
ENDBRANCH  11  13
ENDBRANCH   1  11
BRANCH   3  18
ATOM     18  O   UNL     1       3.022   8.388  18.005  0.00  0.00    +0.000 OA
ATOM     19  H   UNL     1       3.844   8.887  17.893  0.00  0.00    +0.000 HD
ENDBRANCH   3  18
TORSDOF 5
ENDMDL
MODEL 9
REMARK VINA RESULT:      -6.7      2.477      3.852
REMARK  Name = 
REMARK  7 active torsions:
REMARK  status: ('A' for Active; 'I' for Inactive)
REMARK    1  A    between atoms: C_1  and  C_2
REMARK    2  A    between atoms: C_2  and  C_3
REMARK    3  A    between atoms: C_2  and  C_4
REMARK    4  A    between atoms: C_4  and  O_5
REMARK    5  A    between atoms: O_5  and  C_6
REMARK    6  A    between atoms: C_6  and  C_8
REMARK    7  A    between atoms: C_10  and  O_11
REMARK                            x       y       z     vdW  Elec       q    Type
REMARK                         _______ _______ _______ _____ _____    ______ ____
ROOT
ATOM      1  C   UNL     1       4.481   4.658  17.953  0.00  0.00    +0.000 A 
ATOM      2  C   UNL     1       5.317   4.648  16.829  0.00  0.00    +0.000 A 
ATOM      3  C   UNL     1       5.363   5.780  16.053  0.00  0.00    +0.000 A 
ATOM      4  N   UNL     1       4.662   6.890  16.309  0.00  0.00    +0.000 NA
ATOM      5  C   UNL     1       3.865   6.909  17.386  0.00  0.00    +0.000 A 
ATOM      6  C   UNL     1       3.139   8.071  17.621  0.00  0.00    +0.000 A 
ATOM      7  C   UNL     1       2.278   8.197  18.712  0.00  0.00    +0.000 A 
ATOM      8  C   UNL     1       2.144   7.142  19.601  0.00  0.00    +0.000 A 
ATOM      9  C   UNL     1       2.859   5.965  19.386  0.00  0.00    +0.000 A 
ATOM     10  C   UNL     1       3.728   5.820  18.270  0.00  0.00    +0.000 A 
ENDROOT
BRANCH   1  11
ATOM     11  C   UNL     1       4.470   3.441  18.813  0.00  0.00    +0.000 C 
ATOM     12  O   UNL     1       5.269   3.209  19.702  0.00  0.00    +0.000 OA
BRANCH  11  13
ATOM     13  O   UNL     1       3.478   2.611  18.396  0.00  0.00    +0.000 OA
BRANCH  13  14
ATOM     14  C   UNL     1       2.896   1.764  19.398  0.00  0.00    +0.000 C 
BRANCH  14  16
ATOM     15  C   UNL     1       1.470   3.086  21.029  0.00  0.00    +0.000 C 
ATOM     16  C   UNL     1       1.479   2.211  19.774  0.00  0.00    +0.000 C 
ATOM     17  C   UNL     1       0.866   2.972  18.598  0.00  0.00    +0.000 C 
ENDBRANCH  14  16
ENDBRANCH  13  14
ENDBRANCH  11  13
ENDBRANCH   1  11
BRANCH   3  18
ATOM     18  O   UNL     1       6.154   5.846  14.945  0.00  0.00    +0.000 OA
ATOM     19  H   UNL     1       5.747   6.452  14.310  0.00  0.00    +0.000 HD
ENDBRANCH   3  18
TORSDOF 5
ENDMDL
