MODEL 1
REMARK VINA RESULT:      -7.8      0.000      0.000
REMARK  Name = 
REMARK  14 active torsions:
REMARK  status: ('A' for Active; 'I' for Inactive)
REMARK    1  A    between atoms: C_1  and  C_2
REMARK    2  A    between atoms: C_2  and  C_3
REMARK    3  A    between atoms: C_3  and  C_4
REMARK    4  A    between atoms: C_4  and  O_5
REMARK    5  A    between atoms: O_5  and  C_6
REMARK    6  A    between atoms: N_8  and  S_9
REMARK    7  A    between atoms: S_9  and  C_12
REMARK    8  A    between atoms: C_14  and  C_15
REMARK    9  A    between atoms: C_15  and  C_16
REMARK   10  A    between atoms: C_16  and  C_17
REMARK   11  A    between atoms: C_16  and  C_18
REMARK   12  A    between atoms: C_20  and  C_21
REMARK   13  A    between atoms: C_24  and  C_25
REMARK   14  A    between atoms: C_25  and  C_26
REMARK                            x       y       z     vdW  Elec       q    Type
REMARK                         _______ _______ _______ _____ _____    ______ ____
ROOT
ATOM      1  C   UNL     1       6.295   4.856  16.766  0.00  0.00    +0.000 A 
ATOM      2  S   UNL     1       7.150   4.337  15.361  0.00  0.00    +0.000 S 
ATOM      3  C   UNL     1       5.847   4.654  14.327  0.00  0.00    +0.000 A 
ATOM      4  C   UNL     1       4.747   5.081  15.038  0.00  0.00    +0.000 A 
ATOM      5  C   UNL     1       5.012   5.292  16.442  0.00  0.00    +0.000 A 
ENDROOT
BRANCH   5   6
ATOM      6  C   UNL     1       4.077   5.962  17.361  0.00  0.00    +0.000 A 
ATOM      7  C   UNL     1       3.382   5.300  18.373  0.00  0.00    +0.000 A 
ATOM      8  C   UNL     1       2.542   5.991  19.252  0.00  0.00    +0.000 A 
ATOM      9  C   UNL     1       2.330   7.364  19.105  0.00  0.00    +0.000 A 
ATOM     10  C   UNL     1       2.992   8.036  18.075  0.00  0.00    +0.000 A 
ATOM     11  C   UNL     1       3.860   7.344  17.224  0.00  0.00    +0.000 A 
BRANCH   9  12
ATOM     12  C   UNL     1       1.455   8.109  20.082  0.00  0.00    +0.000 C 
BRANCH  12  13
ATOM     13  C   UNL     1       1.016   9.423  19.542  0.00  0.00    +0.000 A 
ATOM     14  N   UNL     1       0.407   9.692  18.402  0.00  0.00    +0.000 NA
ATOM     15  C   UNL     1       0.318  11.060  18.398  0.00  0.00    +0.000 A 
ATOM     16  C   UNL     1       0.858  11.569  19.551  0.00  0.00    +0.000 A 
ATOM     17  O   UNL     1       1.301  10.526  20.305  0.00  0.00    +0.000 OA
ENDBRANCH  12  13
ENDBRANCH   9  12
ENDBRANCH   5   6
BRANCH   1  18
ATOM     18  S   UNL     1       7.285   4.807  18.249  0.00  0.00    +0.000 S 
ATOM     19  O   UNL     1       8.533   4.169  17.901  0.00  0.00    +0.000 OA
ATOM     20  O   UNL     1       6.410   4.235  19.252  0.00  0.00    +0.000 OA
BRANCH  18  23
ATOM     21  C   UNL     1       7.973   7.370  17.927  0.00  0.00    +0.000 C 
ATOM     22  O   UNL     1       7.878   7.353  16.714  0.00  0.00    +0.000 OA
ATOM     23  N   UNL     1       7.612   6.337  18.773  0.00  0.00    +0.000 N 
ATOM     24  H   UNL     1       7.853   6.408  19.752  0.00  0.00    +0.000 HD
BRANCH  21  25
ATOM     25  O   UNL     1       8.519   8.381  18.644  0.00  0.00    +0.000 OA
BRANCH  25  26
ATOM     26  C   UNL     1       8.517   9.630  17.955  0.00  0.00    +0.000 C 
BRANCH  26  27
ATOM     27  C   UNL     1       9.026  10.780  18.813  0.00  0.00    +0.000 C 
BRANCH  27  29
ATOM     28  C   UNL     1      11.322  11.592  18.104  0.00  0.00    +0.000 C 
ATOM     29  C   UNL     1       9.824  11.735  17.925  0.00  0.00    +0.000 C 
ENDBRANCH  27  29
ENDBRANCH  26  27
ENDBRANCH  25  26
ENDBRANCH  21  25
ENDBRANCH  18  23
ENDBRANCH   1  18
BRANCH   3  30
ATOM     30  C   UNL     1       5.992   4.480  12.843  0.00  0.00    +0.000 C 
BRANCH  30  31
ATOM     31  C   UNL     1       5.384   3.151  12.347  0.00  0.00    +0.000 C 
ATOM     32  C   UNL     1       4.203   3.362  11.394  0.00  0.00    +0.000 C 
ATOM     33  C   UNL     1       6.459   2.312  11.653  0.00  0.00    +0.000 C 
ENDBRANCH  30  31
ENDBRANCH   3  30
TORSDOF 11
ENDMDL
MODEL 2
REMARK VINA RESULT:      -7.5      2.907      4.325
REMARK  Name = 
REMARK  14 active torsions:
REMARK  status: ('A' for Active; 'I' for Inactive)
REMARK    1  A    between atoms: C_1  and  C_2
REMARK    2  A    between atoms: C_2  and  C_3
REMARK    3  A    between atoms: C_3  and  C_4
REMARK    4  A    between atoms: C_4  and  O_5
REMARK    5  A    between atoms: O_5  and  C_6
REMARK    6  A    between atoms: N_8  and  S_9
REMARK    7  A    between atoms: S_9  and  C_12
REMARK    8  A    between atoms: C_14  and  C_15
REMARK    9  A    between atoms: C_15  and  C_16
REMARK   10  A    between atoms: C_16  and  C_17
REMARK   11  A    between atoms: C_16  and  C_18
REMARK   12  A    between atoms: C_20  and  C_21
REMARK   13  A    between atoms: C_24  and  C_25
REMARK   14  A    between atoms: C_25  and  C_26
REMARK                            x       y       z     vdW  Elec       q    Type
REMARK                         _______ _______ _______ _____ _____    ______ ____
ROOT
ATOM      1  C   UNL     1       4.235   5.675  17.750  0.00  0.00    +0.000 A 
ATOM      2  S   UNL     1       4.582   3.987  17.825  0.00  0.00    +0.000 S 
ATOM      3  C   UNL     1       3.487   3.715  19.087  0.00  0.00    +0.000 A 
ATOM      4  C   UNL     1       2.912   4.895  19.504  0.00  0.00    +0.000 A 
ATOM      5  C   UNL     1       3.263   6.031  18.683  0.00  0.00    +0.000 A 
ENDROOT
BRANCH   5   6
ATOM      6  C   UNL     1       2.605   7.344  18.776  0.00  0.00    +0.000 A 
ATOM      7  C   UNL     1       2.577   8.270  17.733  0.00  0.00    +0.000 A 
ATOM      8  C   UNL     1       1.896   9.485  17.855  0.00  0.00    +0.000 A 
ATOM      9  C   UNL     1       1.267   9.833  19.052  0.00  0.00    +0.000 A 
ATOM     10  C   UNL     1       1.313   8.931  20.119  0.00  0.00    +0.000 A 
ATOM     11  C   UNL     1       1.965   7.702  19.976  0.00  0.00    +0.000 A 
BRANCH   9  12
ATOM     12  C   UNL     1       0.498  11.126  19.163  0.00  0.00    +0.000 C 
BRANCH  12  13
ATOM     13  C   UNL     1       1.334  12.220  19.724  0.00  0.00    +0.000 A 
ATOM     14  N   UNL     1       1.422  12.642  20.972  0.00  0.00    +0.000 NA
ATOM     15  C   UNL     1       2.277  13.712  20.892  0.00  0.00    +0.000 A 
ATOM     16  C   UNL     1       2.694  13.882  19.597  0.00  0.00    +0.000 A 
ATOM     17  O   UNL     1       2.106  12.922  18.834  0.00  0.00    +0.000 OA
ENDBRANCH  12  13
ENDBRANCH   9  12
ENDBRANCH   5   6
BRANCH   1  18
ATOM     18  S   UNL     1       5.115   6.516  16.447  0.00  0.00    +0.000 S 
ATOM     19  O   UNL     1       4.200   7.476  15.872  0.00  0.00    +0.000 OA
ATOM     20  O   UNL     1       5.680   5.452  15.643  0.00  0.00    +0.000 OA
BRANCH  18  23
ATOM     21  C   UNL     1       7.513   6.711  17.611  0.00  0.00    +0.000 C 
ATOM     22  O   UNL     1       7.774   5.527  17.512  0.00  0.00    +0.000 OA
ATOM     23  N   UNL     1       6.409   7.336  17.061  0.00  0.00    +0.000 N 
ATOM     24  H   UNL     1       6.222   8.297  17.313  0.00  0.00    +0.000 HD
BRANCH  21  25
ATOM     25  O   UNL     1       8.227   7.602  18.341  0.00  0.00    +0.000 OA
BRANCH  25  26
ATOM     26  C   UNL     1       8.072   8.950  17.901  0.00  0.00    +0.000 C 
BRANCH  26  27
ATOM     27  C   UNL     1       8.781   9.951  18.801  0.00  0.00    +0.000 C 
BRANCH  27  29
ATOM     28  C   UNL     1       9.345  12.329  18.121  0.00  0.00    +0.000 C 
ATOM     29  C   UNL     1       9.653  10.857  17.930  0.00  0.00    +0.000 C 
ENDBRANCH  27  29
ENDBRANCH  26  27
ENDBRANCH  25  26
ENDBRANCH  21  25
ENDBRANCH  18  23
ENDBRANCH   1  18
BRANCH   3  30
ATOM     30  C   UNL     1       3.236   2.324  19.592  0.00  0.00    +0.000 C 
BRANCH  30  31
ATOM     31  C   UNL     1       1.744   2.070  19.891  0.00  0.00    +0.000 C 
ATOM     32  C   UNL     1       1.279   2.745  21.185  0.00  0.00    +0.000 C 
ATOM     33  C   UNL     1       0.886   2.557  18.722  0.00  0.00    +0.000 C 
ENDBRANCH  30  31
ENDBRANCH   3  30
TORSDOF 11
ENDMDL
MODEL 3
REMARK VINA RESULT:      -7.4      0.744      1.360
REMARK  Name = 
REMARK  14 active torsions:
REMARK  status: ('A' for Active; 'I' for Inactive)
REMARK    1  A    between atoms: C_1  and  C_2
REMARK    2  A    between atoms: C_2  and  C_3
REMARK    3  A    between atoms: C_3  and  C_4
REMARK    4  A    between atoms: C_4  and  O_5
REMARK    5  A    between atoms: O_5  and  C_6
REMARK    6  A    between atoms: N_8  and  S_9
REMARK    7  A    between atoms: S_9  and  C_12
REMARK    8  A    between atoms: C_14  and  C_15
REMARK    9  A    between atoms: C_15  and  C_16
REMARK   10  A    between atoms: C_16  and  C_17
REMARK   11  A    between atoms: C_16  and  C_18
REMARK   12  A    between atoms: C_20  and  C_21
REMARK   13  A    between atoms: C_24  and  C_25
REMARK   14  A    between atoms: C_25  and  C_26
REMARK                            x       y       z     vdW  Elec       q    Type
REMARK                         _______ _______ _______ _____ _____    ______ ____
ROOT
ATOM      1  C   UNL     1       6.064   4.770  16.918  0.00  0.00    +0.000 A 
ATOM      2  S   UNL     1       6.761   4.060  15.509  0.00  0.00    +0.000 S 
ATOM      3  C   UNL     1       5.386   4.346  14.562  0.00  0.00    +0.000 A 
ATOM      4  C   UNL     1       4.378   4.907  15.314  0.00  0.00    +0.000 A 
ATOM      5  C   UNL     1       4.779   5.245  16.660  0.00  0.00    +0.000 A 
ENDROOT
BRANCH   5   6
ATOM      6  C   UNL     1       3.966   6.058  17.578  0.00  0.00    +0.000 A 
ATOM      7  C   UNL     1       3.654   7.399  17.353  0.00  0.00    +0.000 A 
ATOM      8  C   UNL     1       2.836   8.115  18.232  0.00  0.00    +0.000 A 
ATOM      9  C   UNL     1       2.352   7.520  19.400  0.00  0.00    +0.000 A 
ATOM     10  C   UNL     1       2.682   6.187  19.658  0.00  0.00    +0.000 A 
ATOM     11  C   UNL     1       3.469   5.467  18.754  0.00  0.00    +0.000 A 
BRANCH   9  12
ATOM     12  C   UNL     1       1.436   8.286  20.322  0.00  0.00    +0.000 C 
BRANCH  12  13
ATOM     13  C   UNL     1       0.888   9.505  19.673  0.00  0.00    +0.000 A 
ATOM     14  N   UNL     1      -0.210   9.642  18.952  0.00  0.00    +0.000 NA
ATOM     15  C   UNL     1      -0.173  10.953  18.552  0.00  0.00    +0.000 A 
ATOM     16  C   UNL     1       0.938  11.569  19.067  0.00  0.00    +0.000 A 
ATOM     17  O   UNL     1       1.626  10.654  19.802  0.00  0.00    +0.000 OA
ENDBRANCH  12  13
ENDBRANCH   9  12
ENDBRANCH   5   6
BRANCH   1  18
ATOM     18  S   UNL     1       7.181   4.815  18.308  0.00  0.00    +0.000 S 
ATOM     19  O   UNL     1       8.413   4.194  17.879  0.00  0.00    +0.000 OA
ATOM     20  O   UNL     1       6.414   4.268  19.409  0.00  0.00    +0.000 OA
BRANCH  18  23
ATOM     21  C   UNL     1       7.881   7.349  17.825  0.00  0.00    +0.000 C 
ATOM     22  O   UNL     1       7.799   7.252  16.615  0.00  0.00    +0.000 OA
ATOM     23  N   UNL     1       7.507   6.376  18.734  0.00  0.00    +0.000 N 
ATOM     24  H   UNL     1       7.738   6.510  19.709  0.00  0.00    +0.000 HD
BRANCH  21  25
ATOM     25  O   UNL     1       8.421   8.404  18.480  0.00  0.00    +0.000 OA
BRANCH  25  26
ATOM     26  C   UNL     1       8.053   9.666  17.925  0.00  0.00    +0.000 C 
BRANCH  26  27
ATOM     27  C   UNL     1       9.140  10.719  18.076  0.00  0.00    +0.000 C 
BRANCH  27  29
ATOM     28  C   UNL     1       9.260  11.211  20.562  0.00  0.00    +0.000 C 
ATOM     29  C   UNL     1       9.879  10.472  19.392  0.00  0.00    +0.000 C 
ENDBRANCH  27  29
ENDBRANCH  26  27
ENDBRANCH  25  26
ENDBRANCH  21  25
ENDBRANCH  18  23
ENDBRANCH   1  18
BRANCH   3  30
ATOM     30  C   UNL     1       5.386   4.013  13.098  0.00  0.00    +0.000 C 
BRANCH  30  31
ATOM     31  C   UNL     1       6.793   3.643  12.582  0.00  0.00    +0.000 C 
ATOM     32  C   UNL     1       6.763   2.509  11.552  0.00  0.00    +0.000 C 
ATOM     33  C   UNL     1       7.466   4.873  11.970  0.00  0.00    +0.000 C 
ENDBRANCH  30  31
ENDBRANCH   3  30
TORSDOF 11
ENDMDL
MODEL 4
REMARK VINA RESULT:      -7.3      3.078      5.885
REMARK  Name = 
REMARK  14 active torsions:
REMARK  status: ('A' for Active; 'I' for Inactive)
REMARK    1  A    between atoms: C_1  and  C_2
REMARK    2  A    between atoms: C_2  and  C_3
REMARK    3  A    between atoms: C_3  and  C_4
REMARK    4  A    between atoms: C_4  and  O_5
REMARK    5  A    between atoms: O_5  and  C_6
REMARK    6  A    between atoms: N_8  and  S_9
REMARK    7  A    between atoms: S_9  and  C_12
REMARK    8  A    between atoms: C_14  and  C_15
REMARK    9  A    between atoms: C_15  and  C_16
REMARK   10  A    between atoms: C_16  and  C_17
REMARK   11  A    between atoms: C_16  and  C_18
REMARK   12  A    between atoms: C_20  and  C_21
REMARK   13  A    between atoms: C_24  and  C_25
REMARK   14  A    between atoms: C_25  and  C_26
REMARK                            x       y       z     vdW  Elec       q    Type
REMARK                         _______ _______ _______ _____ _____    ______ ____
ROOT
ATOM      1  C   UNL     1       3.732   5.834  17.798  0.00  0.00    +0.000 A 
ATOM      2  S   UNL     1       3.859   4.119  17.676  0.00  0.00    +0.000 S 
ATOM      3  C   UNL     1       2.558   3.846  18.724  0.00  0.00    +0.000 A 
ATOM      4  C   UNL     1       2.071   5.033  19.223  0.00  0.00    +0.000 A 
ATOM      5  C   UNL     1       2.677   6.202  18.631  0.00  0.00    +0.000 A 
ENDROOT
BRANCH   5   6
ATOM      6  C   UNL     1       2.174   7.573  18.821  0.00  0.00    +0.000 A 
ATOM      7  C   UNL     1       1.786   8.089  20.058  0.00  0.00    +0.000 A 
ATOM      8  C   UNL     1       1.361   9.414  20.193  0.00  0.00    +0.000 A 
ATOM      9  C   UNL     1       1.258  10.248  19.077  0.00  0.00    +0.000 A 
ATOM     10  C   UNL     1       1.611   9.737  17.826  0.00  0.00    +0.000 A 
ATOM     11  C   UNL     1       2.071   8.422  17.704  0.00  0.00    +0.000 A 
BRANCH   9  12
ATOM     12  C   UNL     1       0.838  11.688  19.237  0.00  0.00    +0.000 C 
BRANCH  12  13
ATOM     13  C   UNL     1      -0.641  11.836  19.245  0.00  0.00    +0.000 A 
ATOM     14  N   UNL     1      -1.510  11.549  18.293  0.00  0.00    +0.000 NA
ATOM     15  C   UNL     1      -2.710  11.956  18.818  0.00  0.00    +0.000 A 
ATOM     16  C   UNL     1      -2.524  12.453  20.082  0.00  0.00    +0.000 A 
ATOM     17  O   UNL     1      -1.198  12.372  20.377  0.00  0.00    +0.000 OA
ENDBRANCH  12  13
ENDBRANCH   9  12
ENDBRANCH   5   6
BRANCH   1  18
ATOM     18  S   UNL     1       4.896   6.701  16.762  0.00  0.00    +0.000 S 
ATOM     19  O   UNL     1       5.917   7.237  17.632  0.00  0.00    +0.000 OA
ATOM     20  O   UNL     1       4.078   7.574  15.946  0.00  0.00    +0.000 OA
BRANCH  18  23
ATOM     21  C   UNL     1       6.904   5.184  15.858  0.00  0.00    +0.000 C 
ATOM     22  O   UNL     1       7.574   5.285  16.869  0.00  0.00    +0.000 OA
ATOM     23  N   UNL     1       5.613   5.657  15.703  0.00  0.00    +0.000 N 
ATOM     24  H   UNL     1       5.197   5.634  14.783  0.00  0.00    +0.000 HD
BRANCH  21  25
ATOM     25  O   UNL     1       7.341   4.655  14.691  0.00  0.00    +0.000 OA
BRANCH  25  26
ATOM     26  C   UNL     1       6.331   3.943  13.978  0.00  0.00    +0.000 C 
BRANCH  26  27
ATOM     27  C   UNL     1       6.606   3.865  12.483  0.00  0.00    +0.000 C 
BRANCH  27  29
ATOM     28  C   UNL     1       4.357   3.261  11.478  0.00  0.00    +0.000 C 
ATOM     29  C   UNL     1       5.731   2.765  11.883  0.00  0.00    +0.000 C 
ENDBRANCH  27  29
ENDBRANCH  26  27
ENDBRANCH  25  26
ENDBRANCH  21  25
ENDBRANCH  18  23
ENDBRANCH   1  18
BRANCH   3  30
ATOM     30  C   UNL     1       2.068   2.451  18.984  0.00  0.00    +0.000 C 
BRANCH  30  31
ATOM     31  C   UNL     1       2.393   1.973  20.416  0.00  0.00    +0.000 C 
ATOM     32  C   UNL     1       3.842   2.263  20.819  0.00  0.00    +0.000 C 
ATOM     33  C   UNL     1       1.441   2.633  21.416  0.00  0.00    +0.000 C 
ENDBRANCH  30  31
ENDBRANCH   3  30
TORSDOF 11
ENDMDL
MODEL 5
REMARK VINA RESULT:      -7.2      3.055      5.712
REMARK  Name = 
REMARK  14 active torsions:
REMARK  status: ('A' for Active; 'I' for Inactive)
REMARK    1  A    between atoms: C_1  and  C_2
REMARK    2  A    between atoms: C_2  and  C_3
REMARK    3  A    between atoms: C_3  and  C_4
REMARK    4  A    between atoms: C_4  and  O_5
REMARK    5  A    between atoms: O_5  and  C_6
REMARK    6  A    between atoms: N_8  and  S_9
REMARK    7  A    between atoms: S_9  and  C_12
REMARK    8  A    between atoms: C_14  and  C_15
REMARK    9  A    between atoms: C_15  and  C_16
REMARK   10  A    between atoms: C_16  and  C_17
REMARK   11  A    between atoms: C_16  and  C_18
REMARK   12  A    between atoms: C_20  and  C_21
REMARK   13  A    between atoms: C_24  and  C_25
REMARK   14  A    between atoms: C_25  and  C_26
REMARK                            x       y       z     vdW  Elec       q    Type
REMARK                         _______ _______ _______ _____ _____    ______ ____
ROOT
ATOM      1  C   UNL     1       4.149   5.797  17.855  0.00  0.00    +0.000 A 
ATOM      2  S   UNL     1       4.509   4.111  17.805  0.00  0.00    +0.000 S 
ATOM      3  C   UNL     1       3.314   3.719  18.938  0.00  0.00    +0.000 A 
ATOM      4  C   UNL     1       2.690   4.853  19.409  0.00  0.00    +0.000 A 
ATOM      5  C   UNL     1       3.096   6.061  18.729  0.00  0.00    +0.000 A 
ENDROOT
BRANCH   5   6
ATOM      6  C   UNL     1       2.416   7.357  18.884  0.00  0.00    +0.000 A 
ATOM      7  C   UNL     1       2.248   8.271  17.843  0.00  0.00    +0.000 A 
ATOM      8  C   UNL     1       1.550   9.468  18.031  0.00  0.00    +0.000 A 
ATOM      9  C   UNL     1       1.049   9.812  19.288  0.00  0.00    +0.000 A 
ATOM     10  C   UNL     1       1.238   8.924  20.350  0.00  0.00    +0.000 A 
ATOM     11  C   UNL     1       1.904   7.711  20.145  0.00  0.00    +0.000 A 
BRANCH   9  12
ATOM     12  C   UNL     1       0.262  11.086  19.473  0.00  0.00    +0.000 C 
BRANCH  12  13
ATOM     13  C   UNL     1       1.136  12.227  19.853  0.00  0.00    +0.000 A 
ATOM     14  N   UNL     1       1.574  12.576  21.049  0.00  0.00    +0.000 NA
ATOM     15  C   UNL     1       2.269  13.735  20.814  0.00  0.00    +0.000 A 
ATOM     16  C   UNL     1       2.245  14.031  19.475  0.00  0.00    +0.000 A 
ATOM     17  O   UNL     1       1.530  13.063  18.841  0.00  0.00    +0.000 OA
ENDBRANCH  12  13
ENDBRANCH   9  12
ENDBRANCH   5   6
BRANCH   1  18
ATOM     18  S   UNL     1       5.127   6.758  16.714  0.00  0.00    +0.000 S 
ATOM     19  O   UNL     1       6.101   7.480  17.499  0.00  0.00    +0.000 OA
ATOM     20  O   UNL     1       4.154   7.462  15.904  0.00  0.00    +0.000 OA
BRANCH  18  23
ATOM     21  C   UNL     1       7.163   5.203  15.953  0.00  0.00    +0.000 C 
ATOM     22  O   UNL     1       7.689   5.174  17.051  0.00  0.00    +0.000 OA
ATOM     23  N   UNL     1       5.933   5.767  15.669  0.00  0.00    +0.000 N 
ATOM     24  H   UNL     1       5.650   5.850  14.702  0.00  0.00    +0.000 HD
BRANCH  21  25
ATOM     25  O   UNL     1       7.734   4.750  14.812  0.00  0.00    +0.000 OA
BRANCH  25  26
ATOM     26  C   UNL     1       6.852   4.769  13.691  0.00  0.00    +0.000 C 
BRANCH  26  27
ATOM     27  C   UNL     1       6.069   3.474  13.532  0.00  0.00    +0.000 C 
BRANCH  27  29
ATOM     28  C   UNL     1       6.838   2.268  11.437  0.00  0.00    +0.000 C 
ATOM     29  C   UNL     1       5.831   3.226  12.042  0.00  0.00    +0.000 C 
ENDBRANCH  27  29
ENDBRANCH  26  27
ENDBRANCH  25  26
ENDBRANCH  21  25
ENDBRANCH  18  23
ENDBRANCH   1  18
BRANCH   3  30
ATOM     30  C   UNL     1       3.037   2.286  19.290  0.00  0.00    +0.000 C 
BRANCH  30  31
ATOM     31  C   UNL     1       1.594   2.074  19.795  0.00  0.00    +0.000 C 
ATOM     32  C   UNL     1       1.324   2.787  21.124  0.00  0.00    +0.000 C 
ATOM     33  C   UNL     1       0.596   2.559  18.742  0.00  0.00    +0.000 C 
ENDBRANCH  30  31
ENDBRANCH   3  30
TORSDOF 11
ENDMDL
MODEL 6
REMARK VINA RESULT:      -7.1      5.744     11.721
REMARK  Name = 
REMARK  14 active torsions:
REMARK  status: ('A' for Active; 'I' for Inactive)
REMARK    1  A    between atoms: C_1  and  C_2
REMARK    2  A    between atoms: C_2  and  C_3
REMARK    3  A    between atoms: C_3  and  C_4
REMARK    4  A    between atoms: C_4  and  O_5
REMARK    5  A    between atoms: O_5  and  C_6
REMARK    6  A    between atoms: N_8  and  S_9
REMARK    7  A    between atoms: S_9  and  C_12
REMARK    8  A    between atoms: C_14  and  C_15
REMARK    9  A    between atoms: C_15  and  C_16
REMARK   10  A    between atoms: C_16  and  C_17
REMARK   11  A    between atoms: C_16  and  C_18
REMARK   12  A    between atoms: C_20  and  C_21
REMARK   13  A    between atoms: C_24  and  C_25
REMARK   14  A    between atoms: C_25  and  C_26
REMARK                            x       y       z     vdW  Elec       q    Type
REMARK                         _______ _______ _______ _____ _____    ______ ____
ROOT
ATOM      1  C   UNL     1      -1.506  11.404  19.562  0.00  0.00    +0.000 A 
ATOM      2  S   UNL     1      -2.162  12.727  20.452  0.00  0.00    +0.000 S 
ATOM      3  C   UNL     1      -1.014  12.596  21.690  0.00  0.00    +0.000 A 
ATOM      4  C   UNL     1      -0.181  11.520  21.476  0.00  0.00    +0.000 A 
ATOM      5  C   UNL     1      -0.391  10.869  20.204  0.00  0.00    +0.000 A 
ENDROOT
BRANCH   5   6
ATOM      6  C   UNL     1       0.515   9.853  19.644  0.00  0.00    +0.000 A 
ATOM      7  C   UNL     1       0.948   9.852  18.317  0.00  0.00    +0.000 A 
ATOM      8  C   UNL     1       1.848   8.891  17.847  0.00  0.00    +0.000 A 
ATOM      9  C   UNL     1       2.298   7.865  18.681  0.00  0.00    +0.000 A 
ATOM     10  C   UNL     1       1.848   7.832  20.003  0.00  0.00    +0.000 A 
ATOM     11  C   UNL     1       0.977   8.819  20.477  0.00  0.00    +0.000 A 
BRANCH   9  12
ATOM     12  C   UNL     1       3.301   6.856  18.178  0.00  0.00    +0.000 C 
BRANCH  12  13
ATOM     13  C   UNL     1       2.868   5.461  18.450  0.00  0.00    +0.000 A 
ATOM     14  N   UNL     1       3.409   4.564  19.255  0.00  0.00    +0.000 NA
ATOM     15  C   UNL     1       2.645   3.444  19.051  0.00  0.00    +0.000 A 
ATOM     16  C   UNL     1       1.651   3.713  18.146  0.00  0.00    +0.000 A 
ATOM     17  O   UNL     1       1.773   5.011  17.758  0.00  0.00    +0.000 OA
ENDBRANCH  12  13
ENDBRANCH   9  12
ENDBRANCH   5   6
BRANCH   1  18
ATOM     18  S   UNL     1      -2.339  11.119  18.012  0.00  0.00    +0.000 S 
ATOM     19  O   UNL     1      -2.461   9.688  17.856  0.00  0.00    +0.000 OA
ATOM     20  O   UNL     1      -1.602  11.913  17.050  0.00  0.00    +0.000 OA
BRANCH  18  23
ATOM     21  C   UNL     1      -4.728  11.720  16.972  0.00  0.00    +0.000 C 
ATOM     22  O   UNL     1      -4.590  11.024  15.983  0.00  0.00    +0.000 OA
ATOM     23  N   UNL     1      -3.857  11.768  18.045  0.00  0.00    +0.000 N 
ATOM     24  H   UNL     1      -4.000  12.474  18.754  0.00  0.00    +0.000 HD
BRANCH  21  25
ATOM     25  O   UNL     1      -5.725  12.619  17.151  0.00  0.00    +0.000 OA
BRANCH  25  26
ATOM     26  C   UNL     1      -6.017  12.876  18.523  0.00  0.00    +0.000 C 
BRANCH  26  27
ATOM     27  C   UNL     1      -7.299  12.202  18.991  0.00  0.00    +0.000 C 
BRANCH  27  29
ATOM     28  C   UNL     1      -6.006  12.358  21.168  0.00  0.00    +0.000 C 
ATOM     29  C   UNL     1      -7.372  12.299  20.515  0.00  0.00    +0.000 C 
ENDBRANCH  27  29
ENDBRANCH  26  27
ENDBRANCH  25  26
ENDBRANCH  21  25
ENDBRANCH  18  23
ENDBRANCH   1  18
BRANCH   3  30
ATOM     30  C   UNL     1      -0.984  13.593  22.812  0.00  0.00    +0.000 C 
BRANCH  30  31
ATOM     31  C   UNL     1      -2.253  13.527  23.688  0.00  0.00    +0.000 C 
ATOM     32  C   UNL     1      -3.254  14.639  23.360  0.00  0.00    +0.000 C 
ATOM     33  C   UNL     1      -2.930  12.165  23.525  0.00  0.00    +0.000 C 
ENDBRANCH  30  31
ENDBRANCH   3  30
TORSDOF 11
ENDMDL
MODEL 7
REMARK VINA RESULT:      -7.1      3.185      5.998
REMARK  Name = 
REMARK  14 active torsions:
REMARK  status: ('A' for Active; 'I' for Inactive)
REMARK    1  A    between atoms: C_1  and  C_2
REMARK    2  A    between atoms: C_2  and  C_3
REMARK    3  A    between atoms: C_3  and  C_4
REMARK    4  A    between atoms: C_4  and  O_5
REMARK    5  A    between atoms: O_5  and  C_6
REMARK    6  A    between atoms: N_8  and  S_9
REMARK    7  A    between atoms: S_9  and  C_12
REMARK    8  A    between atoms: C_14  and  C_15
REMARK    9  A    between atoms: C_15  and  C_16
REMARK   10  A    between atoms: C_16  and  C_17
REMARK   11  A    between atoms: C_16  and  C_18
REMARK   12  A    between atoms: C_20  and  C_21
REMARK   13  A    between atoms: C_24  and  C_25
REMARK   14  A    between atoms: C_25  and  C_26
REMARK                            x       y       z     vdW  Elec       q    Type
REMARK                         _______ _______ _______ _____ _____    ______ ____
ROOT
ATOM      1  C   UNL     1       4.106   5.872  18.102  0.00  0.00    +0.000 A 
ATOM      2  S   UNL     1       4.573   4.221  18.273  0.00  0.00    +0.000 S 
ATOM      3  C   UNL     1       3.509   3.948  19.561  0.00  0.00    +0.000 A 
ATOM      4  C   UNL     1       2.853   5.107  19.913  0.00  0.00    +0.000 A 
ATOM      5  C   UNL     1       3.117   6.214  19.023  0.00  0.00    +0.000 A 
ENDROOT
BRANCH   5   6
ATOM      6  C   UNL     1       2.367   7.480  19.045  0.00  0.00    +0.000 A 
ATOM      7  C   UNL     1       2.187   8.290  17.923  0.00  0.00    +0.000 A 
ATOM      8  C   UNL     1       1.423   9.460  17.985  0.00  0.00    +0.000 A 
ATOM      9  C   UNL     1       0.864   9.884  19.193  0.00  0.00    +0.000 A 
ATOM     10  C   UNL     1       1.063   9.102  20.333  0.00  0.00    +0.000 A 
ATOM     11  C   UNL     1       1.796   7.913  20.255  0.00  0.00    +0.000 A 
BRANCH   9  12
ATOM     12  C   UNL     1       0.007  11.125  19.243  0.00  0.00    +0.000 C 
BRANCH  12  13
ATOM     13  C   UNL     1       0.750  12.288  19.796  0.00  0.00    +0.000 A 
ATOM     14  N   UNL     1       2.024  12.605  19.654  0.00  0.00    +0.000 NA
ATOM     15  C   UNL     1       2.168  13.723  20.435  0.00  0.00    +0.000 A 
ATOM     16  C   UNL     1       0.965  14.055  21.004  0.00  0.00    +0.000 A 
ATOM     17  O   UNL     1       0.038  13.148  20.593  0.00  0.00    +0.000 OA
ENDBRANCH  12  13
ENDBRANCH   9  12
ENDBRANCH   5   6
BRANCH   1  18
ATOM     18  S   UNL     1       4.915   6.694  16.742  0.00  0.00    +0.000 S 
ATOM     19  O   UNL     1       6.084   7.350  17.281  0.00  0.00    +0.000 OA
ATOM     20  O   UNL     1       3.863   7.455  16.099  0.00  0.00    +0.000 OA
BRANCH  18  23
ATOM     21  C   UNL     1       6.740   5.351  15.323  0.00  0.00    +0.000 C 
ATOM     22  O   UNL     1       7.688   5.731  15.986  0.00  0.00    +0.000 OA
ATOM     23  N   UNL     1       5.410   5.593  15.616  0.00  0.00    +0.000 N 
ATOM     24  H   UNL     1       4.711   5.343  14.931  0.00  0.00    +0.000 HD
BRANCH  21  25
ATOM     25  O   UNL     1       6.837   4.689  14.146  0.00  0.00    +0.000 OA
BRANCH  25  26
ATOM     26  C   UNL     1       5.709   3.863  13.866  0.00  0.00    +0.000 C 
BRANCH  26  27
ATOM     27  C   UNL     1       5.726   3.298  12.453  0.00  0.00    +0.000 C 
BRANCH  27  29
ATOM     28  C   UNL     1       3.737   2.890  10.932  0.00  0.00    +0.000 C 
ATOM     29  C   UNL     1       4.572   3.920  11.665  0.00  0.00    +0.000 C 
ENDBRANCH  27  29
ENDBRANCH  26  27
ENDBRANCH  25  26
ENDBRANCH  21  25
ENDBRANCH  18  23
ENDBRANCH   1  18
BRANCH   3  30
ATOM     30  C   UNL     1       3.361   2.575  20.150  0.00  0.00    +0.000 C 
BRANCH  30  31
ATOM     31  C   UNL     1       1.888   2.118  20.208  0.00  0.00    +0.000 C 
ATOM     32  C   UNL     1       1.089   2.840  21.297  0.00  0.00    +0.000 C 
ATOM     33  C   UNL     1       1.218   2.339  18.850  0.00  0.00    +0.000 C 
ENDBRANCH  30  31
ENDBRANCH   3  30
TORSDOF 11
ENDMDL
MODEL 8
REMARK VINA RESULT:      -7.1      3.021      5.647
REMARK  Name = 
REMARK  14 active torsions:
REMARK  status: ('A' for Active; 'I' for Inactive)
REMARK    1  A    between atoms: C_1  and  C_2
REMARK    2  A    between atoms: C_2  and  C_3
REMARK    3  A    between atoms: C_3  and  C_4
REMARK    4  A    between atoms: C_4  and  O_5
REMARK    5  A    between atoms: O_5  and  C_6
REMARK    6  A    between atoms: N_8  and  S_9
REMARK    7  A    between atoms: S_9  and  C_12
REMARK    8  A    between atoms: C_14  and  C_15
REMARK    9  A    between atoms: C_15  and  C_16
REMARK   10  A    between atoms: C_16  and  C_17
REMARK   11  A    between atoms: C_16  and  C_18
REMARK   12  A    between atoms: C_20  and  C_21
REMARK   13  A    between atoms: C_24  and  C_25
REMARK   14  A    between atoms: C_25  and  C_26
REMARK                            x       y       z     vdW  Elec       q    Type
REMARK                         _______ _______ _______ _____ _____    ______ ____
ROOT
ATOM      1  C   UNL     1       3.947   5.981  18.488  0.00  0.00    +0.000 A 
ATOM      2  S   UNL     1       4.300   4.317  18.769  0.00  0.00    +0.000 S 
ATOM      3  C   UNL     1       3.067   4.144  19.917  0.00  0.00    +0.000 A 
ATOM      4  C   UNL     1       2.435   5.346  20.145  0.00  0.00    +0.000 A 
ATOM      5  C   UNL     1       2.868   6.404  19.263  0.00  0.00    +0.000 A 
ENDROOT
BRANCH   5   6
ATOM      6  C   UNL     1       2.190   7.706  19.148  0.00  0.00    +0.000 A 
ATOM      7  C   UNL     1       2.103   8.429  17.958  0.00  0.00    +0.000 A 
ATOM      8  C   UNL     1       1.404   9.639  17.891  0.00  0.00    +0.000 A 
ATOM      9  C   UNL     1       0.817  10.188  19.033  0.00  0.00    +0.000 A 
ATOM     10  C   UNL     1       0.923   9.493  20.240  0.00  0.00    +0.000 A 
ATOM     11  C   UNL     1       1.591   8.265  20.291  0.00  0.00    +0.000 A 
BRANCH   9  12
ATOM     12  C   UNL     1       0.030  11.472  18.943  0.00  0.00    +0.000 C 
BRANCH  12  13
ATOM     13  C   UNL     1       0.874  12.661  19.235  0.00  0.00    +0.000 A 
ATOM     14  N   UNL     1       1.170  13.205  20.401  0.00  0.00    +0.000 NA
ATOM     15  C   UNL     1       1.911  14.308  20.064  0.00  0.00    +0.000 A 
ATOM     16  C   UNL     1       2.057  14.377  18.702  0.00  0.00    +0.000 A 
ATOM     17  O   UNL     1       1.406  13.316  18.154  0.00  0.00    +0.000 OA
ENDBRANCH  12  13
ENDBRANCH   9  12
ENDBRANCH   5   6
BRANCH   1  18
ATOM     18  S   UNL     1       4.965   6.711  17.219  0.00  0.00    +0.000 S 
ATOM     19  O   UNL     1       5.961   7.515  17.889  0.00  0.00    +0.000 OA
ATOM     20  O   UNL     1       4.023   7.308  16.295  0.00  0.00    +0.000 OA
BRANCH  18  23
ATOM     21  C   UNL     1       7.065   5.195  16.559  0.00  0.00    +0.000 C 
ATOM     22  O   UNL     1       7.744   5.535  17.510  0.00  0.00    +0.000 OA
ATOM     23  N   UNL     1       5.741   5.536  16.357  0.00  0.00    +0.000 N 
ATOM     24  H   UNL     1       5.312   5.308  15.471  0.00  0.00    +0.000 HD
BRANCH  21  25
ATOM     25  O   UNL     1       7.522   4.483  15.501  0.00  0.00    +0.000 OA
BRANCH  25  26
ATOM     26  C   UNL     1       6.901   4.840  14.267  0.00  0.00    +0.000 C 
BRANCH  26  27
ATOM     27  C   UNL     1       5.831   3.848  13.835  0.00  0.00    +0.000 C 
BRANCH  27  29
ATOM     28  C   UNL     1       4.823   3.095  11.632  0.00  0.00    +0.000 C 
ATOM     29  C   UNL     1       6.092   3.451  12.381  0.00  0.00    +0.000 C 
ENDBRANCH  27  29
ENDBRANCH  26  27
ENDBRANCH  25  26
ENDBRANCH  21  25
ENDBRANCH  18  23
ENDBRANCH   1  18
BRANCH   3  30
ATOM     30  C   UNL     1       2.773   2.803  20.524  0.00  0.00    +0.000 C 
BRANCH  30  31
ATOM     31  C   UNL     1       2.142   1.826  19.509  0.00  0.00    +0.000 C 
ATOM     32  C   UNL     1       0.916   2.416  18.807  0.00  0.00    +0.000 C 
ATOM     33  C   UNL     1       3.182   1.414  18.465  0.00  0.00    +0.000 C 
ENDBRANCH  30  31
ENDBRANCH   3  30
TORSDOF 11
ENDMDL
MODEL 9
REMARK VINA RESULT:      -7.0      5.485     11.727
REMARK  Name = 
REMARK  14 active torsions:
REMARK  status: ('A' for Active; 'I' for Inactive)
REMARK    1  A    between atoms: C_1  and  C_2
REMARK    2  A    between atoms: C_2  and  C_3
REMARK    3  A    between atoms: C_3  and  C_4
REMARK    4  A    between atoms: C_4  and  O_5
REMARK    5  A    between atoms: O_5  and  C_6
REMARK    6  A    between atoms: N_8  and  S_9
REMARK    7  A    between atoms: S_9  and  C_12
REMARK    8  A    between atoms: C_14  and  C_15
REMARK    9  A    between atoms: C_15  and  C_16
REMARK   10  A    between atoms: C_16  and  C_17
REMARK   11  A    between atoms: C_16  and  C_18
REMARK   12  A    between atoms: C_20  and  C_21
REMARK   13  A    between atoms: C_24  and  C_25
REMARK   14  A    between atoms: C_25  and  C_26
REMARK                            x       y       z     vdW  Elec       q    Type
REMARK                         _______ _______ _______ _____ _____    ______ ____
ROOT
ATOM      1  C   UNL     1      -1.245  11.279  19.568  0.00  0.00    +0.000 A 
ATOM      2  S   UNL     1      -2.045  12.364  20.643  0.00  0.00    +0.000 S 
ATOM      3  C   UNL     1      -1.243  11.764  22.008  0.00  0.00    +0.000 A 
ATOM      4  C   UNL     1      -0.428  10.705  21.674  0.00  0.00    +0.000 A 
ATOM      5  C   UNL     1      -0.345  10.464  20.252  0.00  0.00    +0.000 A 
ENDROOT
BRANCH   5   6
ATOM      6  C   UNL     1       0.627   9.551  19.630  0.00  0.00    +0.000 A 
ATOM      7  C   UNL     1       1.107   9.703  18.329  0.00  0.00    +0.000 A 
ATOM      8  C   UNL     1       2.068   8.836  17.801  0.00  0.00    +0.000 A 
ATOM      9  C   UNL     1       2.537   7.752  18.547  0.00  0.00    +0.000 A 
ATOM     10  C   UNL     1       2.043   7.565  19.840  0.00  0.00    +0.000 A 
ATOM     11  C   UNL     1       1.109   8.459  20.374  0.00  0.00    +0.000 A 
BRANCH   9  12
ATOM     12  C   UNL     1       3.605   6.845  17.986  0.00  0.00    +0.000 C 
BRANCH  12  13
ATOM     13  C   UNL     1       3.291   5.411  18.218  0.00  0.00    +0.000 A 
ATOM     14  N   UNL     1       3.983   4.506  18.888  0.00  0.00    +0.000 NA
ATOM     15  C   UNL     1       3.264   3.352  18.708  0.00  0.00    +0.000 A 
ATOM     16  C   UNL     1       2.147   3.608  17.955  0.00  0.00    +0.000 A 
ATOM     17  O   UNL     1       2.143   4.932  17.642  0.00  0.00    +0.000 OA
ENDBRANCH  12  13
ENDBRANCH   9  12
ENDBRANCH   5   6
BRANCH   1  18
ATOM     18  S   UNL     1      -1.683  11.535  17.858  0.00  0.00    +0.000 S 
ATOM     19  O   UNL     1      -1.646  10.241  17.216  0.00  0.00    +0.000 OA
ATOM     20  O   UNL     1      -0.818  12.610  17.418  0.00  0.00    +0.000 OA
BRANCH  18  23
ATOM     21  C   UNL     1      -4.342  11.326  17.673  0.00  0.00    +0.000 C 
ATOM     22  O   UNL     1      -4.370  10.134  17.914  0.00  0.00    +0.000 OA
ATOM     23  N   UNL     1      -3.218  12.130  17.739  0.00  0.00    +0.000 N 
ATOM     24  H   UNL     1      -3.280  13.077  17.394  0.00  0.00    +0.000 HD
BRANCH  21  25
ATOM     25  O   UNL     1      -5.397  12.049  17.226  0.00  0.00    +0.000 OA
BRANCH  25  26
ATOM     26  C   UNL     1      -6.066  12.772  18.258  0.00  0.00    +0.000 C 
BRANCH  26  27
ATOM     27  C   UNL     1      -7.250  12.014  18.839  0.00  0.00    +0.000 C 
BRANCH  27  29
ATOM     28  C   UNL     1      -7.854  10.660  20.897  0.00  0.00    +0.000 C 
ATOM     29  C   UNL     1      -6.991  11.766  20.325  0.00  0.00    +0.000 C 
ENDBRANCH  27  29
ENDBRANCH  26  27
ENDBRANCH  25  26
ENDBRANCH  21  25
ENDBRANCH  18  23
ENDBRANCH   1  18
BRANCH   3  30
ATOM     30  C   UNL     1      -1.449  12.396  23.354  0.00  0.00    +0.000 C 
BRANCH  30  31
ATOM     31  C   UNL     1      -2.770  13.190  23.431  0.00  0.00    +0.000 C 
ATOM     32  C   UNL     1      -3.869  12.433  24.184  0.00  0.00    +0.000 C 
ATOM     33  C   UNL     1      -2.529  14.543  24.103  0.00  0.00    +0.000 C 
ENDBRANCH  30  31
ENDBRANCH   3  30
TORSDOF 11
ENDMDL
