MODEL 1
REMARK VINA RESULT:      -8.4      0.000      0.000
REMARK  Name = 
REMARK  7 active torsions:
REMARK  status: ('A' for Active; 'I' for Inactive)
REMARK    1  A    between atoms: C_1  and  O_2
REMARK    2  A    between atoms: O_2  and  C_3
REMARK    3  A    between atoms: C_13  and  O_14
REMARK    4  A    between atoms: O_14  and  C_15
REMARK    5  A    between atoms: C_19  and  C_20
REMARK    6  A    between atoms: C_30  and  O_31
REMARK    7  A    between atoms: O_31  and  C_32
REMARK                            x       y       z     vdW  Elec       q    Type
REMARK                         _______ _______ _______ _____ _____    ______ ____
ROOT
ATOM      1  C   UNL     1      -5.298  13.111  21.105  0.00  0.00    +0.000 A 
ATOM      2  C   UNL     1      -5.654  12.813  19.776  0.00  0.00    +0.000 A 
ATOM      3  C   UNL     1      -4.755  12.273  18.856  0.00  0.00    +0.000 A 
ATOM      4  N   UNL     1      -5.192  11.911  17.647  0.00  0.00    +0.000 NA
ATOM      5  C   UNL     1      -4.303  11.291  16.857  0.00  0.00    +0.000 A 
ATOM      6  N   UNL     1      -3.028  11.017  17.157  0.00  0.00    +0.000 NA
ATOM      7  C   UNL     1      -2.574  11.430  18.357  0.00  0.00    +0.000 A 
ATOM      8  N   UNL     1      -1.266  11.143  18.655  0.00  0.00    +0.000 N 
ATOM      9  C   UNL     1      -0.332  12.016  19.340  0.00  0.00    +0.000 C 
ATOM     10  C   UNL     1       1.001  11.667  18.711  0.00  0.00    +0.000 C 
ATOM     11  C   UNL     1       0.891  10.147  18.549  0.00  0.00    +0.000 C 
ATOM     12  C   UNL     1      -0.595   9.946  18.156  0.00  0.00    +0.000 C 
ATOM     13  C   UNL     1      -3.433  12.093  19.259  0.00  0.00    +0.000 A 
ATOM     14  C   UNL     1      -3.069  12.493  20.556  0.00  0.00    +0.000 A 
ATOM     15  C   UNL     1      -3.965  13.012  21.481  0.00  0.00    +0.000 A 
ENDROOT
BRANCH   1  17
ATOM     16  C   UNL     1      -7.454  13.973  21.471  0.00  0.00    +0.000 C 
ATOM     17  O   UNL     1      -6.224  13.508  22.030  0.00  0.00    +0.000 OA
ENDBRANCH   1  17
BRANCH  15  18
ATOM     18  O   UNL     1      -3.322  13.294  22.649  0.00  0.00    +0.000 OA
ATOM     19  C   UNL     1      -3.371  12.391  23.727  0.00  0.00    +0.000 C 
ENDBRANCH  15  18
BRANCH  11  20
ATOM     20  O   UNL     1       1.174   9.480  19.796  0.00  0.00    +0.000 OA
BRANCH  20  21
ATOM     21  C   UNL     1       1.641   8.191  19.715  0.00  0.00    +0.000 A 
ATOM     22  C   UNL     1       1.247   7.319  20.724  0.00  0.00    +0.000 A 
ATOM     23  C   UNL     1       1.682   5.992  20.712  0.00  0.00    +0.000 A 
ATOM     24  C   UNL     1       2.516   5.530  19.687  0.00  0.00    +0.000 A 
ATOM     25  C   UNL     1       2.941   6.387  18.663  0.00  0.00    +0.000 A 
ATOM     26  C   UNL     1       2.492   7.718  18.712  0.00  0.00    +0.000 A 
BRANCH  25  27
ATOM     27  C   UNL     1       3.837   5.957  17.568  0.00  0.00    +0.000 A 
ATOM     28  C   UNL     1       4.038   4.589  17.284  0.00  0.00    +0.000 A 
ATOM     29  C   UNL     1       4.824   4.166  16.210  0.00  0.00    +0.000 A 
ATOM     30  C   UNL     1       5.448   5.106  15.397  0.00  0.00    +0.000 A 
ATOM     31  C   UNL     1       5.284   6.465  15.663  0.00  0.00    +0.000 A 
ATOM     32  C   UNL     1       4.484   6.884  16.732  0.00  0.00    +0.000 A 
ENDBRANCH  25  27
ENDBRANCH  20  21
ENDBRANCH  11  20
TORSDOF 5
ENDMDL
MODEL 2
REMARK VINA RESULT:      -8.2      1.091      1.149
REMARK  Name = 
REMARK  7 active torsions:
REMARK  status: ('A' for Active; 'I' for Inactive)
REMARK    1  A    between atoms: C_1  and  O_2
REMARK    2  A    between atoms: O_2  and  C_3
REMARK    3  A    between atoms: C_13  and  O_14
REMARK    4  A    between atoms: O_14  and  C_15
REMARK    5  A    between atoms: C_19  and  C_20
REMARK    6  A    between atoms: C_30  and  O_31
REMARK    7  A    between atoms: O_31  and  C_32
REMARK                            x       y       z     vdW  Elec       q    Type
REMARK                         _______ _______ _______ _____ _____    ______ ____
ROOT
ATOM      1  C   UNL     1      -4.748  12.680  20.296  0.00  0.00    +0.000 A 
ATOM      2  C   UNL     1      -5.024  12.369  18.951  0.00  0.00    +0.000 A 
ATOM      3  C   UNL     1      -4.082  11.786  18.102  0.00  0.00    +0.000 A 
ATOM      4  N   UNL     1      -4.447  11.414  16.873  0.00  0.00    +0.000 NA
ATOM      5  C   UNL     1      -3.527  10.754  16.155  0.00  0.00    +0.000 A 
ATOM      6  N   UNL     1      -2.283  10.449  16.545  0.00  0.00    +0.000 NA
ATOM      7  C   UNL     1      -1.899  10.871  17.765  0.00  0.00    +0.000 A 
ATOM      8  N   UNL     1      -0.623  10.551  18.157  0.00  0.00    +0.000 N 
ATOM      9  C   UNL     1       0.290  11.408  18.888  0.00  0.00    +0.000 C 
ATOM     10  C   UNL     1       1.650  11.009  18.357  0.00  0.00    +0.000 C 
ATOM     11  C   UNL     1       1.505   9.491  18.213  0.00  0.00    +0.000 C 
ATOM     12  C   UNL     1       0.043   9.326  17.724  0.00  0.00    +0.000 C 
ATOM     13  C   UNL     1      -2.795  11.574  18.597  0.00  0.00    +0.000 A 
ATOM     14  C   UNL     1      -2.508  11.988  19.909  0.00  0.00    +0.000 A 
ATOM     15  C   UNL     1      -3.447  12.549  20.763  0.00  0.00    +0.000 A 
ENDROOT
BRANCH   1  17
ATOM     16  C   UNL     1      -6.933  12.365  21.103  0.00  0.00    +0.000 C 
ATOM     17  O   UNL     1      -5.722  13.121  21.149  0.00  0.00    +0.000 OA
ENDBRANCH   1  17
BRANCH  15  18
ATOM     18  O   UNL     1      -2.876  12.834  21.966  0.00  0.00    +0.000 OA
ATOM     19  C   UNL     1      -2.137  11.855  22.655  0.00  0.00    +0.000 C 
ENDBRANCH  15  18
BRANCH  11  20
ATOM     20  O   UNL     1       1.684   8.838  19.486  0.00  0.00    +0.000 OA
BRANCH  20  21
ATOM     21  C   UNL     1       2.201   7.566  19.462  0.00  0.00    +0.000 A 
ATOM     22  C   UNL     1       1.700   6.671  20.402  0.00  0.00    +0.000 A 
ATOM     23  C   UNL     1       2.176   5.359  20.442  0.00  0.00    +0.000 A 
ATOM     24  C   UNL     1       3.159   4.935  19.539  0.00  0.00    +0.000 A 
ATOM     25  C   UNL     1       3.691   5.816  18.588  0.00  0.00    +0.000 A 
ATOM     26  C   UNL     1       3.196   7.131  18.583  0.00  0.00    +0.000 A 
BRANCH  25  27
ATOM     27  C   UNL     1       4.743   5.428  17.624  0.00  0.00    +0.000 A 
ATOM     28  C   UNL     1       4.523   4.403  16.679  0.00  0.00    +0.000 A 
ATOM     29  C   UNL     1       5.479   4.070  15.715  0.00  0.00    +0.000 A 
ATOM     30  C   UNL     1       6.692   4.747  15.683  0.00  0.00    +0.000 A 
ATOM     31  C   UNL     1       6.947   5.751  16.615  0.00  0.00    +0.000 A 
ATOM     32  C   UNL     1       5.982   6.090  17.570  0.00  0.00    +0.000 A 
ENDBRANCH  25  27
ENDBRANCH  20  21
ENDBRANCH  11  20
TORSDOF 5
ENDMDL
MODEL 3
REMARK VINA RESULT:      -8.0      1.501      2.777
REMARK  Name = 
REMARK  7 active torsions:
REMARK  status: ('A' for Active; 'I' for Inactive)
REMARK    1  A    between atoms: C_1  and  O_2
REMARK    2  A    between atoms: O_2  and  C_3
REMARK    3  A    between atoms: C_13  and  O_14
REMARK    4  A    between atoms: O_14  and  C_15
REMARK    5  A    between atoms: C_19  and  C_20
REMARK    6  A    between atoms: C_30  and  O_31
REMARK    7  A    between atoms: O_31  and  C_32
REMARK                            x       y       z     vdW  Elec       q    Type
REMARK                         _______ _______ _______ _____ _____    ______ ____
ROOT
ATOM      1  C   UNL     1      -4.913  13.022  22.674  0.00  0.00    +0.000 A 
ATOM      2  C   UNL     1      -5.561  12.929  21.428  0.00  0.00    +0.000 A 
ATOM      3  C   UNL     1      -4.901  12.543  20.261  0.00  0.00    +0.000 A 
ATOM      4  N   UNL     1      -5.603  12.367  19.138  0.00  0.00    +0.000 NA
ATOM      5  C   UNL     1      -4.926  11.882  18.087  0.00  0.00    +0.000 A 
ATOM      6  N   UNL     1      -3.624  11.576  18.051  0.00  0.00    +0.000 NA
ATOM      7  C   UNL     1      -2.907  11.804  19.169  0.00  0.00    +0.000 A 
ATOM      8  N   UNL     1      -1.573  11.485  19.123  0.00  0.00    +0.000 N 
ATOM      9  C   UNL     1      -0.488  12.250  19.708  0.00  0.00    +0.000 C 
ATOM     10  C   UNL     1       0.664  12.012  18.754  0.00  0.00    +0.000 C 
ATOM     11  C   UNL     1       0.481  10.534  18.393  0.00  0.00    +0.000 C 
ATOM     12  C   UNL     1      -1.060  10.384  18.313  0.00  0.00    +0.000 C 
ATOM     13  C   UNL     1      -3.527  12.313  20.328  0.00  0.00    +0.000 A 
ATOM     14  C   UNL     1      -2.877  12.514  21.558  0.00  0.00    +0.000 A 
ATOM     15  C   UNL     1      -3.533  12.878  22.726  0.00  0.00    +0.000 A 
ENDROOT
BRANCH   1  17
ATOM     16  C   UNL     1      -6.950  13.696  23.634  0.00  0.00    +0.000 C 
ATOM     17  O   UNL     1      -5.602  13.266  23.830  0.00  0.00    +0.000 OA
ENDBRANCH   1  17
BRANCH  15  18
ATOM     18  O   UNL     1      -2.642  12.983  23.751  0.00  0.00    +0.000 OA
ATOM     19  C   UNL     1      -1.795  14.102  23.849  0.00  0.00    +0.000 C 
ENDBRANCH  15  18
BRANCH  11  20
ATOM     20  O   UNL     1       1.014   9.686  19.430  0.00  0.00    +0.000 OA
BRANCH  20  21
ATOM     21  C   UNL     1       1.760   8.607  19.024  0.00  0.00    +0.000 A 
ATOM     22  C   UNL     1       2.558   8.788  17.899  0.00  0.00    +0.000 A 
ATOM     23  C   UNL     1       3.345   7.737  17.423  0.00  0.00    +0.000 A 
ATOM     24  C   UNL     1       3.337   6.496  18.072  0.00  0.00    +0.000 A 
ATOM     25  C   UNL     1       2.533   6.279  19.199  0.00  0.00    +0.000 A 
ATOM     26  C   UNL     1       1.748   7.356  19.645  0.00  0.00    +0.000 A 
BRANCH  25  27
ATOM     27  C   UNL     1       2.470   4.984  19.911  0.00  0.00    +0.000 A 
ATOM     28  C   UNL     1       1.294   4.573  20.574  0.00  0.00    +0.000 A 
ATOM     29  C   UNL     1       1.193   3.323  21.191  0.00  0.00    +0.000 A 
ATOM     30  C   UNL     1       2.279   2.455  21.175  0.00  0.00    +0.000 A 
ATOM     31  C   UNL     1       3.461   2.840  20.545  0.00  0.00    +0.000 A 
ATOM     32  C   UNL     1       3.553   4.087  19.917  0.00  0.00    +0.000 A 
ENDBRANCH  25  27
ENDBRANCH  20  21
ENDBRANCH  11  20
TORSDOF 5
ENDMDL
MODEL 4
REMARK VINA RESULT:      -7.9      1.222      1.652
REMARK  Name = 
REMARK  7 active torsions:
REMARK  status: ('A' for Active; 'I' for Inactive)
REMARK    1  A    between atoms: C_1  and  O_2
REMARK    2  A    between atoms: O_2  and  C_3
REMARK    3  A    between atoms: C_13  and  O_14
REMARK    4  A    between atoms: O_14  and  C_15
REMARK    5  A    between atoms: C_19  and  C_20
REMARK    6  A    between atoms: C_30  and  O_31
REMARK    7  A    between atoms: O_31  and  C_32
REMARK                            x       y       z     vdW  Elec       q    Type
REMARK                         _______ _______ _______ _____ _____    ______ ____
ROOT
ATOM      1  C   UNL     1      -5.895  12.140  19.112  0.00  0.00    +0.000 A 
ATOM      2  C   UNL     1      -5.770  11.882  17.733  0.00  0.00    +0.000 A 
ATOM      3  C   UNL     1      -4.562  11.516  17.140  0.00  0.00    +0.000 A 
ATOM      4  N   UNL     1      -4.541  11.177  15.848  0.00  0.00    +0.000 NA
ATOM      5  C   UNL     1      -3.373  10.722  15.374  0.00  0.00    +0.000 A 
ATOM      6  N   UNL     1      -2.231  10.592  16.061  0.00  0.00    +0.000 NA
ATOM      7  C   UNL     1      -2.240  10.984  17.350  0.00  0.00    +0.000 A 
ATOM      8  N   UNL     1      -1.066  10.844  18.047  0.00  0.00    +0.000 N 
ATOM      9  C   UNL     1      -0.525  11.783  19.011  0.00  0.00    +0.000 C 
ATOM     10  C   UNL     1       0.973  11.642  18.836  0.00  0.00    +0.000 C 
ATOM     11  C   UNL     1       1.130  10.134  18.619  0.00  0.00    +0.000 C 
ATOM     12  C   UNL     1      -0.114   9.773  17.768  0.00  0.00    +0.000 C 
ATOM     13  C   UNL     1      -3.422  11.477  17.942  0.00  0.00    +0.000 A 
ATOM     14  C   UNL     1      -3.544  11.840  19.294  0.00  0.00    +0.000 A 
ATOM     15  C   UNL     1      -4.748  12.185  19.893  0.00  0.00    +0.000 A 
ENDROOT
BRANCH   1  17
ATOM     16  C   UNL     1      -7.581  11.283  20.508  0.00  0.00    +0.000 C 
ATOM     17  O   UNL     1      -7.111  12.361  19.698  0.00  0.00    +0.000 OA
ENDBRANCH   1  17
BRANCH  15  18
ATOM     18  O   UNL     1      -4.551  12.473  21.210  0.00  0.00    +0.000 OA
ATOM     19  C   UNL     1      -4.717  13.787  21.686  0.00  0.00    +0.000 C 
ENDBRANCH  15  18
BRANCH  11  20
ATOM     20  O   UNL     1       1.095   9.431  19.878  0.00  0.00    +0.000 OA
BRANCH  20  21
ATOM     21  C   UNL     1       1.609   8.158  19.890  0.00  0.00    +0.000 A 
ATOM     22  C   UNL     1       1.114   7.294  20.862  0.00  0.00    +0.000 A 
ATOM     23  C   UNL     1       1.587   5.983  20.939  0.00  0.00    +0.000 A 
ATOM     24  C   UNL     1       2.562   5.528  20.042  0.00  0.00    +0.000 A 
ATOM     25  C   UNL     1       3.089   6.378  19.061  0.00  0.00    +0.000 A 
ATOM     26  C   UNL     1       2.596   7.693  19.018  0.00  0.00    +0.000 A 
BRANCH  25  27
ATOM     27  C   UNL     1       4.133   5.956  18.101  0.00  0.00    +0.000 A 
ATOM     28  C   UNL     1       4.235   6.553  16.826  0.00  0.00    +0.000 A 
ATOM     29  C   UNL     1       5.257   6.218  15.934  0.00  0.00    +0.000 A 
ATOM     30  C   UNL     1       6.198   5.259  16.291  0.00  0.00    +0.000 A 
ATOM     31  C   UNL     1       6.113   4.638  17.535  0.00  0.00    +0.000 A 
ATOM     32  C   UNL     1       5.095   4.987  18.431  0.00  0.00    +0.000 A 
ENDBRANCH  25  27
ENDBRANCH  20  21
ENDBRANCH  11  20
TORSDOF 5
ENDMDL
MODEL 5
REMARK VINA RESULT:      -7.9      1.348      1.845
REMARK  Name = 
REMARK  7 active torsions:
REMARK  status: ('A' for Active; 'I' for Inactive)
REMARK    1  A    between atoms: C_1  and  O_2
REMARK    2  A    between atoms: O_2  and  C_3
REMARK    3  A    between atoms: C_13  and  O_14
REMARK    4  A    between atoms: O_14  and  C_15
REMARK    5  A    between atoms: C_19  and  C_20
REMARK    6  A    between atoms: C_30  and  O_31
REMARK    7  A    between atoms: O_31  and  C_32
REMARK                            x       y       z     vdW  Elec       q    Type
REMARK                         _______ _______ _______ _____ _____    ______ ____
ROOT
ATOM      1  C   UNL     1      -3.741  12.713  21.236  0.00  0.00    +0.000 A 
ATOM      2  C   UNL     1      -4.248  12.584  19.928  0.00  0.00    +0.000 A 
ATOM      3  C   UNL     1      -3.519  12.006  18.889  0.00  0.00    +0.000 A 
ATOM      4  N   UNL     1      -4.105  11.814  17.704  0.00  0.00    +0.000 NA
ATOM      5  C   UNL     1      -3.387  11.147  16.789  0.00  0.00    +0.000 A 
ATOM      6  N   UNL     1      -2.144  10.675  16.943  0.00  0.00    +0.000 NA
ATOM      7  C   UNL     1      -1.535  10.916  18.121  0.00  0.00    +0.000 A 
ATOM      8  N   UNL     1      -0.262  10.425  18.270  0.00  0.00    +0.000 N 
ATOM      9  C   UNL     1       0.845  11.097  18.924  0.00  0.00    +0.000 C 
ATOM     10  C   UNL     1       2.054  10.623  18.146  0.00  0.00    +0.000 C 
ATOM     11  C   UNL     1       1.710   9.153  17.884  0.00  0.00    +0.000 C 
ATOM     12  C   UNL     1       0.183   9.195  17.623  0.00  0.00    +0.000 C 
ATOM     13  C   UNL     1      -2.208  11.610  19.148  0.00  0.00    +0.000 A 
ATOM     14  C   UNL     1      -1.681  11.842  20.430  0.00  0.00    +0.000 A 
ATOM     15  C   UNL     1      -2.409  12.398  21.473  0.00  0.00    +0.000 A 
ENDROOT
BRANCH   1  17
ATOM     16  C   UNL     1      -4.508  14.569  22.456  0.00  0.00    +0.000 C 
ATOM     17  O   UNL     1      -4.518  13.153  22.272  0.00  0.00    +0.000 OA
ENDBRANCH   1  17
BRANCH  15  18
ATOM     18  O   UNL     1      -1.636  12.486  22.591  0.00  0.00    +0.000 OA
ATOM     19  C   UNL     1      -1.100  11.327  23.182  0.00  0.00    +0.000 C 
ENDBRANCH  15  18
BRANCH  11  20
ATOM     20  O   UNL     1       1.998   8.347  19.045  0.00  0.00    +0.000 OA
BRANCH  20  21
ATOM     21  C   UNL     1       2.496   7.088  18.816  0.00  0.00    +0.000 A 
ATOM     22  C   UNL     1       1.963   6.057  19.582  0.00  0.00    +0.000 A 
ATOM     23  C   UNL     1       2.418   4.748  19.408  0.00  0.00    +0.000 A 
ATOM     24  C   UNL     1       3.413   4.465  18.464  0.00  0.00    +0.000 A 
ATOM     25  C   UNL     1       3.978   5.484  17.686  0.00  0.00    +0.000 A 
ATOM     26  C   UNL     1       3.503   6.790  17.894  0.00  0.00    +0.000 A 
BRANCH  25  27
ATOM     27  C   UNL     1       5.044   5.245  16.690  0.00  0.00    +0.000 A 
ATOM     28  C   UNL     1       6.285   5.914  16.773  0.00  0.00    +0.000 A 
ATOM     29  C   UNL     1       7.328   5.648  15.882  0.00  0.00    +0.000 A 
ATOM     30  C   UNL     1       7.151   4.713  14.870  0.00  0.00    +0.000 A 
ATOM     31  C   UNL     1       5.931   4.049  14.750  0.00  0.00    +0.000 A 
ATOM     32  C   UNL     1       4.893   4.309  15.652  0.00  0.00    +0.000 A 
ENDBRANCH  25  27
ENDBRANCH  20  21
ENDBRANCH  11  20
TORSDOF 5
ENDMDL
MODEL 6
REMARK VINA RESULT:      -7.8      1.408      2.752
REMARK  Name = 
REMARK  7 active torsions:
REMARK  status: ('A' for Active; 'I' for Inactive)
REMARK    1  A    between atoms: C_1  and  O_2
REMARK    2  A    between atoms: O_2  and  C_3
REMARK    3  A    between atoms: C_13  and  O_14
REMARK    4  A    between atoms: O_14  and  C_15
REMARK    5  A    between atoms: C_19  and  C_20
REMARK    6  A    between atoms: C_30  and  O_31
REMARK    7  A    between atoms: O_31  and  C_32
REMARK                            x       y       z     vdW  Elec       q    Type
REMARK                         _______ _______ _______ _____ _____    ______ ____
ROOT
ATOM      1  C   UNL     1      -5.678  12.708  21.603  0.00  0.00    +0.000 A 
ATOM      2  C   UNL     1      -6.089  12.654  20.257  0.00  0.00    +0.000 A 
ATOM      3  C   UNL     1      -5.217  12.348  19.213  0.00  0.00    +0.000 A 
ATOM      4  N   UNL     1      -5.699  12.203  17.976  0.00  0.00    +0.000 NA
ATOM      5  C   UNL     1      -4.826  11.792  17.045  0.00  0.00    +0.000 A 
ATOM      6  N   UNL     1      -3.527  11.532  17.231  0.00  0.00    +0.000 NA
ATOM      7  C   UNL     1      -3.030  11.729  18.469  0.00  0.00    +0.000 A 
ATOM      8  N   UNL     1      -1.698  11.456  18.651  0.00  0.00    +0.000 N 
ATOM      9  C   UNL     1      -0.767  12.227  19.452  0.00  0.00    +0.000 C 
ATOM     10  C   UNL     1       0.545  12.074  18.713  0.00  0.00    +0.000 C 
ATOM     11  C   UNL     1       0.491  10.611  18.263  0.00  0.00    +0.000 C 
ATOM     12  C   UNL     1      -1.004  10.414  17.901  0.00  0.00    +0.000 C 
ATOM     13  C   UNL     1      -3.869  12.161  19.517  0.00  0.00    +0.000 A 
ATOM     14  C   UNL     1      -3.457  12.322  20.852  0.00  0.00    +0.000 A 
ATOM     15  C   UNL     1      -4.325  12.607  21.897  0.00  0.00    +0.000 A 
ENDROOT
BRANCH   1  17
ATOM     16  C   UNL     1      -7.100  14.195  22.740  0.00  0.00    +0.000 C 
ATOM     17  O   UNL     1      -6.572  12.873  22.625  0.00  0.00    +0.000 OA
ENDBRANCH   1  17
BRANCH  15  18
ATOM     18  O   UNL     1      -3.636  12.692  23.069  0.00  0.00    +0.000 OA
ATOM     19  C   UNL     1      -3.403  13.941  23.672  0.00  0.00    +0.000 C 
ENDBRANCH  15  18
BRANCH  11  20
ATOM     20  O   UNL     1       0.865   9.731  19.343  0.00  0.00    +0.000 OA
BRANCH  20  21
ATOM     21  C   UNL     1       1.612   8.628  19.011  0.00  0.00    +0.000 A 
ATOM     22  C   UNL     1       2.579   8.803  18.027  0.00  0.00    +0.000 A 
ATOM     23  C   UNL     1       3.380   7.728  17.633  0.00  0.00    +0.000 A 
ATOM     24  C   UNL     1       3.215   6.469  18.224  0.00  0.00    +0.000 A 
ATOM     25  C   UNL     1       2.241   6.259  19.209  0.00  0.00    +0.000 A 
ATOM     26  C   UNL     1       1.448   7.360  19.574  0.00  0.00    +0.000 A 
BRANCH  25  27
ATOM     27  C   UNL     1       2.010   4.947  19.853  0.00  0.00    +0.000 A 
ATOM     28  C   UNL     1       2.466   4.687  21.163  0.00  0.00    +0.000 A 
ATOM     29  C   UNL     1       2.196   3.480  21.812  0.00  0.00    +0.000 A 
ATOM     30  C   UNL     1       1.474   2.489  21.157  0.00  0.00    +0.000 A 
ATOM     31  C   UNL     1       1.026   2.708  19.856  0.00  0.00    +0.000 A 
ATOM     32  C   UNL     1       1.288   3.924  19.214  0.00  0.00    +0.000 A 
ENDBRANCH  25  27
ENDBRANCH  20  21
ENDBRANCH  11  20
TORSDOF 5
ENDMDL
MODEL 7
REMARK VINA RESULT:      -7.7      3.698      4.852
REMARK  Name = 
REMARK  7 active torsions:
REMARK  status: ('A' for Active; 'I' for Inactive)
REMARK    1  A    between atoms: C_1  and  O_2
REMARK    2  A    between atoms: O_2  and  C_3
REMARK    3  A    between atoms: C_13  and  O_14
REMARK    4  A    between atoms: O_14  and  C_15
REMARK    5  A    between atoms: C_19  and  C_20
REMARK    6  A    between atoms: C_30  and  O_31
REMARK    7  A    between atoms: O_31  and  C_32
REMARK                            x       y       z     vdW  Elec       q    Type
REMARK                         _______ _______ _______ _____ _____    ______ ____
ROOT
ATOM      1  C   UNL     1       1.403  16.059  20.356  0.00  0.00    +0.000 A 
ATOM      2  C   UNL     1       0.490  16.039  21.428  0.00  0.00    +0.000 A 
ATOM      3  C   UNL     1      -0.071  14.860  21.920  0.00  0.00    +0.000 A 
ATOM      4  N   UNL     1      -0.840  14.904  23.010  0.00  0.00    +0.000 NA
ATOM      5  C   UNL     1      -1.248  13.723  23.496  0.00  0.00    +0.000 A 
ATOM      6  N   UNL     1      -0.973  12.515  22.988  0.00  0.00    +0.000 NA
ATOM      7  C   UNL     1      -0.240  12.475  21.857  0.00  0.00    +0.000 A 
ATOM      8  N   UNL     1       0.039  11.233  21.345  0.00  0.00    +0.000 N 
ATOM      9  C   UNL     1       0.046  10.867  19.942  0.00  0.00    +0.000 C 
ATOM     10  C   UNL     1      -0.418   9.425  19.953  0.00  0.00    +0.000 C 
ATOM     11  C   UNL     1       0.283   8.872  21.198  0.00  0.00    +0.000 C 
ATOM     12  C   UNL     1       0.208  10.058  22.194  0.00  0.00    +0.000 C 
ATOM     13  C   UNL     1       0.236  13.665  21.268  0.00  0.00    +0.000 A 
ATOM     14  C   UNL     1       1.065  13.717  20.135  0.00  0.00    +0.000 A 
ATOM     15  C   UNL     1       1.641  14.885  19.654  0.00  0.00    +0.000 A 
ENDROOT
BRANCH   1  17
ATOM     16  C   UNL     1       1.291  18.048  19.108  0.00  0.00    +0.000 C 
ATOM     17  O   UNL     1       2.047  17.205  19.979  0.00  0.00    +0.000 OA
ENDBRANCH   1  17
BRANCH  15  18
ATOM     18  O   UNL     1       2.400  14.617  18.555  0.00  0.00    +0.000 OA
ATOM     19  C   UNL     1       2.671  13.287  18.183  0.00  0.00    +0.000 C 
ENDBRANCH  15  18
BRANCH  11  20
ATOM     20  O   UNL     1       1.658   8.548  20.907  0.00  0.00    +0.000 OA
BRANCH  20  21
ATOM     21  C   UNL     1       1.899   7.312  20.361  0.00  0.00    +0.000 A 
ATOM     22  C   UNL     1       1.257   6.231  20.955  0.00  0.00    +0.000 A 
ATOM     23  C   UNL     1       1.453   4.940  20.458  0.00  0.00    +0.000 A 
ATOM     24  C   UNL     1       2.296   4.725  19.360  0.00  0.00    +0.000 A 
ATOM     25  C   UNL     1       2.966   5.793  18.748  0.00  0.00    +0.000 A 
ATOM     26  C   UNL     1       2.753   7.075  19.281  0.00  0.00    +0.000 A 
BRANCH  25  27
ATOM     27  C   UNL     1       3.882   5.621  17.600  0.00  0.00    +0.000 A 
ATOM     28  C   UNL     1       4.216   4.336  17.119  0.00  0.00    +0.000 A 
ATOM     29  C   UNL     1       5.023   4.156  15.992  0.00  0.00    +0.000 A 
ATOM     30  C   UNL     1       5.533   5.263  15.324  0.00  0.00    +0.000 A 
ATOM     31  C   UNL     1       5.237   6.545  15.785  0.00  0.00    +0.000 A 
ATOM     32  C   UNL     1       4.418   6.720  16.906  0.00  0.00    +0.000 A 
ENDBRANCH  25  27
ENDBRANCH  20  21
ENDBRANCH  11  20
TORSDOF 5
ENDMDL
MODEL 8
REMARK VINA RESULT:      -7.7      2.910      8.163
REMARK  Name = 
REMARK  7 active torsions:
REMARK  status: ('A' for Active; 'I' for Inactive)
REMARK    1  A    between atoms: C_1  and  O_2
REMARK    2  A    between atoms: O_2  and  C_3
REMARK    3  A    between atoms: C_13  and  O_14
REMARK    4  A    between atoms: O_14  and  C_15
REMARK    5  A    between atoms: C_19  and  C_20
REMARK    6  A    between atoms: C_30  and  O_31
REMARK    7  A    between atoms: O_31  and  C_32
REMARK                            x       y       z     vdW  Elec       q    Type
REMARK                         _______ _______ _______ _____ _____    ______ ____
ROOT
ATOM      1  C   UNL     1       1.253  10.148  18.923  0.00  0.00    +0.000 A 
ATOM      2  C   UNL     1       1.099   9.284  20.024  0.00  0.00    +0.000 A 
ATOM      3  C   UNL     1       0.483   9.676  21.212  0.00  0.00    +0.000 A 
ATOM      4  N   UNL     1       0.270   8.771  22.171  0.00  0.00    +0.000 NA
ATOM      5  C   UNL     1      -0.433   9.188  23.234  0.00  0.00    +0.000 A 
ATOM      6  N   UNL     1      -0.922  10.418  23.432  0.00  0.00    +0.000 NA
ATOM      7  C   UNL     1      -0.662  11.344  22.488  0.00  0.00    +0.000 A 
ATOM      8  N   UNL     1      -1.170  12.601  22.698  0.00  0.00    +0.000 N 
ATOM      9  C   UNL     1      -0.501  13.855  22.411  0.00  0.00    +0.000 C 
ATOM     10  C   UNL     1      -1.016  14.783  23.491  0.00  0.00    +0.000 C 
ATOM     11  C   UNL     1      -2.486  14.365  23.599  0.00  0.00    +0.000 C 
ATOM     12  C   UNL     1      -2.424  12.828  23.409  0.00  0.00    +0.000 C 
ATOM     13  C   UNL     1       0.070  11.003  21.331  0.00  0.00    +0.000 A 
ATOM     14  C   UNL     1       0.327  11.880  20.263  0.00  0.00    +0.000 A 
ATOM     15  C   UNL     1       0.922  11.489  19.071  0.00  0.00    +0.000 A 
ENDROOT
BRANCH   1  17
ATOM     16  C   UNL     1       2.395   8.444  17.777  0.00  0.00    +0.000 C 
ATOM     17  O   UNL     1       1.734   9.708  17.721  0.00  0.00    +0.000 OA
ENDBRANCH   1  17
BRANCH  15  18
ATOM     18  O   UNL     1       1.026  12.553  18.228  0.00  0.00    +0.000 OA
ATOM     19  C   UNL     1       0.286  13.727  18.464  0.00  0.00    +0.000 C 
ENDBRANCH  15  18
BRANCH  11  20
ATOM     20  O   UNL     1      -3.266  14.969  22.547  0.00  0.00    +0.000 OA
BRANCH  20  21
ATOM     21  C   UNL     1      -4.077  14.132  21.821  0.00  0.00    +0.000 A 
ATOM     22  C   UNL     1      -5.363  13.929  22.312  0.00  0.00    +0.000 A 
ATOM     23  C   UNL     1      -6.248  13.090  21.631  0.00  0.00    +0.000 A 
ATOM     24  C   UNL     1      -5.849  12.448  20.452  0.00  0.00    +0.000 A 
ATOM     25  C   UNL     1      -4.556  12.623  19.940  0.00  0.00    +0.000 A 
ATOM     26  C   UNL     1      -3.690  13.466  20.656  0.00  0.00    +0.000 A 
BRANCH  25  27
ATOM     27  C   UNL     1      -4.076  11.954  18.711  0.00  0.00    +0.000 A 
ATOM     28  C   UNL     1      -2.750  11.481  18.608  0.00  0.00    +0.000 A 
ATOM     29  C   UNL     1      -2.300  10.785  17.484  0.00  0.00    +0.000 A 
ATOM     30  C   UNL     1      -3.164  10.559  16.419  0.00  0.00    +0.000 A 
ATOM     31  C   UNL     1      -4.474  11.030  16.482  0.00  0.00    +0.000 A 
ATOM     32  C   UNL     1      -4.925  11.715  17.616  0.00  0.00    +0.000 A 
ENDBRANCH  25  27
ENDBRANCH  20  21
ENDBRANCH  11  20
TORSDOF 5
ENDMDL
MODEL 9
REMARK VINA RESULT:      -7.6      3.258      8.102
REMARK  Name = 
REMARK  7 active torsions:
REMARK  status: ('A' for Active; 'I' for Inactive)
REMARK    1  A    between atoms: C_1  and  O_2
REMARK    2  A    between atoms: O_2  and  C_3
REMARK    3  A    between atoms: C_13  and  O_14
REMARK    4  A    between atoms: O_14  and  C_15
REMARK    5  A    between atoms: C_19  and  C_20
REMARK    6  A    between atoms: C_30  and  O_31
REMARK    7  A    between atoms: O_31  and  C_32
REMARK                            x       y       z     vdW  Elec       q    Type
REMARK                         _______ _______ _______ _____ _____    ______ ____
ROOT
ATOM      1  C   UNL     1       1.323  11.127  19.121  0.00  0.00    +0.000 A 
ATOM      2  C   UNL     1       1.273  10.215  20.192  0.00  0.00    +0.000 A 
ATOM      3  C   UNL     1       0.482  10.420  21.322  0.00  0.00    +0.000 A 
ATOM      4  N   UNL     1       0.396   9.460  22.247  0.00  0.00    +0.000 NA
ATOM      5  C   UNL     1      -0.473   9.674  23.245  0.00  0.00    +0.000 A 
ATOM      6  N   UNL     1      -1.244  10.756  23.410  0.00  0.00    +0.000 NA
ATOM      7  C   UNL     1      -1.118  11.747  22.505  0.00  0.00    +0.000 A 
ATOM      8  N   UNL     1      -1.914  12.850  22.682  0.00  0.00    +0.000 N 
ATOM      9  C   UNL     1      -1.523  14.231  22.474  0.00  0.00    +0.000 C 
ATOM     10  C   UNL     1      -2.328  14.985  23.511  0.00  0.00    +0.000 C 
ATOM     11  C   UNL     1      -3.669  14.245  23.478  0.00  0.00    +0.000 C 
ATOM     12  C   UNL     1      -3.244  12.767  23.277  0.00  0.00    +0.000 C 
ATOM     13  C   UNL     1      -0.229  11.616  21.418  0.00  0.00    +0.000 A 
ATOM     14  C   UNL     1      -0.085  12.562  20.389  0.00  0.00    +0.000 A 
ATOM     15  C   UNL     1       0.685  12.354  19.253  0.00  0.00    +0.000 A 
ENDROOT
BRANCH   1  17
ATOM     16  C   UNL     1       2.120   9.451  17.678  0.00  0.00    +0.000 C 
ATOM     17  O   UNL     1       1.994  10.845  17.963  0.00  0.00    +0.000 OA
ENDBRANCH   1  17
BRANCH  15  18
ATOM     18  O   UNL     1       0.619  13.441  18.434  0.00  0.00    +0.000 OA
ATOM     19  C   UNL     1      -0.132  14.570  18.808  0.00  0.00    +0.000 C 
ENDBRANCH  15  18
BRANCH  11  20
ATOM     20  O   UNL     1      -4.470  14.691  22.365  0.00  0.00    +0.000 OA
BRANCH  20  21
ATOM     21  C   UNL     1      -5.002  13.717  21.556  0.00  0.00    +0.000 A 
ATOM     22  C   UNL     1      -6.247  13.215  21.920  0.00  0.00    +0.000 A 
ATOM     23  C   UNL     1      -6.853  12.221  21.148  0.00  0.00    +0.000 A 
ATOM     24  C   UNL     1      -6.214  11.724  20.005  0.00  0.00    +0.000 A 
ATOM     25  C   UNL     1      -4.954  12.201  19.620  0.00  0.00    +0.000 A 
ATOM     26  C   UNL     1      -4.370  13.194  20.425  0.00  0.00    +0.000 A 
BRANCH  25  27
ATOM     27  C   UNL     1      -4.226  11.698  18.435  0.00  0.00    +0.000 A 
ATOM     28  C   UNL     1      -4.894  11.464  17.214  0.00  0.00    +0.000 A 
ATOM     29  C   UNL     1      -4.211  11.057  16.065  0.00  0.00    +0.000 A 
ATOM     30  C   UNL     1      -2.836  10.855  16.114  0.00  0.00    +0.000 A 
ATOM     31  C   UNL     1      -2.151  11.060  17.310  0.00  0.00    +0.000 A 
ATOM     32  C   UNL     1      -2.837  11.481  18.455  0.00  0.00    +0.000 A 
ENDBRANCH  25  27
ENDBRANCH  20  21
ENDBRANCH  11  20
TORSDOF 5
ENDMDL
