MODEL 1
REMARK VINA RESULT:      -8.7      0.000      0.000
REMARK  Name = 
REMARK  7 active torsions:
REMARK  status: ('A' for Active; 'I' for Inactive)
REMARK    1  A    between atoms: N_5  and  C_6
REMARK    2  A    between atoms: C_9  and  O_10
REMARK    3  A    between atoms: O_10  and  C_11
REMARK    4  A    between atoms: C_16  and  N_17
REMARK    5  A    between atoms: N_17  and  C_18
REMARK    6  A    between atoms: C_18  and  C_19
REMARK    7  A    between atoms: C_19  and  N_20
REMARK                            x       y       z     vdW  Elec       q    Type
REMARK                         _______ _______ _______ _____ _____    ______ ____
ROOT
ATOM      1  C   UNL     1       2.452   5.060  19.633  0.00  0.00    +0.000 A 
ATOM      2  N   UNL     1       1.751   4.729  20.752  0.00  0.00    +0.000 NA
ATOM      3  C   UNL     1       1.046   3.585  20.667  0.00  0.00    +0.000 A 
ATOM      4  C   UNL     1       1.084   2.776  19.547  0.00  0.00    +0.000 A 
ATOM      5  N   UNL     1       1.801   3.086  18.443  0.00  0.00    +0.000 NA
ATOM      6  C   UNL     1       2.495   4.251  18.478  0.00  0.00    +0.000 A 
ENDROOT
BRANCH   6   7
ATOM      7  N   UNL     1       3.145   4.696  17.329  0.00  0.00    +0.000 N 
ATOM      8  H   UNL     1       3.331   5.697  17.336  0.00  0.00    +0.000 HD
BRANCH   7   9
ATOM      9  C   UNL     1       4.265   3.904  16.847  0.00  0.00    +0.000 C 
BRANCH   9  10
ATOM     10  C   UNL     1       5.126   4.783  15.913  0.00  0.00    +0.000 C 
BRANCH  10  11
ATOM     11  N   UNL     1       6.346   5.319  16.562  0.00  0.00    +0.000 NA
ATOM     12  C   UNL     1       6.180   6.737  16.917  0.00  0.00    +0.000 C 
ATOM     13  C   UNL     1       7.454   7.301  17.543  0.00  0.00    +0.000 C 
ATOM     14  C   UNL     1       7.871   6.494  18.764  0.00  0.00    +0.000 C 
ATOM     15  C   UNL     1       7.961   5.014  18.414  0.00  0.00    +0.000 C 
ATOM     16  C   UNL     1       6.673   4.517  17.754  0.00  0.00    +0.000 C 
ENDBRANCH  10  11
ENDBRANCH   9  10
ENDBRANCH   7   9
ENDBRANCH   6   7
BRANCH   1  17
ATOM     17  O   UNL     1       3.141   6.272  19.601  0.00  0.00    +0.000 OA
BRANCH  17  21
ATOM     18  C   UNL     1       0.833   9.721  19.010  0.00  0.00    +0.000 A 
ATOM     19  C   UNL     1       0.912   9.089  20.258  0.00  0.00    +0.000 A 
ATOM     20  C   UNL     1       1.709   7.952  20.437  0.00  0.00    +0.000 A 
ATOM     21  C   UNL     1       2.408   7.413  19.357  0.00  0.00    +0.000 A 
ATOM     22  C   UNL     1       2.383   8.065  18.126  0.00  0.00    +0.000 A 
ATOM     23  C   UNL     1       1.587   9.200  17.952  0.00  0.00    +0.000 A 
BRANCH  18  28
ATOM     24  C   UNL     1      -3.799  10.662  16.969  0.00  0.00    +0.000 A 
ATOM     25  C   UNL     1      -3.535  11.643  17.911  0.00  0.00    +0.000 A 
ATOM     26  C   UNL     1      -2.276  11.682  18.513  0.00  0.00    +0.000 A 
ATOM     27  C   UNL     1      -1.324  10.724  18.176  0.00  0.00    +0.000 A 
ATOM     28  N   UNL     1      -0.065  10.790  18.808  0.00  0.00    +0.000 N 
ATOM     29  N   UNL     1      -1.588   9.760  17.269  0.00  0.00    +0.000 NA
ATOM     30  C   UNL     1      -2.802   9.754  16.679  0.00  0.00    +0.000 A 
ATOM     31  H   UNL     1       0.389  11.670  18.597  0.00  0.00    +0.000 HD
ENDBRANCH  18  28
ENDBRANCH  17  21
ENDBRANCH   1  17
TORSDOF 7
ENDMDL
MODEL 2
REMARK VINA RESULT:      -8.3      1.604      2.307
REMARK  Name = 
REMARK  7 active torsions:
REMARK  status: ('A' for Active; 'I' for Inactive)
REMARK    1  A    between atoms: N_5  and  C_6
REMARK    2  A    between atoms: C_9  and  O_10
REMARK    3  A    between atoms: O_10  and  C_11
REMARK    4  A    between atoms: C_16  and  N_17
REMARK    5  A    between atoms: N_17  and  C_18
REMARK    6  A    between atoms: C_18  and  C_19
REMARK    7  A    between atoms: C_19  and  N_20
REMARK                            x       y       z     vdW  Elec       q    Type
REMARK                         _______ _______ _______ _____ _____    ______ ____
ROOT
ATOM      1  C   UNL     1       2.300   4.808  19.381  0.00  0.00    +0.000 A 
ATOM      2  N   UNL     1       1.486   4.426  20.403  0.00  0.00    +0.000 NA
ATOM      3  C   UNL     1       0.742   3.329  20.162  0.00  0.00    +0.000 A 
ATOM      4  C   UNL     1       0.847   2.610  18.986  0.00  0.00    +0.000 A 
ATOM      5  N   UNL     1       1.675   2.969  17.979  0.00  0.00    +0.000 NA
ATOM      6  C   UNL     1       2.413   4.091  18.172  0.00  0.00    +0.000 A 
ENDROOT
BRANCH   6   7
ATOM      7  N   UNL     1       3.184   4.591  17.124  0.00  0.00    +0.000 N 
ATOM      8  H   UNL     1       3.303   5.602  17.162  0.00  0.00    +0.000 HD
BRANCH   7   9
ATOM      9  C   UNL     1       4.407   3.877  16.796  0.00  0.00    +0.000 C 
BRANCH   9  10
ATOM     10  C   UNL     1       5.272   4.774  15.883  0.00  0.00    +0.000 C 
BRANCH  10  11
ATOM     11  N   UNL     1       6.462   5.339  16.563  0.00  0.00    +0.000 NA
ATOM     12  C   UNL     1       6.273   6.766  16.866  0.00  0.00    +0.000 C 
ATOM     13  C   UNL     1       7.517   7.359  17.524  0.00  0.00    +0.000 C 
ATOM     14  C   UNL     1       7.891   6.593  18.785  0.00  0.00    +0.000 C 
ATOM     15  C   UNL     1       8.004   5.104  18.485  0.00  0.00    +0.000 C 
ATOM     16  C   UNL     1       6.747   4.577  17.791  0.00  0.00    +0.000 C 
ENDBRANCH  10  11
ENDBRANCH   9  10
ENDBRANCH   7   9
ENDBRANCH   6   7
BRANCH   1  17
ATOM     17  O   UNL     1       3.041   5.982  19.509  0.00  0.00    +0.000 OA
BRANCH  17  21
ATOM     18  C   UNL     1       0.926   9.590  19.224  0.00  0.00    +0.000 A 
ATOM     19  C   UNL     1       1.036   8.891  20.433  0.00  0.00    +0.000 A 
ATOM     20  C   UNL     1       1.768   7.700  20.510  0.00  0.00    +0.000 A 
ATOM     21  C   UNL     1       2.369   7.175  19.365  0.00  0.00    +0.000 A 
ATOM     22  C   UNL     1       2.315   7.891  18.170  0.00  0.00    +0.000 A 
ATOM     23  C   UNL     1       1.584   9.079  18.099  0.00  0.00    +0.000 A 
BRANCH  18  28
ATOM     24  C   UNL     1       1.196  14.731  19.295  0.00  0.00    +0.000 A 
ATOM     25  C   UNL     1       0.045  14.368  18.616  0.00  0.00    +0.000 A 
ATOM     26  C   UNL     1      -0.323  13.022  18.576  0.00  0.00    +0.000 A 
ATOM     27  C   UNL     1       0.485  12.071  19.194  0.00  0.00    +0.000 A 
ATOM     28  N   UNL     1       0.088  10.720  19.128  0.00  0.00    +0.000 N 
ATOM     29  N   UNL     1       1.616  12.425  19.842  0.00  0.00    +0.000 NA
ATOM     30  C   UNL     1       1.939  13.734  19.892  0.00  0.00    +0.000 A 
ATOM     31  H   UNL     1      -0.815  10.597  19.570  0.00  0.00    +0.000 HD
ENDBRANCH  18  28
ENDBRANCH  17  21
ENDBRANCH   1  17
TORSDOF 7
ENDMDL
MODEL 3
REMARK VINA RESULT:      -8.3      1.208      4.019
REMARK  Name = 
REMARK  7 active torsions:
REMARK  status: ('A' for Active; 'I' for Inactive)
REMARK    1  A    between atoms: N_5  and  C_6
REMARK    2  A    between atoms: C_9  and  O_10
REMARK    3  A    between atoms: O_10  and  C_11
REMARK    4  A    between atoms: C_16  and  N_17
REMARK    5  A    between atoms: N_17  and  C_18
REMARK    6  A    between atoms: C_18  and  C_19
REMARK    7  A    between atoms: C_19  and  N_20
REMARK                            x       y       z     vdW  Elec       q    Type
REMARK                         _______ _______ _______ _____ _____    ______ ____
ROOT
ATOM      1  C   UNL     1       4.781   5.809  17.846  0.00  0.00    +0.000 A 
ATOM      2  N   UNL     1       5.781   6.686  18.139  0.00  0.00    +0.000 NA
ATOM      3  C   UNL     1       6.896   6.550  17.397  0.00  0.00    +0.000 A 
ATOM      4  C   UNL     1       6.992   5.629  16.370  0.00  0.00    +0.000 A 
ATOM      5  N   UNL     1       5.991   4.775  16.056  0.00  0.00    +0.000 NA
ATOM      6  C   UNL     1       4.865   4.857  16.808  0.00  0.00    +0.000 A 
ENDROOT
BRANCH   6   7
ATOM      7  N   UNL     1       3.851   3.919  16.627  0.00  0.00    +0.000 N 
ATOM      8  H   UNL     1       3.555   3.833  15.656  0.00  0.00    +0.000 HD
BRANCH   7   9
ATOM      9  C   UNL     1       3.998   2.639  17.301  0.00  0.00    +0.000 C 
BRANCH   9  10
ATOM     10  C   UNL     1       2.591   2.085  17.619  0.00  0.00    +0.000 C 
BRANCH  10  11
ATOM     11  N   UNL     1       2.152   2.348  19.010  0.00  0.00    +0.000 NA
ATOM     12  C   UNL     1       3.304   2.489  19.914  0.00  0.00    +0.000 C 
ATOM     13  C   UNL     1       2.850   2.713  21.355  0.00  0.00    +0.000 C 
ATOM     14  C   UNL     1       1.939   3.926  21.463  0.00  0.00    +0.000 C 
ATOM     15  C   UNL     1       0.791   3.817  20.467  0.00  0.00    +0.000 C 
ATOM     16  C   UNL     1       1.305   3.552  19.050  0.00  0.00    +0.000 C 
ENDBRANCH  10  11
ENDBRANCH   9  10
ENDBRANCH   7   9
ENDBRANCH   6   7
BRANCH   1  17
ATOM     17  O   UNL     1       3.624   5.819  18.623  0.00  0.00    +0.000 OA
BRANCH  17  21
ATOM     18  C   UNL     1       1.368   9.338  18.941  0.00  0.00    +0.000 A 
ATOM     19  C   UNL     1       1.464   8.423  19.998  0.00  0.00    +0.000 A 
ATOM     20  C   UNL     1       2.243   7.266  19.877  0.00  0.00    +0.000 A 
ATOM     21  C   UNL     1       2.907   6.994  18.681  0.00  0.00    +0.000 A 
ATOM     22  C   UNL     1       2.866   7.924  17.643  0.00  0.00    +0.000 A 
ATOM     23  C   UNL     1       2.089   9.077  17.769  0.00  0.00    +0.000 A 
BRANCH  18  28
ATOM     24  C   UNL     1      -3.346  10.749  17.429  0.00  0.00    +0.000 A 
ATOM     25  C   UNL     1      -3.007  11.501  18.541  0.00  0.00    +0.000 A 
ATOM     26  C   UNL     1      -1.715  11.395  19.061  0.00  0.00    +0.000 A 
ATOM     27  C   UNL     1      -0.806  10.521  18.471  0.00  0.00    +0.000 A 
ATOM     28  N   UNL     1       0.487  10.435  19.026  0.00  0.00    +0.000 N 
ATOM     29  N   UNL     1      -1.144   9.777  17.396  0.00  0.00    +0.000 NA
ATOM     30  C   UNL     1      -2.389   9.912  16.893  0.00  0.00    +0.000 A 
ATOM     31  H   UNL     1       0.949  11.335  18.981  0.00  0.00    +0.000 HD
ENDBRANCH  18  28
ENDBRANCH  17  21
ENDBRANCH   1  17
TORSDOF 7
ENDMDL
MODEL 4
REMARK VINA RESULT:      -8.2      2.225      8.051
REMARK  Name = 
REMARK  7 active torsions:
REMARK  status: ('A' for Active; 'I' for Inactive)
REMARK    1  A    between atoms: N_5  and  C_6
REMARK    2  A    between atoms: C_9  and  O_10
REMARK    3  A    between atoms: O_10  and  C_11
REMARK    4  A    between atoms: C_16  and  N_17
REMARK    5  A    between atoms: N_17  and  C_18
REMARK    6  A    between atoms: C_18  and  C_19
REMARK    7  A    between atoms: C_19  and  N_20
REMARK                            x       y       z     vdW  Elec       q    Type
REMARK                         _______ _______ _______ _____ _____    ______ ____
ROOT
ATOM      1  C   UNL     1       3.217   4.606  19.854  0.00  0.00    +0.000 A 
ATOM      2  N   UNL     1       3.310   3.385  19.260  0.00  0.00    +0.000 NA
ATOM      3  C   UNL     1       2.175   2.660  19.263  0.00  0.00    +0.000 A 
ATOM      4  C   UNL     1       0.988   3.149  19.776  0.00  0.00    +0.000 A 
ATOM      5  N   UNL     1       0.884   4.373  20.343  0.00  0.00    +0.000 NA
ATOM      6  C   UNL     1       2.017   5.117  20.391  0.00  0.00    +0.000 A 
ENDROOT
BRANCH   6   7
ATOM      7  N   UNL     1       2.011   6.328  21.080  0.00  0.00    +0.000 N 
ATOM      8  H   UNL     1       2.776   6.414  21.747  0.00  0.00    +0.000 HD
BRANCH   7   9
ATOM      9  C   UNL     1       1.785   7.536  20.302  0.00  0.00    +0.000 C 
BRANCH   9  10
ATOM     10  C   UNL     1       0.773   8.427  21.056  0.00  0.00    +0.000 C 
BRANCH  10  11
ATOM     11  N   UNL     1       0.776   9.839  20.606  0.00  0.00    +0.000 NA
ATOM     12  C   UNL     1       0.061   9.991  19.330  0.00  0.00    +0.000 C 
ATOM     13  C   UNL     1       0.105  11.438  18.843  0.00  0.00    +0.000 C 
ATOM     14  C   UNL     1      -0.464  12.388  19.887  0.00  0.00    +0.000 C 
ATOM     15  C   UNL     1       0.221  12.170  21.230  0.00  0.00    +0.000 C 
ATOM     16  C   UNL     1       0.181  10.698  21.644  0.00  0.00    +0.000 C 
ENDBRANCH  10  11
ENDBRANCH   9  10
ENDBRANCH   7   9
ENDBRANCH   6   7
BRANCH   1  17
ATOM     17  O   UNL     1       4.365   5.388  19.975  0.00  0.00    +0.000 OA
BRANCH  17  21
ATOM     18  C   UNL     1       6.817   5.593  16.581  0.00  0.00    +0.000 A 
ATOM     19  C   UNL     1       5.516   6.115  16.586  0.00  0.00    +0.000 A 
ATOM     20  C   UNL     1       4.724   6.056  17.739  0.00  0.00    +0.000 A 
ATOM     21  C   UNL     1       5.214   5.441  18.892  0.00  0.00    +0.000 A 
ATOM     22  C   UNL     1       6.526   4.971  18.916  0.00  0.00    +0.000 A 
ATOM     23  C   UNL     1       7.312   5.032  17.764  0.00  0.00    +0.000 A 
BRANCH  18  28
ATOM     24  C   UNL     1       6.545   3.623  11.832  0.00  0.00    +0.000 A 
ATOM     25  C   UNL     1       7.393   4.717  11.798  0.00  0.00    +0.000 A 
ATOM     26  C   UNL     1       7.736   5.347  12.996  0.00  0.00    +0.000 A 
ATOM     27  C   UNL     1       7.199   4.882  14.193  0.00  0.00    +0.000 A 
ATOM     28  N   UNL     1       7.561   5.546  15.384  0.00  0.00    +0.000 N 
ATOM     29  N   UNL     1       6.360   3.825  14.223  0.00  0.00    +0.000 NA
ATOM     30  C   UNL     1       6.062   3.214  13.058  0.00  0.00    +0.000 A 
ATOM     31  H   UNL     1       8.561   5.490  15.527  0.00  0.00    +0.000 HD
ENDBRANCH  18  28
ENDBRANCH  17  21
ENDBRANCH   1  17
TORSDOF 7
ENDMDL
MODEL 5
REMARK VINA RESULT:      -8.2      0.975      1.652
REMARK  Name = 
REMARK  7 active torsions:
REMARK  status: ('A' for Active; 'I' for Inactive)
REMARK    1  A    between atoms: N_5  and  C_6
REMARK    2  A    between atoms: C_9  and  O_10
REMARK    3  A    between atoms: O_10  and  C_11
REMARK    4  A    between atoms: C_16  and  N_17
REMARK    5  A    between atoms: N_17  and  C_18
REMARK    6  A    between atoms: C_18  and  C_19
REMARK    7  A    between atoms: C_19  and  N_20
REMARK                            x       y       z     vdW  Elec       q    Type
REMARK                         _______ _______ _______ _____ _____    ______ ____
ROOT
ATOM      1  C   UNL     1       3.435   4.584  18.906  0.00  0.00    +0.000 A 
ATOM      2  N   UNL     1       2.757   4.087  19.976  0.00  0.00    +0.000 NA
ATOM      3  C   UNL     1       2.193   2.879  19.785  0.00  0.00    +0.000 A 
ATOM      4  C   UNL     1       2.348   2.169  18.609  0.00  0.00    +0.000 A 
ATOM      5  N   UNL     1       3.045   2.647  17.552  0.00  0.00    +0.000 NA
ATOM      6  C   UNL     1       3.596   3.878  17.695  0.00  0.00    +0.000 A 
ENDROOT
BRANCH   6   7
ATOM      7  N   UNL     1       4.210   4.483  16.600  0.00  0.00    +0.000 N 
ATOM      8  H   UNL     1       4.564   5.417  16.806  0.00  0.00    +0.000 HD
BRANCH   7   9
ATOM      9  C   UNL     1       5.134   3.674  15.822  0.00  0.00    +0.000 C 
BRANCH   9  10
ATOM     10  C   UNL     1       6.525   4.347  15.852  0.00  0.00    +0.000 C 
BRANCH  10  11
ATOM     11  N   UNL     1       6.691   5.314  16.963  0.00  0.00    +0.000 NA
ATOM     12  C   UNL     1       7.593   4.785  17.998  0.00  0.00    +0.000 C 
ATOM     13  C   UNL     1       7.726   5.762  19.164  0.00  0.00    +0.000 C 
ATOM     14  C   UNL     1       8.205   7.126  18.689  0.00  0.00    +0.000 C 
ATOM     15  C   UNL     1       7.317   7.634  17.559  0.00  0.00    +0.000 C 
ATOM     16  C   UNL     1       7.189   6.597  16.441  0.00  0.00    +0.000 C 
ENDBRANCH  10  11
ENDBRANCH   9  10
ENDBRANCH   7   9
ENDBRANCH   6   7
BRANCH   1  17
ATOM     17  O   UNL     1       3.977   5.866  18.984  0.00  0.00    +0.000 OA
BRANCH  17  21
ATOM     18  C   UNL     1       1.380   9.155  18.867  0.00  0.00    +0.000 A 
ATOM     19  C   UNL     1       2.204   8.825  17.783  0.00  0.00    +0.000 A 
ATOM     20  C   UNL     1       3.046   7.708  17.836  0.00  0.00    +0.000 A 
ATOM     21  C   UNL     1       3.098   6.927  18.991  0.00  0.00    +0.000 A 
ATOM     22  C   UNL     1       2.241   7.211  20.053  0.00  0.00    +0.000 A 
ATOM     23  C   UNL     1       1.403   8.327  19.995  0.00  0.00    +0.000 A 
BRANCH  18  28
ATOM     24  C   UNL     1      -3.245  10.899  17.425  0.00  0.00    +0.000 A 
ATOM     25  C   UNL     1      -2.754  11.739  18.411  0.00  0.00    +0.000 A 
ATOM     26  C   UNL     1      -1.451  11.552  18.874  0.00  0.00    +0.000 A 
ATOM     27  C   UNL     1      -0.681  10.512  18.358  0.00  0.00    +0.000 A 
ATOM     28  N   UNL     1       0.629  10.348  18.853  0.00  0.00    +0.000 N 
ATOM     29  N   UNL     1      -1.167   9.684  17.408  0.00  0.00    +0.000 NA
ATOM     30  C   UNL     1      -2.420   9.898  16.955  0.00  0.00    +0.000 A 
ATOM     31  H   UNL     1       1.181  11.176  18.667  0.00  0.00    +0.000 HD
ENDBRANCH  18  28
ENDBRANCH  17  21
ENDBRANCH   1  17
TORSDOF 7
ENDMDL
MODEL 6
REMARK VINA RESULT:      -8.1      2.581      8.398
REMARK  Name = 
REMARK  7 active torsions:
REMARK  status: ('A' for Active; 'I' for Inactive)
REMARK    1  A    between atoms: N_5  and  C_6
REMARK    2  A    between atoms: C_9  and  O_10
REMARK    3  A    between atoms: O_10  and  C_11
REMARK    4  A    between atoms: C_16  and  N_17
REMARK    5  A    between atoms: N_17  and  C_18
REMARK    6  A    between atoms: C_18  and  C_19
REMARK    7  A    between atoms: C_19  and  N_20
REMARK                            x       y       z     vdW  Elec       q    Type
REMARK                         _______ _______ _______ _____ _____    ______ ____
ROOT
ATOM      1  C   UNL     1       3.350   4.798  20.038  0.00  0.00    +0.000 A 
ATOM      2  N   UNL     1       3.373   3.441  19.933  0.00  0.00    +0.000 NA
ATOM      3  C   UNL     1       2.185   2.834  20.117  0.00  0.00    +0.000 A 
ATOM      4  C   UNL     1       1.019   3.544  20.333  0.00  0.00    +0.000 A 
ATOM      5  N   UNL     1       0.986   4.894  20.410  0.00  0.00    +0.000 NA
ATOM      6  C   UNL     1       2.171   5.538  20.267  0.00  0.00    +0.000 A 
ENDROOT
BRANCH   6   7
ATOM      7  N   UNL     1       2.230   6.916  20.469  0.00  0.00    +0.000 N 
ATOM      8  H   UNL     1       2.665   7.415  19.695  0.00  0.00    +0.000 HD
BRANCH   7   9
ATOM      9  C   UNL     1       1.033   7.567  20.976  0.00  0.00    +0.000 C 
BRANCH   9  10
ATOM     10  C   UNL     1       1.114   9.074  20.646  0.00  0.00    +0.000 C 
BRANCH  10  11
ATOM     11  N   UNL     1      -0.020   9.861  21.187  0.00  0.00    +0.000 NA
ATOM     12  C   UNL     1      -0.011   9.864  22.657  0.00  0.00    +0.000 C 
ATOM     13  C   UNL     1      -1.207  10.635  23.214  0.00  0.00    +0.000 C 
ATOM     14  C   UNL     1      -1.240  12.059  22.679  0.00  0.00    +0.000 C 
ATOM     15  C   UNL     1      -1.165  12.056  21.157  0.00  0.00    +0.000 C 
ATOM     16  C   UNL     1       0.027  11.236  20.660  0.00  0.00    +0.000 C 
ENDBRANCH  10  11
ENDBRANCH   9  10
ENDBRANCH   7   9
ENDBRANCH   6   7
BRANCH   1  17
ATOM     17  O   UNL     1       4.550   5.503  19.949  0.00  0.00    +0.000 OA
BRANCH  17  21
ATOM     18  C   UNL     1       6.680   5.409  16.340  0.00  0.00    +0.000 A 
ATOM     19  C   UNL     1       7.138   4.746  17.486  0.00  0.00    +0.000 A 
ATOM     20  C   UNL     1       6.397   4.772  18.674  0.00  0.00    +0.000 A 
ATOM     21  C   UNL     1       5.204   5.493  18.737  0.00  0.00    +0.000 A 
ATOM     22  C   UNL     1       4.709   6.107  17.588  0.00  0.00    +0.000 A 
ATOM     23  C   UNL     1       5.452   6.078  16.405  0.00  0.00    +0.000 A 
BRANCH  18  28
ATOM     24  C   UNL     1       6.776   3.749  11.467  0.00  0.00    +0.000 A 
ATOM     25  C   UNL     1       7.563   4.885  11.552  0.00  0.00    +0.000 A 
ATOM     26  C   UNL     1       7.804   5.451  12.806  0.00  0.00    +0.000 A 
ATOM     27  C   UNL     1       7.230   4.879  13.938  0.00  0.00    +0.000 A 
ATOM     28  N   UNL     1       7.489   5.480  15.187  0.00  0.00    +0.000 N 
ATOM     29  N   UNL     1       6.450   3.780  13.851  0.00  0.00    +0.000 NA
ATOM     30  C   UNL     1       6.250   3.235  12.634  0.00  0.00    +0.000 A 
ATOM     31  H   UNL     1       8.482   5.466  15.384  0.00  0.00    +0.000 HD
ENDBRANCH  18  28
ENDBRANCH  17  21
ENDBRANCH   1  17
TORSDOF 7
ENDMDL
MODEL 7
REMARK VINA RESULT:      -8.1      2.473      8.195
REMARK  Name = 
REMARK  7 active torsions:
REMARK  status: ('A' for Active; 'I' for Inactive)
REMARK    1  A    between atoms: N_5  and  C_6
REMARK    2  A    between atoms: C_9  and  O_10
REMARK    3  A    between atoms: O_10  and  C_11
REMARK    4  A    between atoms: C_16  and  N_17
REMARK    5  A    between atoms: N_17  and  C_18
REMARK    6  A    between atoms: C_18  and  C_19
REMARK    7  A    between atoms: C_19  and  N_20
REMARK                            x       y       z     vdW  Elec       q    Type
REMARK                         _______ _______ _______ _____ _____    ______ ____
ROOT
ATOM      1  C   UNL     1       3.384   4.501  19.821  0.00  0.00    +0.000 A 
ATOM      2  N   UNL     1       3.650   3.180  20.016  0.00  0.00    +0.000 NA
ATOM      3  C   UNL     1       2.566   2.382  20.076  0.00  0.00    +0.000 A 
ATOM      4  C   UNL     1       1.284   2.863  19.890  0.00  0.00    +0.000 A 
ATOM      5  N   UNL     1       1.017   4.171  19.668  0.00  0.00    +0.000 NA
ATOM      6  C   UNL     1       2.082   5.010  19.637  0.00  0.00    +0.000 A 
ENDROOT
BRANCH   6   7
ATOM      7  N   UNL     1       1.867   6.384  19.547  0.00  0.00    +0.000 N 
ATOM      8  H   UNL     1       1.302   6.649  18.742  0.00  0.00    +0.000 HD
BRANCH   7   9
ATOM      9  C   UNL     1       1.498   7.084  20.767  0.00  0.00    +0.000 C 
BRANCH   9  10
ATOM     10  C   UNL     1       1.470   8.601  20.477  0.00  0.00    +0.000 C 
BRANCH  10  11
ATOM     11  N   UNL     1       0.333   9.304  21.117  0.00  0.00    +0.000 NA
ATOM     12  C   UNL     1       0.491   9.352  22.578  0.00  0.00    +0.000 C 
ATOM     13  C   UNL     1      -0.703  10.035  23.241  0.00  0.00    +0.000 C 
ATOM     14  C   UNL     1      -0.914  11.436  22.684  0.00  0.00    +0.000 C 
ATOM     15  C   UNL     1      -0.995  11.394  21.163  0.00  0.00    +0.000 C 
ATOM     16  C   UNL     1       0.207  10.663  20.561  0.00  0.00    +0.000 C 
ENDBRANCH  10  11
ENDBRANCH   9  10
ENDBRANCH   7   9
ENDBRANCH   6   7
BRANCH   1  17
ATOM     17  O   UNL     1       4.440   5.411  19.833  0.00  0.00    +0.000 OA
BRANCH  17  21
ATOM     18  C   UNL     1       6.883   5.487  16.426  0.00  0.00    +0.000 A 
ATOM     19  C   UNL     1       5.625   6.105  16.449  0.00  0.00    +0.000 A 
ATOM     20  C   UNL     1       4.837   6.087  17.605  0.00  0.00    +0.000 A 
ATOM     21  C   UNL     1       5.285   5.418  18.745  0.00  0.00    +0.000 A 
ATOM     22  C   UNL     1       6.558   4.850  18.754  0.00  0.00    +0.000 A 
ATOM     23  C   UNL     1       7.340   4.871  17.597  0.00  0.00    +0.000 A 
BRANCH  18  28
ATOM     24  C   UNL     1       6.440   3.617  11.650  0.00  0.00    +0.000 A 
ATOM     25  C   UNL     1       7.367   4.645  11.627  0.00  0.00    +0.000 A 
ATOM     26  C   UNL     1       7.761   5.230  12.832  0.00  0.00    +0.000 A 
ATOM     27  C   UNL     1       7.198   4.787  14.026  0.00  0.00    +0.000 A 
ATOM     28  N   UNL     1       7.614   5.404  15.224  0.00  0.00    +0.000 N 
ATOM     29  N   UNL     1       6.283   3.794  14.046  0.00  0.00    +0.000 NA
ATOM     30  C   UNL     1       5.935   3.225  12.873  0.00  0.00    +0.000 A 
ATOM     31  H   UNL     1       8.609   5.272  15.360  0.00  0.00    +0.000 HD
ENDBRANCH  18  28
ENDBRANCH  17  21
ENDBRANCH   1  17
TORSDOF 7
ENDMDL
MODEL 8
REMARK VINA RESULT:      -8.0      1.802      2.845
REMARK  Name = 
REMARK  7 active torsions:
REMARK  status: ('A' for Active; 'I' for Inactive)
REMARK    1  A    between atoms: N_5  and  C_6
REMARK    2  A    between atoms: C_9  and  O_10
REMARK    3  A    between atoms: O_10  and  C_11
REMARK    4  A    between atoms: C_16  and  N_17
REMARK    5  A    between atoms: N_17  and  C_18
REMARK    6  A    between atoms: C_18  and  C_19
REMARK    7  A    between atoms: C_19  and  N_20
REMARK                            x       y       z     vdW  Elec       q    Type
REMARK                         _______ _______ _______ _____ _____    ______ ____
ROOT
ATOM      1  C   UNL     1       2.351   5.051  19.526  0.00  0.00    +0.000 A 
ATOM      2  N   UNL     1       1.445   4.693  20.477  0.00  0.00    +0.000 NA
ATOM      3  C   UNL     1       0.786   3.543  20.236  0.00  0.00    +0.000 A 
ATOM      4  C   UNL     1       1.058   2.755  19.133  0.00  0.00    +0.000 A 
ATOM      5  N   UNL     1       1.976   3.092  18.199  0.00  0.00    +0.000 NA
ATOM      6  C   UNL     1       2.634   4.263  18.390  0.00  0.00    +0.000 A 
ENDROOT
BRANCH   6   7
ATOM      7  N   UNL     1       3.494   4.735  17.401  0.00  0.00    +0.000 N 
ATOM      8  H   UNL     1       4.031   5.550  17.693  0.00  0.00    +0.000 HD
BRANCH   7   9
ATOM      9  C   UNL     1       4.284   3.751  16.679  0.00  0.00    +0.000 C 
BRANCH   9  10
ATOM     10  C   UNL     1       5.629   4.396  16.278  0.00  0.00    +0.000 C 
BRANCH  10  11
ATOM     11  N   UNL     1       6.131   5.380  17.266  0.00  0.00    +0.000 NA
ATOM     12  C   UNL     1       7.021   4.742  18.247  0.00  0.00    +0.000 C 
ATOM     13  C   UNL     1       7.501   5.747  19.292  0.00  0.00    +0.000 C 
ATOM     14  C   UNL     1       8.195   6.933  18.638  0.00  0.00    +0.000 C 
ATOM     15  C   UNL     1       7.303   7.541  17.563  0.00  0.00    +0.000 C 
ATOM     16  C   UNL     1       6.822   6.480  16.571  0.00  0.00    +0.000 C 
ENDBRANCH  10  11
ENDBRANCH   9  10
ENDBRANCH   7   9
ENDBRANCH   6   7
BRANCH   1  17
ATOM     17  O   UNL     1       3.016   6.270  19.651  0.00  0.00    +0.000 OA
BRANCH  17  21
ATOM     18  C   UNL     1       0.797   9.792  19.159  0.00  0.00    +0.000 A 
ATOM     19  C   UNL     1       1.487   9.198  18.094  0.00  0.00    +0.000 A 
ATOM     20  C   UNL     1       2.201   8.009  18.277  0.00  0.00    +0.000 A 
ATOM     21  C   UNL     1       2.263   7.418  19.539  0.00  0.00    +0.000 A 
ATOM     22  C   UNL     1       1.534   7.968  20.593  0.00  0.00    +0.000 A 
ATOM     23  C   UNL     1       0.822   9.154  20.405  0.00  0.00    +0.000 A 
BRANCH  18  28
ATOM     24  C   UNL     1       1.868  14.805  19.645  0.00  0.00    +0.000 A 
ATOM     25  C   UNL     1       0.821  14.672  18.748  0.00  0.00    +0.000 A 
ATOM     26  C   UNL     1       0.257  13.410  18.546  0.00  0.00    +0.000 A 
ATOM     27  C   UNL     1       0.772  12.311  19.229  0.00  0.00    +0.000 A 
ATOM     28  N   UNL     1       0.183  11.052  18.997  0.00  0.00    +0.000 N 
ATOM     29  N   UNL     1       1.803  12.441  20.091  0.00  0.00    +0.000 NA
ATOM     30  C   UNL     1       2.317  13.672  20.291  0.00  0.00    +0.000 A 
ATOM     31  H   UNL     1      -0.794  11.066  19.262  0.00  0.00    +0.000 HD
ENDBRANCH  18  28
ENDBRANCH  17  21
ENDBRANCH   1  17
TORSDOF 7
ENDMDL
MODEL 9
REMARK VINA RESULT:      -8.0      2.566      4.934
REMARK  Name = 
REMARK  7 active torsions:
REMARK  status: ('A' for Active; 'I' for Inactive)
REMARK    1  A    between atoms: N_5  and  C_6
REMARK    2  A    between atoms: C_9  and  O_10
REMARK    3  A    between atoms: O_10  and  C_11
REMARK    4  A    between atoms: C_16  and  N_17
REMARK    5  A    between atoms: N_17  and  C_18
REMARK    6  A    between atoms: C_18  and  C_19
REMARK    7  A    between atoms: C_19  and  N_20
REMARK                            x       y       z     vdW  Elec       q    Type
REMARK                         _______ _______ _______ _____ _____    ______ ____
ROOT
ATOM      1  C   UNL     1       5.164   6.435  17.149  0.00  0.00    +0.000 A 
ATOM      2  N   UNL     1       6.165   7.258  17.567  0.00  0.00    +0.000 NA
ATOM      3  C   UNL     1       7.346   6.651  17.795  0.00  0.00    +0.000 A 
ATOM      4  C   UNL     1       7.540   5.302  17.561  0.00  0.00    +0.000 A 
ATOM      5  N   UNL     1       6.556   4.486  17.119  0.00  0.00    +0.000 NA
ATOM      6  C   UNL     1       5.342   5.056  16.914  0.00  0.00    +0.000 A 
ENDROOT
BRANCH   6   7
ATOM      7  N   UNL     1       4.254   4.249  16.589  0.00  0.00    +0.000 N 
ATOM      8  H   UNL     1       3.966   4.337  15.615  0.00  0.00    +0.000 HD
BRANCH   7   9
ATOM      9  C   UNL     1       4.278   2.874  17.061  0.00  0.00    +0.000 C 
BRANCH   9  10
ATOM     10  C   UNL     1       2.851   2.478  17.501  0.00  0.00    +0.000 C 
BRANCH  10  11
ATOM     11  N   UNL     1       2.474   3.009  18.833  0.00  0.00    +0.000 NA
ATOM     12  C   UNL     1       1.030   2.867  19.073  0.00  0.00    +0.000 C 
ATOM     13  C   UNL     1       0.635   3.457  20.425  0.00  0.00    +0.000 C 
ATOM     14  C   UNL     1       1.427   2.818  21.557  0.00  0.00    +0.000 C 
ATOM     15  C   UNL     1       2.921   2.893  21.266  0.00  0.00    +0.000 C 
ATOM     16  C   UNL     1       3.248   2.326  19.883  0.00  0.00    +0.000 C 
ENDBRANCH  10  11
ENDBRANCH   9  10
ENDBRANCH   7   9
ENDBRANCH   6   7
BRANCH   1  17
ATOM     17  O   UNL     1       3.886   6.962  16.973  0.00  0.00    +0.000 OA
BRANCH  17  21
ATOM     18  C   UNL     1       1.613   7.934  20.359  0.00  0.00    +0.000 A 
ATOM     19  C   UNL     1       1.640   8.757  19.225  0.00  0.00    +0.000 A 
ATOM     20  C   UNL     1       2.387   8.400  18.097  0.00  0.00    +0.000 A 
ATOM     21  C   UNL     1       3.147   7.230  18.104  0.00  0.00    +0.000 A 
ATOM     22  C   UNL     1       3.083   6.375  19.204  0.00  0.00    +0.000 A 
ATOM     23  C   UNL     1       2.335   6.736  20.327  0.00  0.00    +0.000 A 
BRANCH  18  28
ATOM     24  C   UNL     1      -0.645  12.121  22.330  0.00  0.00    +0.000 A 
ATOM     25  C   UNL     1      -1.159  11.009  22.975  0.00  0.00    +0.000 A 
ATOM     26  C   UNL     1      -0.606   9.754  22.708  0.00  0.00    +0.000 A 
ATOM     27  C   UNL     1       0.429   9.643  21.783  0.00  0.00    +0.000 A 
ATOM     28  N   UNL     1       0.958   8.361  21.533  0.00  0.00    +0.000 N 
ATOM     29  N   UNL     1       0.918  10.727  21.143  0.00  0.00    +0.000 NA
ATOM     30  C   UNL     1       0.387  11.933  21.434  0.00  0.00    +0.000 A 
ATOM     31  H   UNL     1       1.348   7.970  22.382  0.00  0.00    +0.000 HD
ENDBRANCH  18  28
ENDBRANCH  17  21
ENDBRANCH   1  17
TORSDOF 7
ENDMDL
