MODEL 1
REMARK VINA RESULT:      -7.0      0.000      0.000
REMARK  Name = 
REMARK  4 active torsions:
REMARK  status: ('A' for Active; 'I' for Inactive)
REMARK    1  A    between atoms: C_1  and  C_2
REMARK    2  A    between atoms: C_5  and  C_6
REMARK    3  A    between atoms: C_11  and  C_13
REMARK    4  A    between atoms: N_18  and  C_19
REMARK                            x       y       z     vdW  Elec       q    Type
REMARK                         _______ _______ _______ _____ _____    ______ ____
ROOT
ATOM      1  C   UNL     1       6.452   6.532  16.709  0.00  0.00    +0.000 C 
ATOM      2  C   UNL     1       7.495   6.142  17.774  0.00  0.00    +0.000 C 
ATOM      3  C   UNL     1       6.947   5.097  18.756  0.00  0.00    +0.000 C 
ATOM      4  C   UNL     1       5.634   5.574  19.375  0.00  0.00    +0.000 C 
ATOM      5  N   UNL     1       4.667   5.905  18.326  0.00  0.00    +0.000 N 
ATOM      6  C   UNL     1       3.337   5.487  18.248  0.00  0.00    +0.000 C 
ATOM      7  O   UNL     1       2.557   6.076  17.495  0.00  0.00    +0.000 OA
ATOM      8  C   UNL     1       5.127   6.921  17.374  0.00  0.00    +0.000 C 
ENDROOT
BRANCH   6   9
ATOM      9  C   UNL     1       2.876   4.358  19.047  0.00  0.00    +0.000 A 
ATOM     10  C   UNL     1       2.283   4.319  20.305  0.00  0.00    +0.000 A 
ATOM     11  C   UNL     1       2.015   2.971  20.634  0.00  0.00    +0.000 A 
ATOM     12 CL   UNL     1       1.228   2.441  22.037  0.00  0.00    +0.000 Cl
ATOM     13  C   UNL     1       2.517   2.195  19.623  0.00  0.00    +0.000 A 
ATOM     14  N   UNL     1       3.078   3.033  18.690  0.00  0.00    +0.000 N 
ATOM     15  C   UNL     1       3.772   2.575  17.505  0.00  0.00    +0.000 C 
ENDBRANCH   6   9
BRANCH   1  20
ATOM     16  C   UNL     1       4.974   3.737  12.961  0.00  0.00    +0.000 C 
ATOM     17  C   UNL     1       5.793   4.254  14.073  0.00  0.00    +0.000 A 
ATOM     18  N   UNL     1       7.109   4.046  14.165  0.00  0.00    +0.000 NA
ATOM     19  O   UNL     1       7.477   4.821  15.267  0.00  0.00    +0.000 OA
ATOM     20  C   UNL     1       6.335   5.418  15.718  0.00  0.00    +0.000 A 
ATOM     21  N   UNL     1       5.264   5.068  15.039  0.00  0.00    +0.000 NA
ENDBRANCH   1  20
TORSDOF 2
ENDMDL
MODEL 2
REMARK VINA RESULT:      -6.8      2.434      3.711
REMARK  Name = 
REMARK  4 active torsions:
REMARK  status: ('A' for Active; 'I' for Inactive)
REMARK    1  A    between atoms: C_1  and  C_2
REMARK    2  A    between atoms: C_5  and  C_6
REMARK    3  A    between atoms: C_11  and  C_13
REMARK    4  A    between atoms: N_18  and  C_19
REMARK                            x       y       z     vdW  Elec       q    Type
REMARK                         _______ _______ _______ _____ _____    ______ ____
ROOT
ATOM      1  C   UNL     1       6.806   4.536  16.201  0.00  0.00    +0.000 C 
ATOM      2  C   UNL     1       5.878   5.162  15.142  0.00  0.00    +0.000 C 
ATOM      3  C   UNL     1       4.584   5.704  15.762  0.00  0.00    +0.000 C 
ATOM      4  C   UNL     1       3.883   4.622  16.581  0.00  0.00    +0.000 C 
ATOM      5  N   UNL     1       4.793   4.079  17.592  0.00  0.00    +0.000 N 
ATOM      6  C   UNL     1       4.527   3.896  18.951  0.00  0.00    +0.000 C 
ATOM      7  O   UNL     1       5.253   3.155  19.619  0.00  0.00    +0.000 OA
ATOM      8  C   UNL     1       6.037   3.519  17.052  0.00  0.00    +0.000 C 
ENDROOT
BRANCH   6   9
ATOM      9  C   UNL     1       3.400   4.579  19.575  0.00  0.00    +0.000 A 
ATOM     10  C   UNL     1       3.225   5.916  19.917  0.00  0.00    +0.000 A 
ATOM     11  C   UNL     1       1.943   6.069  20.493  0.00  0.00    +0.000 A 
ATOM     12 CL   UNL     1       1.260   7.537  20.992  0.00  0.00    +0.000 Cl
ATOM     13  C   UNL     1       1.381   4.822  20.577  0.00  0.00    +0.000 A 
ATOM     14  N   UNL     1       2.282   3.920  20.067  0.00  0.00    +0.000 N 
ATOM     15  C   UNL     1       2.070   2.488  20.048  0.00  0.00    +0.000 C 
ENDBRANCH   6   9
BRANCH   1  20
ATOM     16  C   UNL     1       8.012   8.956  17.948  0.00  0.00    +0.000 C 
ATOM     17  C   UNL     1       7.910   7.490  17.820  0.00  0.00    +0.000 A 
ATOM     18  N   UNL     1       8.032   6.660  18.859  0.00  0.00    +0.000 NA
ATOM     19  O   UNL     1       7.727   5.414  18.307  0.00  0.00    +0.000 OA
ATOM     20  C   UNL     1       7.446   5.633  16.989  0.00  0.00    +0.000 A 
ATOM     21  N   UNL     1       7.585   6.891  16.632  0.00  0.00    +0.000 NA
ENDBRANCH   1  20
TORSDOF 2
ENDMDL
MODEL 3
REMARK VINA RESULT:      -6.7      1.569      2.052
REMARK  Name = 
REMARK  4 active torsions:
REMARK  status: ('A' for Active; 'I' for Inactive)
REMARK    1  A    between atoms: C_1  and  C_2
REMARK    2  A    between atoms: C_5  and  C_6
REMARK    3  A    between atoms: C_11  and  C_13
REMARK    4  A    between atoms: N_18  and  C_19
REMARK                            x       y       z     vdW  Elec       q    Type
REMARK                         _______ _______ _______ _____ _____    ______ ____
ROOT
ATOM      1  C   UNL     1       6.918   6.253  16.705  0.00  0.00    +0.000 C 
ATOM      2  C   UNL     1       7.631   5.249  17.630  0.00  0.00    +0.000 C 
ATOM      3  C   UNL     1       6.636   4.348  18.374  0.00  0.00    +0.000 C 
ATOM      4  C   UNL     1       5.599   5.189  19.118  0.00  0.00    +0.000 C 
ATOM      5  N   UNL     1       4.929   6.106  18.193  0.00  0.00    +0.000 N 
ATOM      6  C   UNL     1       3.554   6.309  18.061  0.00  0.00    +0.000 C 
ATOM      7  O   UNL     1       3.140   7.315  17.478  0.00  0.00    +0.000 OA
ATOM      8  C   UNL     1       5.832   7.012  17.475  0.00  0.00    +0.000 C 
ENDROOT
BRANCH   6   9
ATOM      9  C   UNL     1       2.614   5.337  18.606  0.00  0.00    +0.000 A 
ATOM     10  C   UNL     1       2.137   4.141  18.079  0.00  0.00    +0.000 A 
ATOM     11  C   UNL     1       1.245   3.562  19.010  0.00  0.00    +0.000 A 
ATOM     12 CL   UNL     1       0.478   2.062  18.834  0.00  0.00    +0.000 Cl
ATOM     13  C   UNL     1       1.117   4.441  20.054  0.00  0.00    +0.000 A 
ATOM     14  N   UNL     1       1.907   5.532  19.784  0.00  0.00    +0.000 N 
ATOM     15  C   UNL     1       1.981   6.705  20.629  0.00  0.00    +0.000 C 
ENDBRANCH   6   9
BRANCH   1  20
ATOM     16  C   UNL     1       6.727   3.654  12.552  0.00  0.00    +0.000 C 
ATOM     17  C   UNL     1       6.299   4.341  13.785  0.00  0.00    +0.000 A 
ATOM     18  N   UNL     1       5.190   4.011  14.453  0.00  0.00    +0.000 NA
ATOM     19  O   UNL     1       5.263   4.806  15.600  0.00  0.00    +0.000 OA
ATOM     20  C   UNL     1       6.418   5.527  15.498  0.00  0.00    +0.000 A 
ATOM     21  N   UNL     1       7.071   5.304  14.377  0.00  0.00    +0.000 NA
ENDBRANCH   1  20
TORSDOF 2
ENDMDL
MODEL 4
REMARK VINA RESULT:      -6.6      1.413      1.873
REMARK  Name = 
REMARK  4 active torsions:
REMARK  status: ('A' for Active; 'I' for Inactive)
REMARK    1  A    between atoms: C_1  and  C_2
REMARK    2  A    between atoms: C_5  and  C_6
REMARK    3  A    between atoms: C_11  and  C_13
REMARK    4  A    between atoms: N_18  and  C_19
REMARK                            x       y       z     vdW  Elec       q    Type
REMARK                         _______ _______ _______ _____ _____    ______ ____
ROOT
ATOM      1  C   UNL     1       7.163   6.340  17.002  0.00  0.00    +0.000 C 
ATOM      2  C   UNL     1       7.801   5.528  18.146  0.00  0.00    +0.000 C 
ATOM      3  C   UNL     1       6.773   4.636  18.857  0.00  0.00    +0.000 C 
ATOM      4  C   UNL     1       5.576   5.461  19.326  0.00  0.00    +0.000 C 
ATOM      5  N   UNL     1       4.988   6.191  18.201  0.00  0.00    +0.000 N 
ATOM      6  C   UNL     1       3.637   6.247  17.850  0.00  0.00    +0.000 C 
ATOM      7  O   UNL     1       3.243   7.130  17.084  0.00  0.00    +0.000 OA
ATOM      8  C   UNL     1       5.919   7.082  17.501  0.00  0.00    +0.000 C 
ENDROOT
BRANCH   6   9
ATOM      9  C   UNL     1       2.700   5.265  18.384  0.00  0.00    +0.000 A 
ATOM     10  C   UNL     1       2.237   4.068  17.847  0.00  0.00    +0.000 A 
ATOM     11  C   UNL     1       1.342   3.478  18.769  0.00  0.00    +0.000 A 
ATOM     12 CL   UNL     1       0.588   1.974  18.580  0.00  0.00    +0.000 Cl
ATOM     13  C   UNL     1       1.200   4.351  19.816  0.00  0.00    +0.000 A 
ATOM     14  N   UNL     1       1.984   5.449  19.557  0.00  0.00    +0.000 N 
ATOM     15  C   UNL     1       2.043   6.619  20.408  0.00  0.00    +0.000 C 
ENDBRANCH   6   9
BRANCH   1  20
ATOM     16  C   UNL     1       4.939   3.787  13.456  0.00  0.00    +0.000 C 
ATOM     17  C   UNL     1       6.004   4.404  14.268  0.00  0.00    +0.000 A 
ATOM     18  N   UNL     1       7.211   4.701  13.778  0.00  0.00    +0.000 NA
ATOM     19  O   UNL     1       7.822   5.383  14.833  0.00  0.00    +0.000 OA
ATOM     20  C   UNL     1       6.908   5.427  15.846  0.00  0.00    +0.000 A 
ATOM     21  N   UNL     1       5.787   4.802  15.560  0.00  0.00    +0.000 NA
ENDBRANCH   1  20
TORSDOF 2
ENDMDL
MODEL 5
REMARK VINA RESULT:      -6.2      2.962      5.875
REMARK  Name = 
REMARK  4 active torsions:
REMARK  status: ('A' for Active; 'I' for Inactive)
REMARK    1  A    between atoms: C_1  and  C_2
REMARK    2  A    between atoms: C_5  and  C_6
REMARK    3  A    between atoms: C_11  and  C_13
REMARK    4  A    between atoms: N_18  and  C_19
REMARK                            x       y       z     vdW  Elec       q    Type
REMARK                         _______ _______ _______ _____ _____    ______ ____
ROOT
ATOM      1  C   UNL     1       5.178   5.939  18.813  0.00  0.00    +0.000 C 
ATOM      2  C   UNL     1       4.168   6.935  18.211  0.00  0.00    +0.000 C 
ATOM      3  C   UNL     1       3.967   6.708  16.706  0.00  0.00    +0.000 C 
ATOM      4  C   UNL     1       5.308   6.727  15.974  0.00  0.00    +0.000 C 
ATOM      5  N   UNL     1       6.223   5.746  16.562  0.00  0.00    +0.000 N 
ATOM      6  C   UNL     1       6.982   4.792  15.881  0.00  0.00    +0.000 C 
ATOM      7  O   UNL     1       7.929   4.245  16.454  0.00  0.00    +0.000 OA
ATOM      8  C   UNL     1       6.475   5.932  17.995  0.00  0.00    +0.000 C 
ENDROOT
BRANCH   6   9
ATOM      9  C   UNL     1       6.655   4.441  14.504  0.00  0.00    +0.000 A 
ATOM     10  C   UNL     1       5.695   3.574  13.992  0.00  0.00    +0.000 A 
ATOM     11  C   UNL     1       5.777   3.594  12.581  0.00  0.00    +0.000 A 
ATOM     12 CL   UNL     1       4.753   2.754  11.526  0.00  0.00    +0.000 Cl
ATOM     13  C   UNL     1       6.833   4.401  12.245  0.00  0.00    +0.000 A 
ATOM     14  N   UNL     1       7.390   4.871  13.410  0.00  0.00    +0.000 N 
ATOM     15  C   UNL     1       8.573   5.704  13.461  0.00  0.00    +0.000 C 
ENDBRANCH   6   9
BRANCH   1  20
ATOM     16  C   UNL     1       2.369   2.010  17.968  0.00  0.00    +0.000 C 
ATOM     17  C   UNL     1       3.413   2.876  18.546  0.00  0.00    +0.000 A 
ATOM     18  N   UNL     1       4.520   2.396  19.120  0.00  0.00    +0.000 NA
ATOM     19  O   UNL     1       5.265   3.547  19.384  0.00  0.00    +0.000 OA
ATOM     20  C   UNL     1       4.524   4.600  18.932  0.00  0.00    +0.000 A 
ATOM     21  N   UNL     1       3.356   4.240  18.444  0.00  0.00    +0.000 NA
ENDBRANCH   1  20
TORSDOF 2
ENDMDL
MODEL 6
REMARK VINA RESULT:      -6.1      1.457      1.809
REMARK  Name = 
REMARK  4 active torsions:
REMARK  status: ('A' for Active; 'I' for Inactive)
REMARK    1  A    between atoms: C_1  and  C_2
REMARK    2  A    between atoms: C_5  and  C_6
REMARK    3  A    between atoms: C_11  and  C_13
REMARK    4  A    between atoms: N_18  and  C_19
REMARK                            x       y       z     vdW  Elec       q    Type
REMARK                         _______ _______ _______ _____ _____    ______ ____
ROOT
ATOM      1  C   UNL     1       5.993   6.866  16.468  0.00  0.00    +0.000 C 
ATOM      2  C   UNL     1       7.176   7.069  17.434  0.00  0.00    +0.000 C 
ATOM      3  C   UNL     1       7.192   6.014  18.549  0.00  0.00    +0.000 C 
ATOM      4  C   UNL     1       5.848   5.974  19.274  0.00  0.00    +0.000 C 
ATOM      5  N   UNL     1       4.760   5.750  18.320  0.00  0.00    +0.000 N 
ATOM      6  C   UNL     1       3.730   4.814  18.425  0.00  0.00    +0.000 C 
ATOM      7  O   UNL     1       2.722   4.937  17.724  0.00  0.00    +0.000 OA
ATOM      8  C   UNL     1       4.679   6.748  17.247  0.00  0.00    +0.000 C 
ENDROOT
BRANCH   6   9
ATOM      9  C   UNL     1       3.847   3.698  19.355  0.00  0.00    +0.000 A 
ATOM     10  C   UNL     1       4.771   2.660  19.417  0.00  0.00    +0.000 A 
ATOM     11  C   UNL     1       4.450   1.836  20.519  0.00  0.00    +0.000 A 
ATOM     12 CL   UNL     1       5.344   0.492  21.033  0.00  0.00    +0.000 Cl
ATOM     13  C   UNL     1       3.293   2.321  21.069  0.00  0.00    +0.000 A 
ATOM     14  N   UNL     1       2.905   3.415  20.335  0.00  0.00    +0.000 N 
ATOM     15  C   UNL     1       1.686   4.159  20.573  0.00  0.00    +0.000 C 
ENDBRANCH   6   9
BRANCH   1  20
ATOM     16  C   UNL     1       5.650   3.413  13.004  0.00  0.00    +0.000 C 
ATOM     17  C   UNL     1       6.215   4.276  14.057  0.00  0.00    +0.000 A 
ATOM     18  N   UNL     1       7.521   4.540  14.157  0.00  0.00    +0.000 NA
ATOM     19  O   UNL     1       7.575   5.488  15.182  0.00  0.00    +0.000 OA
ATOM     20  C   UNL     1       6.287   5.696  15.585  0.00  0.00    +0.000 A 
ATOM     21  N   UNL     1       5.417   4.942  14.949  0.00  0.00    +0.000 NA
ENDBRANCH   1  20
TORSDOF 2
ENDMDL
MODEL 7
REMARK VINA RESULT:      -6.0      3.064      5.757
REMARK  Name = 
REMARK  4 active torsions:
REMARK  status: ('A' for Active; 'I' for Inactive)
REMARK    1  A    between atoms: C_1  and  C_2
REMARK    2  A    between atoms: C_5  and  C_6
REMARK    3  A    between atoms: C_11  and  C_13
REMARK    4  A    between atoms: N_18  and  C_19
REMARK                            x       y       z     vdW  Elec       q    Type
REMARK                         _______ _______ _______ _____ _____    ______ ____
ROOT
ATOM      1  C   UNL     1       3.935   5.576  19.888  0.00  0.00    +0.000 C 
ATOM      2  C   UNL     1       3.052   6.610  19.162  0.00  0.00    +0.000 C 
ATOM      3  C   UNL     1       3.250   6.564  17.641  0.00  0.00    +0.000 C 
ATOM      4  C   UNL     1       4.729   6.711  17.285  0.00  0.00    +0.000 C 
ATOM      5  N   UNL     1       5.522   5.691  17.974  0.00  0.00    +0.000 N 
ATOM      6  C   UNL     1       6.482   4.850  17.408  0.00  0.00    +0.000 C 
ATOM      7  O   UNL     1       7.285   4.264  18.140  0.00  0.00    +0.000 OA
ATOM      8  C   UNL     1       5.394   5.706  19.435  0.00  0.00    +0.000 C 
ENDROOT
BRANCH   6   9
ATOM      9  C   UNL     1       6.533   4.662  15.963  0.00  0.00    +0.000 A 
ATOM     10  C   UNL     1       7.370   5.223  15.004  0.00  0.00    +0.000 A 
ATOM     11  C   UNL     1       7.013   4.705  13.738  0.00  0.00    +0.000 A 
ATOM     12 CL   UNL     1       7.808   5.043  12.281  0.00  0.00    +0.000 Cl
ATOM     13  C   UNL     1       5.916   3.905  13.918  0.00  0.00    +0.000 A 
ATOM     14  N   UNL     1       5.599   3.920  15.255  0.00  0.00    +0.000 N 
ATOM     15  C   UNL     1       4.453   3.242  15.822  0.00  0.00    +0.000 C 
ENDBRANCH   6   9
BRANCH   1  20
ATOM     16  C   UNL     1       0.937   1.912  18.613  0.00  0.00    +0.000 C 
ATOM     17  C   UNL     1       2.142   2.630  19.068  0.00  0.00    +0.000 A 
ATOM     18  N   UNL     1       3.374   2.128  18.951  0.00  0.00    +0.000 NA
ATOM     19  O   UNL     1       4.188   3.185  19.366  0.00  0.00    +0.000 OA
ATOM     20  C   UNL     1       3.351   4.215  19.685  0.00  0.00    +0.000 A 
ATOM     21  N   UNL     1       2.078   3.908  19.556  0.00  0.00    +0.000 NA
ENDBRANCH   1  20
TORSDOF 2
ENDMDL
MODEL 8
REMARK VINA RESULT:      -5.9      2.898      6.096
REMARK  Name = 
REMARK  4 active torsions:
REMARK  status: ('A' for Active; 'I' for Inactive)
REMARK    1  A    between atoms: C_1  and  C_2
REMARK    2  A    between atoms: C_5  and  C_6
REMARK    3  A    between atoms: C_11  and  C_13
REMARK    4  A    between atoms: N_18  and  C_19
REMARK                            x       y       z     vdW  Elec       q    Type
REMARK                         _______ _______ _______ _____ _____    ______ ____
ROOT
ATOM      1  C   UNL     1       5.196   6.087  18.722  0.00  0.00    +0.000 C 
ATOM      2  C   UNL     1       4.130   7.010  18.101  0.00  0.00    +0.000 C 
ATOM      3  C   UNL     1       3.916   6.714  16.610  0.00  0.00    +0.000 C 
ATOM      4  C   UNL     1       5.242   6.766  15.854  0.00  0.00    +0.000 C 
ATOM      5  N   UNL     1       6.212   5.853  16.462  0.00  0.00    +0.000 N 
ATOM      6  C   UNL     1       7.004   4.909  15.806  0.00  0.00    +0.000 C 
ATOM      7  O   UNL     1       7.985   4.431  16.382  0.00  0.00    +0.000 OA
ATOM      8  C   UNL     1       6.478   6.108  17.883  0.00  0.00    +0.000 C 
ENDROOT
BRANCH   6   9
ATOM      9  C   UNL     1       6.671   4.489  14.450  0.00  0.00    +0.000 A 
ATOM     10  C   UNL     1       5.715   3.592  13.987  0.00  0.00    +0.000 A 
ATOM     11  C   UNL     1       5.789   3.543  12.576  0.00  0.00    +0.000 A 
ATOM     12 CL   UNL     1       4.765   2.645  11.569  0.00  0.00    +0.000 Cl
ATOM     13  C   UNL     1       6.837   4.339  12.194  0.00  0.00    +0.000 A 
ATOM     14  N   UNL     1       7.397   4.870  13.331  0.00  0.00    +0.000 N 
ATOM     15  C   UNL     1       8.575   5.712  13.334  0.00  0.00    +0.000 C 
ENDBRANCH   6   9
BRANCH   1  20
ATOM     16  C   UNL     1       4.536   1.412  20.047  0.00  0.00    +0.000 C 
ATOM     17  C   UNL     1       4.255   2.767  19.538  0.00  0.00    +0.000 A 
ATOM     18  N   UNL     1       3.033   3.306  19.540  0.00  0.00    +0.000 NA
ATOM     19  O   UNL     1       3.262   4.616  19.114  0.00  0.00    +0.000 OA
ATOM     20  C   UNL     1       4.607   4.725  18.906  0.00  0.00    +0.000 A 
ATOM     21  N   UNL     1       5.257   3.600  19.115  0.00  0.00    +0.000 NA
ENDBRANCH   1  20
TORSDOF 2
ENDMDL
MODEL 9
REMARK VINA RESULT:      -5.9      3.358      5.431
REMARK  Name = 
REMARK  4 active torsions:
REMARK  status: ('A' for Active; 'I' for Inactive)
REMARK    1  A    between atoms: C_1  and  C_2
REMARK    2  A    between atoms: C_5  and  C_6
REMARK    3  A    between atoms: C_11  and  C_13
REMARK    4  A    between atoms: N_18  and  C_19
REMARK                            x       y       z     vdW  Elec       q    Type
REMARK                         _______ _______ _______ _____ _____    ______ ____
ROOT
ATOM      1  C   UNL     1       4.813   3.453  18.147  0.00  0.00    +0.000 C 
ATOM      2  C   UNL     1       6.107   4.275  18.301  0.00  0.00    +0.000 C 
ATOM      3  C   UNL     1       5.819   5.724  18.718  0.00  0.00    +0.000 C 
ATOM      4  C   UNL     1       4.827   6.376  17.757  0.00  0.00    +0.000 C 
ATOM      5  N   UNL     1       3.604   5.575  17.666  0.00  0.00    +0.000 N 
ATOM      6  C   UNL     1       2.290   6.034  17.775  0.00  0.00    +0.000 C 
ATOM      7  O   UNL     1       1.362   5.324  17.377  0.00  0.00    +0.000 OA
ATOM      8  C   UNL     1       3.817   4.187  17.242  0.00  0.00    +0.000 C 
ENDROOT
BRANCH   6   9
ATOM      9  C   UNL     1       2.016   7.341  18.360  0.00  0.00    +0.000 A 
ATOM     10  C   UNL     1       2.032   8.611  17.791  0.00  0.00    +0.000 A 
ATOM     11  C   UNL     1       1.683   9.553  18.785  0.00  0.00    +0.000 A 
ATOM     12 CL   UNL     1       1.497  11.219  18.537  0.00  0.00    +0.000 Cl
ATOM     13  C   UNL     1       1.541   8.870  19.965  0.00  0.00    +0.000 A 
ATOM     14  N   UNL     1       1.790   7.543  19.713  0.00  0.00    +0.000 N 
ATOM     15  C   UNL     1       1.800   6.515  20.733  0.00  0.00    +0.000 C 
ENDBRANCH   6   9
BRANCH   1  20
ATOM     16  C   UNL     1       1.785   2.516  21.888  0.00  0.00    +0.000 C 
ATOM     17  C   UNL     1       3.023   2.633  21.095  0.00  0.00    +0.000 A 
ATOM     18  N   UNL     1       4.114   1.902  21.339  0.00  0.00    +0.000 NA
ATOM     19  O   UNL     1       4.962   2.235  20.279  0.00  0.00    +0.000 OA
ATOM     20  C   UNL     1       4.281   3.131  19.506  0.00  0.00    +0.000 A 
ATOM     21  N   UNL     1       3.097   3.439  19.990  0.00  0.00    +0.000 NA
ENDBRANCH   1  20
TORSDOF 2
ENDMDL
