MODEL 1
REMARK VINA RESULT:      -8.8      0.000      0.000
REMARK  Name = 
REMARK  6 active torsions:
REMARK  status: ('A' for Active; 'I' for Inactive)
REMARK    1  A    between atoms: C_2  and  C_3
REMARK    2  A    between atoms: C_5  and  S_6
REMARK    3  A    between atoms: S_6  and  N_9
REMARK    4  A    between atoms: C_18  and  O_19
REMARK    5  A    between atoms: O_19  and  C_20
REMARK    6  A    between atoms: C_25  and  C_26
REMARK                            x       y       z     vdW  Elec       q    Type
REMARK                         _______ _______ _______ _____ _____    ______ ____
ROOT
ATOM      1  C   UNL     1       2.752   7.680  18.623  0.00  0.00    +0.000 A 
ATOM      2  C   UNL     1       2.101   8.925  18.611  0.00  0.00    +0.000 A 
ATOM      3  C   UNL     1       1.224   9.271  19.639  0.00  0.00    +0.000 A 
ATOM      4  C   UNL     1       0.969   8.373  20.680  0.00  0.00    +0.000 A 
ATOM      5  C   UNL     1       1.659   7.158  20.725  0.00  0.00    +0.000 A 
ATOM      6  C   UNL     1       2.583   6.820  19.724  0.00  0.00    +0.000 A 
ENDROOT
BRANCH   3   7
ATOM      7  S   UNL     1       0.295  10.785  19.528  0.00  0.00    +0.000 S 
ATOM      8  O   UNL     1       0.869  11.559  18.446  0.00  0.00    +0.000 OA
ATOM      9  O   UNL     1      -1.105  10.428  19.531  0.00  0.00    +0.000 OA
BRANCH   7  10
ATOM     10  N   UNL     1       0.745  11.579  20.956  0.00  0.00    +0.000 N 
ATOM     11  C   UNL     1      -0.388  11.883  21.744  0.00  0.00    +0.000 A 
ATOM     12  N   UNL     1      -0.886  13.094  21.703  0.00  0.00    +0.000 NA
ATOM     13  C   UNL     1      -2.012  13.127  22.510  0.00  0.00    +0.000 A 
ATOM     14  C   UNL     1      -2.250  11.974  23.216  0.00  0.00    +0.000 A 
ATOM     15  F   UNL     1      -3.236  11.813  24.058  0.00  0.00    +0.000 F 
ATOM     16  S   UNL     1      -1.093  10.787  22.853  0.00  0.00    +0.000 S 
ATOM     17  H   UNL     1       1.165  12.460  20.651  0.00  0.00    +0.000 HD
ENDBRANCH   7  10
ENDBRANCH   3   7
BRANCH   1  19
ATOM     18  N   UNL     1       4.228   7.120  16.565  0.00  0.00    +0.000 NA
ATOM     19  C   UNL     1       3.539   7.343  17.471  0.00  0.00    +0.000 C 
ENDBRANCH   1  19
BRANCH   6  20
ATOM     20  O   UNL     1       3.199   5.595  19.904  0.00  0.00    +0.000 OA
BRANCH  20  21
ATOM     21  C   UNL     1       2.590   4.431  19.462  0.00  0.00    +0.000 A 
ATOM     22  C   UNL     1       1.290   4.090  19.892  0.00  0.00    +0.000 A 
ATOM     23  C   UNL     1       0.713   2.875  19.536  0.00  0.00    +0.000 A 
ATOM     24  C   UNL     1       1.398   2.017  18.693  0.00  0.00    +0.000 A 
ATOM     25  C   UNL     1       2.650   2.386  18.193  0.00  0.00    +0.000 A 
ATOM     26  C   UNL     1       3.280   3.607  18.536  0.00  0.00    +0.000 A 
BRANCH  26  27
ATOM     27  C   UNL     1       4.591   3.941  17.895  0.00  0.00    +0.000 A 
ATOM     28  C   UNL     1       4.788   3.735  16.509  0.00  0.00    +0.000 A 
ATOM     29  C   UNL     1       6.008   4.006  15.878  0.00  0.00    +0.000 A 
ATOM     30  C   UNL     1       7.066   4.524  16.611  0.00  0.00    +0.000 A 
ATOM     31  C   UNL     1       6.905   4.752  17.974  0.00  0.00    +0.000 A 
ATOM     32  C   UNL     1       5.690   4.449  18.607  0.00  0.00    +0.000 A 
ENDBRANCH  26  27
ENDBRANCH  20  21
ENDBRANCH   6  20
TORSDOF 6
ENDMDL
MODEL 2
REMARK VINA RESULT:      -8.7      3.520      8.875
REMARK  Name = 
REMARK  6 active torsions:
REMARK  status: ('A' for Active; 'I' for Inactive)
REMARK    1  A    between atoms: C_2  and  C_3
REMARK    2  A    between atoms: C_5  and  S_6
REMARK    3  A    between atoms: S_6  and  N_9
REMARK    4  A    between atoms: C_18  and  O_19
REMARK    5  A    between atoms: O_19  and  C_20
REMARK    6  A    between atoms: C_25  and  C_26
REMARK                            x       y       z     vdW  Elec       q    Type
REMARK                         _______ _______ _______ _____ _____    ______ ____
ROOT
ATOM      1  C   UNL     1       1.088   8.828  20.071  0.00  0.00    +0.000 A 
ATOM      2  C   UNL     1       1.921   7.711  19.886  0.00  0.00    +0.000 A 
ATOM      3  C   UNL     1       2.603   7.532  18.683  0.00  0.00    +0.000 A 
ATOM      4  C   UNL     1       2.447   8.452  17.641  0.00  0.00    +0.000 A 
ATOM      5  C   UNL     1       1.665   9.594  17.843  0.00  0.00    +0.000 A 
ATOM      6  C   UNL     1       1.016   9.812  19.067  0.00  0.00    +0.000 A 
ENDROOT
BRANCH   3   7
ATOM      7  S   UNL     1       3.530   6.038  18.413  0.00  0.00    +0.000 S 
ATOM      8  O   UNL     1       4.294   6.222  17.196  0.00  0.00    +0.000 OA
ATOM      9  O   UNL     1       4.179   5.707  19.660  0.00  0.00    +0.000 OA
BRANCH   7  10
ATOM     10  N   UNL     1       2.305   4.930  18.028  0.00  0.00    +0.000 N 
ATOM     11  C   UNL     1       2.099   4.016  19.087  0.00  0.00    +0.000 A 
ATOM     12  N   UNL     1       2.643   2.827  19.016  0.00  0.00    +0.000 NA
ATOM     13  C   UNL     1       2.344   2.144  20.184  0.00  0.00    +0.000 A 
ATOM     14  C   UNL     1       1.492   2.803  21.036  0.00  0.00    +0.000 A 
ATOM     15  F   UNL     1       1.060   2.318  22.169  0.00  0.00    +0.000 F 
ATOM     16  S   UNL     1       1.075   4.328  20.421  0.00  0.00    +0.000 S 
ATOM     17  H   UNL     1       2.660   4.408  17.223  0.00  0.00    +0.000 HD
ENDBRANCH   7  10
ENDBRANCH   3   7
BRANCH   1  19
ATOM     18  N   UNL     1      -0.297   8.843  22.264  0.00  0.00    +0.000 NA
ATOM     19  C   UNL     1       0.321   8.879  21.283  0.00  0.00    +0.000 C 
ENDBRANCH   1  19
BRANCH   6  20
ATOM     20  O   UNL     1       0.288  10.986  19.128  0.00  0.00    +0.000 OA
BRANCH  20  21
ATOM     21  C   UNL     1      -1.048  11.005  18.760  0.00  0.00    +0.000 A 
ATOM     22  C   UNL     1      -1.522  10.170  17.727  0.00  0.00    +0.000 A 
ATOM     23  C   UNL     1      -2.838  10.256  17.283  0.00  0.00    +0.000 A 
ATOM     24  C   UNL     1      -3.712  11.129  17.907  0.00  0.00    +0.000 A 
ATOM     25  C   UNL     1      -3.272  11.899  18.988  0.00  0.00    +0.000 A 
ATOM     26  C   UNL     1      -1.940  11.852  19.468  0.00  0.00    +0.000 A 
BRANCH  26  27
ATOM     27  C   UNL     1      -1.584  12.664  20.674  0.00  0.00    +0.000 A 
ATOM     28  C   UNL     1      -1.647  12.097  21.968  0.00  0.00    +0.000 A 
ATOM     29  C   UNL     1      -1.352  12.832  23.122  0.00  0.00    +0.000 A 
ATOM     30  C   UNL     1      -0.952  14.157  23.016  0.00  0.00    +0.000 A 
ATOM     31  C   UNL     1      -0.867  14.745  21.758  0.00  0.00    +0.000 A 
ATOM     32  C   UNL     1      -1.193  14.012  20.607  0.00  0.00    +0.000 A 
ENDBRANCH  26  27
ENDBRANCH  20  21
ENDBRANCH   6  20
TORSDOF 6
ENDMDL
MODEL 3
REMARK VINA RESULT:      -8.5      3.961      9.323
REMARK  Name = 
REMARK  6 active torsions:
REMARK  status: ('A' for Active; 'I' for Inactive)
REMARK    1  A    between atoms: C_2  and  C_3
REMARK    2  A    between atoms: C_5  and  S_6
REMARK    3  A    between atoms: S_6  and  N_9
REMARK    4  A    between atoms: C_18  and  O_19
REMARK    5  A    between atoms: O_19  and  C_20
REMARK    6  A    between atoms: C_25  and  C_26
REMARK                            x       y       z     vdW  Elec       q    Type
REMARK                         _______ _______ _______ _____ _____    ______ ____
ROOT
ATOM      1  C   UNL     1       1.033   8.631  20.473  0.00  0.00    +0.000 A 
ATOM      2  C   UNL     1       1.762   7.429  20.470  0.00  0.00    +0.000 A 
ATOM      3  C   UNL     1       2.445   7.022  19.323  0.00  0.00    +0.000 A 
ATOM      4  C   UNL     1       2.391   7.795  18.160  0.00  0.00    +0.000 A 
ATOM      5  C   UNL     1       1.715   9.019  18.177  0.00  0.00    +0.000 A 
ATOM      6  C   UNL     1       1.068   9.465  19.340  0.00  0.00    +0.000 A 
ENDROOT
BRANCH   3   7
ATOM      7  S   UNL     1       3.233   5.427  19.292  0.00  0.00    +0.000 S 
ATOM      8  O   UNL     1       2.797   4.712  20.473  0.00  0.00    +0.000 OA
ATOM      9  O   UNL     1       3.036   4.879  17.971  0.00  0.00    +0.000 OA
BRANCH   7  10
ATOM     10  N   UNL     1       4.856   5.833  19.570  0.00  0.00    +0.000 N 
ATOM     11  C   UNL     1       5.652   5.534  18.440  0.00  0.00    +0.000 A 
ATOM     12  N   UNL     1       6.349   4.426  18.428  0.00  0.00    +0.000 NA
ATOM     13  C   UNL     1       6.995   4.334  17.205  0.00  0.00    +0.000 A 
ATOM     14  C   UNL     1       6.851   5.431  16.393  0.00  0.00    +0.000 A 
ATOM     15  F   UNL     1       7.408   5.558  15.218  0.00  0.00    +0.000 F 
ATOM     16  S   UNL     1       5.855   6.599  17.116  0.00  0.00    +0.000 S 
ATOM     17  H   UNL     1       5.156   5.228  20.337  0.00  0.00    +0.000 HD
ENDBRANCH   7  10
ENDBRANCH   3   7
BRANCH   1  19
ATOM     18  N   UNL     1      -0.384   9.080  22.598  0.00  0.00    +0.000 NA
ATOM     19  C   UNL     1       0.255   8.921  21.643  0.00  0.00    +0.000 C 
ENDBRANCH   1  19
BRANCH   6  20
ATOM     20  O   UNL     1       0.452  10.697  19.215  0.00  0.00    +0.000 OA
BRANCH  20  21
ATOM     21  C   UNL     1      -0.853  10.786  18.756  0.00  0.00    +0.000 A 
ATOM     22  C   UNL     1      -1.305   9.961  17.705  0.00  0.00    +0.000 A 
ATOM     23  C   UNL     1      -2.579  10.115  17.170  0.00  0.00    +0.000 A 
ATOM     24  C   UNL     1      -3.441  11.048  17.720  0.00  0.00    +0.000 A 
ATOM     25  C   UNL     1      -3.031  11.810  18.818  0.00  0.00    +0.000 A 
ATOM     26  C   UNL     1      -1.740  11.694  19.389  0.00  0.00    +0.000 A 
BRANCH  26  27
ATOM     27  C   UNL     1      -1.420  12.506  20.606  0.00  0.00    +0.000 A 
ATOM     28  C   UNL     1      -0.722  13.731  20.491  0.00  0.00    +0.000 A 
ATOM     29  C   UNL     1      -0.377  14.504  21.606  0.00  0.00    +0.000 A 
ATOM     30  C   UNL     1      -0.750  14.089  22.877  0.00  0.00    +0.000 A 
ATOM     31  C   UNL     1      -1.449  12.896  23.028  0.00  0.00    +0.000 A 
ATOM     32  C   UNL     1      -1.765  12.110  21.909  0.00  0.00    +0.000 A 
ENDBRANCH  26  27
ENDBRANCH  20  21
ENDBRANCH   6  20
TORSDOF 6
ENDMDL
MODEL 4
REMARK VINA RESULT:      -8.5      2.295      2.819
REMARK  Name = 
REMARK  6 active torsions:
REMARK  status: ('A' for Active; 'I' for Inactive)
REMARK    1  A    between atoms: C_2  and  C_3
REMARK    2  A    between atoms: C_5  and  S_6
REMARK    3  A    between atoms: S_6  and  N_9
REMARK    4  A    between atoms: C_18  and  O_19
REMARK    5  A    between atoms: O_19  and  C_20
REMARK    6  A    between atoms: C_25  and  C_26
REMARK                            x       y       z     vdW  Elec       q    Type
REMARK                         _______ _______ _______ _____ _____    ______ ____
ROOT
ATOM      1  C   UNL     1       2.649   7.785  18.694  0.00  0.00    +0.000 A 
ATOM      2  C   UNL     1       1.991   9.024  18.782  0.00  0.00    +0.000 A 
ATOM      3  C   UNL     1       1.169   9.309  19.874  0.00  0.00    +0.000 A 
ATOM      4  C   UNL     1       0.977   8.355  20.878  0.00  0.00    +0.000 A 
ATOM      5  C   UNL     1       1.676   7.145  20.822  0.00  0.00    +0.000 A 
ATOM      6  C   UNL     1       2.545   6.868  19.756  0.00  0.00    +0.000 A 
ENDROOT
BRANCH   3   7
ATOM      7  S   UNL     1       0.228  10.818  19.892  0.00  0.00    +0.000 S 
ATOM      8  O   UNL     1      -1.045  10.519  20.516  0.00  0.00    +0.000 OA
ATOM      9  O   UNL     1       1.090  11.853  20.412  0.00  0.00    +0.000 OA
BRANCH   7  10
ATOM     10  N   UNL     1      -0.106  11.044  18.245  0.00  0.00    +0.000 N 
ATOM     11  C   UNL     1      -1.462  10.763  17.961  0.00  0.00    +0.000 A 
ATOM     12  N   UNL     1      -1.778   9.598  17.454  0.00  0.00    +0.000 NA
ATOM     13  C   UNL     1      -3.157   9.544  17.318  0.00  0.00    +0.000 A 
ATOM     14  C   UNL     1      -3.812  10.713  17.619  0.00  0.00    +0.000 A 
ATOM     15  F   UNL     1      -5.104  10.881  17.522  0.00  0.00    +0.000 F 
ATOM     16  S   UNL     1      -2.722  11.908  18.133  0.00  0.00    +0.000 S 
ATOM     17  H   UNL     1       0.469  10.352  17.758  0.00  0.00    +0.000 HD
ENDBRANCH   7  10
ENDBRANCH   3   7
BRANCH   1  19
ATOM     18  N   UNL     1       3.925   7.358  16.477  0.00  0.00    +0.000 NA
ATOM     19  C   UNL     1       3.373   7.514  17.485  0.00  0.00    +0.000 C 
ENDBRANCH   1  19
BRANCH   6  20
ATOM     20  O   UNL     1       3.176   5.640  19.837  0.00  0.00    +0.000 OA
BRANCH  20  21
ATOM     21  C   UNL     1       2.535   4.490  19.405  0.00  0.00    +0.000 A 
ATOM     22  C   UNL     1       1.247   4.163  19.878  0.00  0.00    +0.000 A 
ATOM     23  C   UNL     1       0.640   2.961  19.529  0.00  0.00    +0.000 A 
ATOM     24  C   UNL     1       1.281   2.102  18.654  0.00  0.00    +0.000 A 
ATOM     25  C   UNL     1       2.520   2.459  18.113  0.00  0.00    +0.000 A 
ATOM     26  C   UNL     1       3.180   3.666  18.447  0.00  0.00    +0.000 A 
BRANCH  26  27
ATOM     27  C   UNL     1       4.472   3.989  17.763  0.00  0.00    +0.000 A 
ATOM     28  C   UNL     1       5.602   4.393  18.512  0.00  0.00    +0.000 A 
ATOM     29  C   UNL     1       6.818   4.732  17.907  0.00  0.00    +0.000 A 
ATOM     30  C   UNL     1       6.954   4.647  16.528  0.00  0.00    +0.000 A 
ATOM     31  C   UNL     1       5.868   4.240  15.761  0.00  0.00    +0.000 A 
ATOM     32  C   UNL     1       4.642   3.931  16.370  0.00  0.00    +0.000 A 
ENDBRANCH  26  27
ENDBRANCH  20  21
ENDBRANCH   6  20
TORSDOF 6
ENDMDL
MODEL 5
REMARK VINA RESULT:      -8.4      2.255      2.379
REMARK  Name = 
REMARK  6 active torsions:
REMARK  status: ('A' for Active; 'I' for Inactive)
REMARK    1  A    between atoms: C_2  and  C_3
REMARK    2  A    between atoms: C_5  and  S_6
REMARK    3  A    between atoms: S_6  and  N_9
REMARK    4  A    between atoms: C_18  and  O_19
REMARK    5  A    between atoms: O_19  and  C_20
REMARK    6  A    between atoms: C_25  and  C_26
REMARK                            x       y       z     vdW  Elec       q    Type
REMARK                         _______ _______ _______ _____ _____    ______ ____
ROOT
ATOM      1  C   UNL     1       2.620   7.774  18.557  0.00  0.00    +0.000 A 
ATOM      2  C   UNL     1       1.888   8.971  18.470  0.00  0.00    +0.000 A 
ATOM      3  C   UNL     1       0.983   9.317  19.474  0.00  0.00    +0.000 A 
ATOM      4  C   UNL     1       0.780   8.464  20.564  0.00  0.00    +0.000 A 
ATOM      5  C   UNL     1       1.548   7.302  20.681  0.00  0.00    +0.000 A 
ATOM      6  C   UNL     1       2.500   6.970  19.705  0.00  0.00    +0.000 A 
ENDROOT
BRANCH   3   7
ATOM      7  S   UNL     1      -0.043  10.757  19.272  0.00  0.00    +0.000 S 
ATOM      8  O   UNL     1      -1.146  10.378  18.412  0.00  0.00    +0.000 OA
ATOM      9  O   UNL     1      -0.275  11.303  20.588  0.00  0.00    +0.000 OA
BRANCH   7  10
ATOM     10  N   UNL     1       0.948  11.765  18.337  0.00  0.00    +0.000 N 
ATOM     11  C   UNL     1       1.121  13.022  18.960  0.00  0.00    +0.000 A 
ATOM     12  N   UNL     1       0.396  14.036  18.559  0.00  0.00    +0.000 NA
ATOM     13  C   UNL     1       0.706  15.131  19.351  0.00  0.00    +0.000 A 
ATOM     14  C   UNL     1       1.735  14.928  20.237  0.00  0.00    +0.000 A 
ATOM     15  F   UNL     1       2.204  15.841  21.045  0.00  0.00    +0.000 F 
ATOM     16  S   UNL     1       2.316  13.337  20.143  0.00  0.00    +0.000 S 
ATOM     17  H   UNL     1       0.434  11.912  17.465  0.00  0.00    +0.000 HD
ENDBRANCH   7  10
ENDBRANCH   3   7
BRANCH   1  19
ATOM     18  N   UNL     1       4.157   7.162  16.559  0.00  0.00    +0.000 NA
ATOM     19  C   UNL     1       3.436   7.425  17.429  0.00  0.00    +0.000 C 
ENDBRANCH   1  19
BRANCH   6  20
ATOM     20  O   UNL     1       3.193   5.800  19.957  0.00  0.00    +0.000 OA
BRANCH  20  21
ATOM     21  C   UNL     1       2.641   4.571  19.632  0.00  0.00    +0.000 A 
ATOM     22  C   UNL     1       1.365   4.206  20.112  0.00  0.00    +0.000 A 
ATOM     23  C   UNL     1       0.848   2.937  19.876  0.00  0.00    +0.000 A 
ATOM     24  C   UNL     1       1.566   2.040  19.105  0.00  0.00    +0.000 A 
ATOM     25  C   UNL     1       2.793   2.424  18.554  0.00  0.00    +0.000 A 
ATOM     26  C   UNL     1       3.363   3.702  18.775  0.00  0.00    +0.000 A 
BRANCH  26  27
ATOM     27  C   UNL     1       4.648   4.041  18.086  0.00  0.00    +0.000 A 
ATOM     28  C   UNL     1       4.817   3.777  16.706  0.00  0.00    +0.000 A 
ATOM     29  C   UNL     1       6.013   4.052  16.033  0.00  0.00    +0.000 A 
ATOM     30  C   UNL     1       7.074   4.631  16.714  0.00  0.00    +0.000 A 
ATOM     31  C   UNL     1       6.940   4.916  18.069  0.00  0.00    +0.000 A 
ATOM     32  C   UNL     1       5.749   4.611  18.746  0.00  0.00    +0.000 A 
ENDBRANCH  26  27
ENDBRANCH  20  21
ENDBRANCH   6  20
TORSDOF 6
ENDMDL
MODEL 6
REMARK VINA RESULT:      -8.3      2.606      3.059
REMARK  Name = 
REMARK  6 active torsions:
REMARK  status: ('A' for Active; 'I' for Inactive)
REMARK    1  A    between atoms: C_2  and  C_3
REMARK    2  A    between atoms: C_5  and  S_6
REMARK    3  A    between atoms: S_6  and  N_9
REMARK    4  A    between atoms: C_18  and  O_19
REMARK    5  A    between atoms: O_19  and  C_20
REMARK    6  A    between atoms: C_25  and  C_26
REMARK                            x       y       z     vdW  Elec       q    Type
REMARK                         _______ _______ _______ _____ _____    ______ ____
ROOT
ATOM      1  C   UNL     1       2.681   7.755  18.620  0.00  0.00    +0.000 A 
ATOM      2  C   UNL     1       1.979   8.973  18.618  0.00  0.00    +0.000 A 
ATOM      3  C   UNL     1       1.102   9.282  19.659  0.00  0.00    +0.000 A 
ATOM      4  C   UNL     1       0.898   8.373  20.701  0.00  0.00    +0.000 A 
ATOM      5  C   UNL     1       1.638   7.187  20.735  0.00  0.00    +0.000 A 
ATOM      6  C   UNL     1       2.561   6.888  19.722  0.00  0.00    +0.000 A 
ENDROOT
BRANCH   3   7
ATOM      7  S   UNL     1       0.111  10.756  19.562  0.00  0.00    +0.000 S 
ATOM      8  O   UNL     1       0.204  11.419  20.846  0.00  0.00    +0.000 OA
ATOM      9  O   UNL     1       0.477  11.437  18.341  0.00  0.00    +0.000 OA
BRANCH   7  10
ATOM     10  N   UNL     1      -1.459  10.120  19.481  0.00  0.00    +0.000 N 
ATOM     11  C   UNL     1      -2.101  10.508  18.283  0.00  0.00    +0.000 A 
ATOM     12  N   UNL     1      -2.942  11.511  18.308  0.00  0.00    +0.000 NA
ATOM     13  C   UNL     1      -3.393  11.731  17.016  0.00  0.00    +0.000 A 
ATOM     14  C   UNL     1      -2.963  10.810  16.091  0.00  0.00    +0.000 A 
ATOM     15  F   UNL     1      -3.303  10.818  14.830  0.00  0.00    +0.000 F 
ATOM     16  S   UNL     1      -1.935   9.664  16.804  0.00  0.00    +0.000 S 
ATOM     17  H   UNL     1      -1.961  10.547  20.263  0.00  0.00    +0.000 HD
ENDBRANCH   7  10
ENDBRANCH   3   7
BRANCH   1  19
ATOM     18  N   UNL     1       4.063   7.263  16.481  0.00  0.00    +0.000 NA
ATOM     19  C   UNL     1       3.465   7.451  17.457  0.00  0.00    +0.000 C 
ENDBRANCH   1  19
BRANCH   6  20
ATOM     20  O   UNL     1       3.228   5.689  19.891  0.00  0.00    +0.000 OA
BRANCH  20  21
ATOM     21  C   UNL     1       2.635   4.494  19.515  0.00  0.00    +0.000 A 
ATOM     22  C   UNL     1       1.354   4.145  19.992  0.00  0.00    +0.000 A 
ATOM     23  C   UNL     1       0.795   2.905  19.702  0.00  0.00    +0.000 A 
ATOM     24  C   UNL     1       1.477   2.026  18.880  0.00  0.00    +0.000 A 
ATOM     25  C   UNL     1       2.709   2.398  18.333  0.00  0.00    +0.000 A 
ATOM     26  C   UNL     1       3.320   3.646  18.608  0.00  0.00    +0.000 A 
BRANCH  26  27
ATOM     27  C   UNL     1       4.608   3.979  17.921  0.00  0.00    +0.000 A 
ATOM     28  C   UNL     1       5.705   4.489  18.654  0.00  0.00    +0.000 A 
ATOM     29  C   UNL     1       6.914   4.840  18.043  0.00  0.00    +0.000 A 
ATOM     30  C   UNL     1       7.077   4.663  16.676  0.00  0.00    +0.000 A 
ATOM     31  C   UNL     1       6.024   4.152  15.925  0.00  0.00    +0.000 A 
ATOM     32  C   UNL     1       4.803   3.830  16.538  0.00  0.00    +0.000 A 
ENDBRANCH  26  27
ENDBRANCH  20  21
ENDBRANCH   6  20
TORSDOF 6
ENDMDL
MODEL 7
REMARK VINA RESULT:      -8.3      1.080      1.405
REMARK  Name = 
REMARK  6 active torsions:
REMARK  status: ('A' for Active; 'I' for Inactive)
REMARK    1  A    between atoms: C_2  and  C_3
REMARK    2  A    between atoms: C_5  and  S_6
REMARK    3  A    between atoms: S_6  and  N_9
REMARK    4  A    between atoms: C_18  and  O_19
REMARK    5  A    between atoms: O_19  and  C_20
REMARK    6  A    between atoms: C_25  and  C_26
REMARK                            x       y       z     vdW  Elec       q    Type
REMARK                         _______ _______ _______ _____ _____    ______ ____
ROOT
ATOM      1  C   UNL     1       2.647   7.679  18.742  0.00  0.00    +0.000 A 
ATOM      2  C   UNL     1       1.970   8.910  18.790  0.00  0.00    +0.000 A 
ATOM      3  C   UNL     1       1.109   9.199  19.850  0.00  0.00    +0.000 A 
ATOM      4  C   UNL     1       0.895   8.256  20.860  0.00  0.00    +0.000 A 
ATOM      5  C   UNL     1       1.611   7.055  20.844  0.00  0.00    +0.000 A 
ATOM      6  C   UNL     1       2.520   6.775  19.812  0.00  0.00    +0.000 A 
ENDROOT
BRANCH   3   7
ATOM      7  S   UNL     1       0.147  10.695  19.815  0.00  0.00    +0.000 S 
ATOM      8  O   UNL     1       1.059  11.795  20.056  0.00  0.00    +0.000 OA
ATOM      9  O   UNL     1      -0.671  10.649  18.626  0.00  0.00    +0.000 OA
BRANCH   7  10
ATOM     10  N   UNL     1      -0.782  10.547  21.226  0.00  0.00    +0.000 N 
ATOM     11  C   UNL     1      -1.144  11.819  21.727  0.00  0.00    +0.000 A 
ATOM     12  N   UNL     1      -0.456  12.332  22.716  0.00  0.00    +0.000 NA
ATOM     13  C   UNL     1      -0.964  13.592  22.990  0.00  0.00    +0.000 A 
ATOM     14  C   UNL     1      -2.087  13.928  22.275  0.00  0.00    +0.000 A 
ATOM     15  F   UNL     1      -2.738  15.053  22.409  0.00  0.00    +0.000 F 
ATOM     16  S   UNL     1      -2.516  12.692  21.195  0.00  0.00    +0.000 S 
ATOM     17  H   UNL     1      -0.165  10.101  21.907  0.00  0.00    +0.000 HD
ENDBRANCH   7  10
ENDBRANCH   3   7
BRANCH   1  19
ATOM     18  N   UNL     1       4.100   7.185  16.650  0.00  0.00    +0.000 NA
ATOM     19  C   UNL     1       3.415   7.403  17.561  0.00  0.00    +0.000 C 
ENDBRANCH   1  19
BRANCH   6  20
ATOM     20  O   UNL     1       3.164   5.558  19.932  0.00  0.00    +0.000 OA
BRANCH  20  21
ATOM     21  C   UNL     1       2.563   4.396  19.472  0.00  0.00    +0.000 A 
ATOM     22  C   UNL     1       1.264   4.042  19.893  0.00  0.00    +0.000 A 
ATOM     23  C   UNL     1       0.695   2.830  19.517  0.00  0.00    +0.000 A 
ATOM     24  C   UNL     1       1.388   1.987  18.666  0.00  0.00    +0.000 A 
ATOM     25  C   UNL     1       2.640   2.369  18.176  0.00  0.00    +0.000 A 
ATOM     26  C   UNL     1       3.262   3.589  18.538  0.00  0.00    +0.000 A 
BRANCH  26  27
ATOM     27  C   UNL     1       4.574   3.938  17.907  0.00  0.00    +0.000 A 
ATOM     28  C   UNL     1       5.634   4.455  18.688  0.00  0.00    +0.000 A 
ATOM     29  C   UNL     1       6.865   4.822  18.130  0.00  0.00    +0.000 A 
ATOM     30  C   UNL     1       7.086   4.655  16.771  0.00  0.00    +0.000 A 
ATOM     31  C   UNL     1       6.071   4.137  15.973  0.00  0.00    +0.000 A 
ATOM     32  C   UNL     1       4.828   3.799  16.533  0.00  0.00    +0.000 A 
ENDBRANCH  26  27
ENDBRANCH  20  21
ENDBRANCH   6  20
TORSDOF 6
ENDMDL
MODEL 8
REMARK VINA RESULT:      -8.2      4.032      9.446
REMARK  Name = 
REMARK  6 active torsions:
REMARK  status: ('A' for Active; 'I' for Inactive)
REMARK    1  A    between atoms: C_2  and  C_3
REMARK    2  A    between atoms: C_5  and  S_6
REMARK    3  A    between atoms: S_6  and  N_9
REMARK    4  A    between atoms: C_18  and  O_19
REMARK    5  A    between atoms: O_19  and  C_20
REMARK    6  A    between atoms: C_25  and  C_26
REMARK                            x       y       z     vdW  Elec       q    Type
REMARK                         _______ _______ _______ _____ _____    ______ ____
ROOT
ATOM      1  C   UNL     1       0.991   8.878  20.348  0.00  0.00    +0.000 A 
ATOM      2  C   UNL     1       1.753   7.711  20.163  0.00  0.00    +0.000 A 
ATOM      3  C   UNL     1       2.296   7.415  18.912  0.00  0.00    +0.000 A 
ATOM      4  C   UNL     1       2.066   8.265  17.826  0.00  0.00    +0.000 A 
ATOM      5  C   UNL     1       1.357   9.454  18.020  0.00  0.00    +0.000 A 
ATOM      6  C   UNL     1       0.851   9.789  19.285  0.00  0.00    +0.000 A 
ENDROOT
BRANCH   3   7
ATOM      7  S   UNL     1       3.127   5.862  18.662  0.00  0.00    +0.000 S 
ATOM      8  O   UNL     1       4.072   5.704  19.749  0.00  0.00    +0.000 OA
ATOM      9  O   UNL     1       2.110   4.870  18.405  0.00  0.00    +0.000 OA
BRANCH   7  10
ATOM     10  N   UNL     1       4.059   6.181  17.282  0.00  0.00    +0.000 N 
ATOM     11  C   UNL     1       5.408   5.811  17.487  0.00  0.00    +0.000 A 
ATOM     12  N   UNL     1       6.282   6.735  17.798  0.00  0.00    +0.000 NA
ATOM     13  C   UNL     1       7.509   6.122  17.999  0.00  0.00    +0.000 A 
ATOM     14  C   UNL     1       7.535   4.778  17.715  0.00  0.00    +0.000 A 
ATOM     15  F   UNL     1       8.599   4.026  17.804  0.00  0.00    +0.000 F 
ATOM     16  S   UNL     1       6.004   4.227  17.236  0.00  0.00    +0.000 S 
ATOM     17  H   UNL     1       4.024   7.197  17.164  0.00  0.00    +0.000 HD
ENDBRANCH   7  10
ENDBRANCH   3   7
BRANCH   1  19
ATOM     18  N   UNL     1      -0.215   9.175  22.624  0.00  0.00    +0.000 NA
ATOM     19  C   UNL     1       0.361   9.051  21.625  0.00  0.00    +0.000 C 
ENDBRANCH   1  19
BRANCH   6  20
ATOM     20  O   UNL     1       0.182  10.999  19.332  0.00  0.00    +0.000 OA
BRANCH  20  21
ATOM     21  C   UNL     1      -1.146  11.083  18.946  0.00  0.00    +0.000 A 
ATOM     22  C   UNL     1      -1.644  10.278  17.899  0.00  0.00    +0.000 A 
ATOM     23  C   UNL     1      -2.947  10.429  17.437  0.00  0.00    +0.000 A 
ATOM     24  C   UNL     1      -3.789  11.337  18.056  0.00  0.00    +0.000 A 
ATOM     25  C   UNL     1      -3.330  12.076  19.150  0.00  0.00    +0.000 A 
ATOM     26  C   UNL     1      -2.009  11.963  19.648  0.00  0.00    +0.000 A 
BRANCH  26  27
ATOM     27  C   UNL     1      -1.633  12.749  20.866  0.00  0.00    +0.000 A 
ATOM     28  C   UNL     1      -1.920  12.252  22.160  0.00  0.00    +0.000 A 
ATOM     29  C   UNL     1      -1.613  12.970  23.321  0.00  0.00    +0.000 A 
ATOM     30  C   UNL     1      -0.977  14.200  23.228  0.00  0.00    +0.000 A 
ATOM     31  C   UNL     1      -0.668  14.714  21.973  0.00  0.00    +0.000 A 
ATOM     32  C   UNL     1      -1.006  14.004  20.810  0.00  0.00    +0.000 A 
ENDBRANCH  26  27
ENDBRANCH  20  21
ENDBRANCH   6  20
TORSDOF 6
ENDMDL
MODEL 9
REMARK VINA RESULT:      -8.2      3.533      9.248
REMARK  Name = 
REMARK  6 active torsions:
REMARK  status: ('A' for Active; 'I' for Inactive)
REMARK    1  A    between atoms: C_2  and  C_3
REMARK    2  A    between atoms: C_5  and  S_6
REMARK    3  A    between atoms: S_6  and  N_9
REMARK    4  A    between atoms: C_18  and  O_19
REMARK    5  A    between atoms: O_19  and  C_20
REMARK    6  A    between atoms: C_25  and  C_26
REMARK                            x       y       z     vdW  Elec       q    Type
REMARK                         _______ _______ _______ _____ _____    ______ ____
ROOT
ATOM      1  C   UNL     1       1.200   8.995  20.379  0.00  0.00    +0.000 A 
ATOM      2  C   UNL     1       1.992   7.878  20.060  0.00  0.00    +0.000 A 
ATOM      3  C   UNL     1       2.444   7.685  18.754  0.00  0.00    +0.000 A 
ATOM      4  C   UNL     1       2.094   8.588  17.746  0.00  0.00    +0.000 A 
ATOM      5  C   UNL     1       1.355   9.730  18.072  0.00  0.00    +0.000 A 
ATOM      6  C   UNL     1       0.939   9.963  19.391  0.00  0.00    +0.000 A 
ENDROOT
BRANCH   3   7
ATOM      7  S   UNL     1       3.315   6.189  18.341  0.00  0.00    +0.000 S 
ATOM      8  O   UNL     1       3.989   6.423  17.080  0.00  0.00    +0.000 OA
ATOM      9  O   UNL     1       4.049   5.784  19.516  0.00  0.00    +0.000 OA
BRANCH   7  10
ATOM     10  N   UNL     1       2.042   5.125  17.995  0.00  0.00    +0.000 N 
ATOM     11  C   UNL     1       1.926   4.134  18.996  0.00  0.00    +0.000 A 
ATOM     12  N   UNL     1       2.441   2.949  18.781  0.00  0.00    +0.000 NA
ATOM     13  C   UNL     1       2.248   2.180  19.919  0.00  0.00    +0.000 A 
ATOM     14  C   UNL     1       1.493   2.778  20.898  0.00  0.00    +0.000 A 
ATOM     15  F   UNL     1       1.167   2.211  22.028  0.00  0.00    +0.000 F 
ATOM     16  S   UNL     1       1.042   4.350  20.445  0.00  0.00    +0.000 S 
ATOM     17  H   UNL     1       2.308   4.664  17.122  0.00  0.00    +0.000 HD
ENDBRANCH   7  10
ENDBRANCH   3   7
BRANCH   1  19
ATOM     18  N   UNL     1       0.209   9.183  22.768  0.00  0.00    +0.000 NA
ATOM     19  C   UNL     1       0.668   9.061  21.710  0.00  0.00    +0.000 C 
ENDBRANCH   1  19
BRANCH   6  20
ATOM     20  O   UNL     1       0.227  11.136  19.568  0.00  0.00    +0.000 OA
BRANCH  20  21
ATOM     21  C   UNL     1       0.869  12.291  19.987  0.00  0.00    +0.000 A 
ATOM     22  C   UNL     1       2.099  12.679  19.415  0.00  0.00    +0.000 A 
ATOM     23  C   UNL     1       2.799  13.779  19.900  0.00  0.00    +0.000 A 
ATOM     24  C   UNL     1       2.250  14.542  20.916  0.00  0.00    +0.000 A 
ATOM     25  C   UNL     1       0.992  14.214  21.430  0.00  0.00    +0.000 A 
ATOM     26  C   UNL     1       0.248  13.098  20.975  0.00  0.00    +0.000 A 
BRANCH  26  27
ATOM     27  C   UNL     1      -1.119  12.870  21.541  0.00  0.00    +0.000 A 
ATOM     28  C   UNL     1      -2.272  13.255  20.817  0.00  0.00    +0.000 A 
ATOM     29  C   UNL     1      -3.565  13.086  21.325  0.00  0.00    +0.000 A 
ATOM     30  C   UNL     1      -3.750  12.496  22.567  0.00  0.00    +0.000 A 
ATOM     31  C   UNL     1      -2.640  12.093  23.302  0.00  0.00    +0.000 A 
ATOM     32  C   UNL     1      -1.344  12.292  22.801  0.00  0.00    +0.000 A 
ENDBRANCH  26  27
ENDBRANCH  20  21
ENDBRANCH   6  20
TORSDOF 6
ENDMDL
