MODEL 1
REMARK VINA RESULT:      -7.7      0.000      0.000
REMARK  Name = 
REMARK  7 active torsions:
REMARK  status: ('A' for Active; 'I' for Inactive)
REMARK    1  A    between atoms: C_1  and  N_2
REMARK    2  A    between atoms: N_2  and  C_3
REMARK    3  A    between atoms: C_4  and  C_6
REMARK    4  A    between atoms: C_6  and  C_7
REMARK    5  A    between atoms: C_6  and  N_14
REMARK    6  A    between atoms: C_7  and  C_8
REMARK    7  A    between atoms: C_15  and  C_17
REMARK                            x       y       z     vdW  Elec       q    Type
REMARK                         _______ _______ _______ _____ _____    ______ ____
ROOT
ATOM      1  N   UNL     1       1.207   9.450  19.140  0.00  0.00    +0.000 N 
ATOM      2  C   UNL     1       2.072   9.086  18.141  0.00  0.00    +0.000 C 
ATOM      3  O   UNL     1       2.343   9.806  17.186  0.00  0.00    +0.000 OA
ATOM      4  H   UNL     1       1.302   8.963  20.020  0.00  0.00    +0.000 HD
ENDROOT
BRANCH   2   5
ATOM      5  C   UNL     1       2.631   7.757  18.333  0.00  0.00    +0.000 A 
ATOM      6  C   UNL     1       3.678   7.154  17.651  0.00  0.00    +0.000 A 
ATOM      7  C   UNL     1       3.842   5.862  18.220  0.00  0.00    +0.000 A 
ATOM      8  S   UNL     1       4.848   4.468  18.019  0.00  0.00    +0.000 S 
ATOM      9  C   UNL     1       3.993   3.687  19.275  0.00  0.00    +0.000 A 
ATOM     10 BR   UNL     1       4.458   1.935  19.787  0.00  0.00    +0.000 Br
ATOM     11  C   UNL     1       2.989   4.438  19.840  0.00  0.00    +0.000 A 
ATOM     12 BR   UNL     1       1.820   3.923  21.229  0.00  0.00    +0.000 Br
ATOM     13  C   UNL     1       2.925   5.714  19.219  0.00  0.00    +0.000 A 
ATOM     14  N   UNL     1       2.202   6.883  19.314  0.00  0.00    +0.000 N 
ATOM     15  H   UNL     1       1.470   7.050  19.996  0.00  0.00    +0.000 HD
ENDBRANCH   2   5
BRANCH   1  16
ATOM     16  C   UNL     1       0.447  10.702  19.156  0.00  0.00    +0.000 C 
BRANCH  16  20
ATOM     17  C   UNL     1       2.086  13.737  20.882  0.00  0.00    +0.000 C 
ATOM     18  N   UNL     1       1.721  12.774  19.853  0.00  0.00    +0.000 N 
ATOM     19  C   UNL     1       2.096  13.078  18.480  0.00  0.00    +0.000 C 
ATOM     20  C   UNL     1       0.995  11.650  20.251  0.00  0.00    +0.000 C 
ATOM     21  O   UNL     1       0.700  11.467  21.438  0.00  0.00    +0.000 OA
ENDBRANCH  16  20
BRANCH  16  22
ATOM     22  C   UNL     1      -1.029  10.395  19.497  0.00  0.00    +0.000 C 
BRANCH  22  23
ATOM     23  C   UNL     1      -1.987  10.545  18.334  0.00  0.00    +0.000 A 
ATOM     24  C   UNL     1      -3.106  11.387  18.434  0.00  0.00    +0.000 A 
ATOM     25  C   UNL     1      -3.990  11.525  17.361  0.00  0.00    +0.000 A 
ATOM     26  C   UNL     1      -3.763  10.829  16.177  0.00  0.00    +0.000 A 
ATOM     27  C   UNL     1      -2.646  10.003  16.060  0.00  0.00    +0.000 A 
ATOM     28  C   UNL     1      -1.761   9.866  17.129  0.00  0.00    +0.000 A 
ENDBRANCH  22  23
ENDBRANCH  16  22
ENDBRANCH   1  16
TORSDOF 5
ENDMDL
MODEL 2
REMARK VINA RESULT:      -7.6      4.177      8.291
REMARK  Name = 
REMARK  7 active torsions:
REMARK  status: ('A' for Active; 'I' for Inactive)
REMARK    1  A    between atoms: C_1  and  N_2
REMARK    2  A    between atoms: N_2  and  C_3
REMARK    3  A    between atoms: C_4  and  C_6
REMARK    4  A    between atoms: C_6  and  C_7
REMARK    5  A    between atoms: C_6  and  N_14
REMARK    6  A    between atoms: C_7  and  C_8
REMARK    7  A    between atoms: C_15  and  C_17
REMARK                            x       y       z     vdW  Elec       q    Type
REMARK                         _______ _______ _______ _____ _____    ______ ____
ROOT
ATOM      1  N   UNL     1       2.284   7.065  19.006  0.00  0.00    +0.000 N 
ATOM      2  C   UNL     1       2.246   8.197  18.233  0.00  0.00    +0.000 C 
ATOM      3  O   UNL     1       2.679   8.248  17.087  0.00  0.00    +0.000 OA
ATOM      4  H   UNL     1       1.628   7.018  19.773  0.00  0.00    +0.000 HD
ENDROOT
BRANCH   2   5
ATOM      5  C   UNL     1       1.641   9.329  18.917  0.00  0.00    +0.000 A 
ATOM      6  C   UNL     1       1.559  10.649  18.497  0.00  0.00    +0.000 A 
ATOM      7  C   UNL     1       0.867  11.356  19.516  0.00  0.00    +0.000 A 
ATOM      8  S   UNL     1       0.331  12.968  19.849  0.00  0.00    +0.000 S 
ATOM      9  C   UNL     1      -0.311  12.433  21.339  0.00  0.00    +0.000 A 
ATOM     10 BR   UNL     1      -1.171  13.651  22.490  0.00  0.00    +0.000 Br
ATOM     11  C   UNL     1      -0.141  11.091  21.588  0.00  0.00    +0.000 A 
ATOM     12 BR   UNL     1      -0.689  10.135  23.120  0.00  0.00    +0.000 Br
ATOM     13  C   UNL     1       0.537  10.475  20.503  0.00  0.00    +0.000 A 
ATOM     14  N   UNL     1       0.980   9.225  20.127  0.00  0.00    +0.000 N 
ATOM     15  H   UNL     1       0.842   8.381  20.672  0.00  0.00    +0.000 HD
ENDBRANCH   2   5
BRANCH   1  16
ATOM     16  C   UNL     1       2.907   5.806  18.593  0.00  0.00    +0.000 C 
BRANCH  16  20
ATOM     17  C   UNL     1       1.728   2.254  19.527  0.00  0.00    +0.000 C 
ATOM     18  N   UNL     1       2.147   3.395  18.727  0.00  0.00    +0.000 N 
ATOM     19  C   UNL     1       2.427   3.166  17.317  0.00  0.00    +0.000 C 
ATOM     20  C   UNL     1       2.298   4.620  19.381  0.00  0.00    +0.000 C 
ATOM     21  O   UNL     1       2.054   4.734  20.587  0.00  0.00    +0.000 OA
ENDBRANCH  16  20
BRANCH  16  22
ATOM     22  C   UNL     1       4.417   5.857  18.916  0.00  0.00    +0.000 C 
BRANCH  22  23
ATOM     23  C   UNL     1       5.320   5.473  17.762  0.00  0.00    +0.000 A 
ATOM     24  C   UNL     1       4.935   5.730  16.437  0.00  0.00    +0.000 A 
ATOM     25  C   UNL     1       5.768   5.375  15.373  0.00  0.00    +0.000 A 
ATOM     26  C   UNL     1       6.995   4.764  15.622  0.00  0.00    +0.000 A 
ATOM     27  C   UNL     1       7.395   4.519  16.934  0.00  0.00    +0.000 A 
ATOM     28  C   UNL     1       6.566   4.876  17.998  0.00  0.00    +0.000 A 
ENDBRANCH  22  23
ENDBRANCH  16  22
ENDBRANCH   1  16
TORSDOF 5
ENDMDL
MODEL 3
REMARK VINA RESULT:      -7.6      0.568      1.103
REMARK  Name = 
REMARK  7 active torsions:
REMARK  status: ('A' for Active; 'I' for Inactive)
REMARK    1  A    between atoms: C_1  and  N_2
REMARK    2  A    between atoms: N_2  and  C_3
REMARK    3  A    between atoms: C_4  and  C_6
REMARK    4  A    between atoms: C_6  and  C_7
REMARK    5  A    between atoms: C_6  and  N_14
REMARK    6  A    between atoms: C_7  and  C_8
REMARK    7  A    between atoms: C_15  and  C_17
REMARK                            x       y       z     vdW  Elec       q    Type
REMARK                         _______ _______ _______ _____ _____    ______ ____
ROOT
ATOM      1  N   UNL     1       0.958   9.566  19.078  0.00  0.00    +0.000 N 
ATOM      2  C   UNL     1       1.995   9.337  18.211  0.00  0.00    +0.000 C 
ATOM      3  O   UNL     1       2.417  10.178  17.425  0.00  0.00    +0.000 OA
ATOM      4  H   UNL     1       0.904   8.966  19.889  0.00  0.00    +0.000 HD
ENDROOT
BRANCH   2   5
ATOM      5  C   UNL     1       2.538   7.993  18.323  0.00  0.00    +0.000 A 
ATOM      6  C   UNL     1       3.497   7.379  17.528  0.00  0.00    +0.000 A 
ATOM      7  C   UNL     1       3.686   6.074  18.056  0.00  0.00    +0.000 A 
ATOM      8  S   UNL     1       4.632   4.662  17.730  0.00  0.00    +0.000 S 
ATOM      9  C   UNL     1       3.891   3.876  19.054  0.00  0.00    +0.000 A 
ATOM     10 BR   UNL     1       4.363   2.105  19.486  0.00  0.00    +0.000 Br
ATOM     11  C   UNL     1       2.968   4.638  19.730  0.00  0.00    +0.000 A 
ATOM     12 BR   UNL     1       1.933   4.123  21.221  0.00  0.00    +0.000 Br
ATOM     13  C   UNL     1       2.871   5.927  19.140  0.00  0.00    +0.000 A 
ATOM     14  N   UNL     1       2.191   7.109  19.329  0.00  0.00    +0.000 N 
ATOM     15  H   UNL     1       1.535   7.279  20.084  0.00  0.00    +0.000 HD
ENDBRANCH   2   5
BRANCH   1  16
ATOM     16  C   UNL     1       0.181  10.807  19.123  0.00  0.00    +0.000 C 
BRANCH  16  20
ATOM     17  C   UNL     1       0.968  13.908  21.278  0.00  0.00    +0.000 C 
ATOM     18  N   UNL     1       0.678  13.082  20.115  0.00  0.00    +0.000 N 
ATOM     19  C   UNL     1       0.383  13.759  18.861  0.00  0.00    +0.000 C 
ATOM     20  C   UNL     1       0.655  11.698  20.298  0.00  0.00    +0.000 C 
ATOM     21  O   UNL     1       0.904  11.194  21.399  0.00  0.00    +0.000 OA
ENDBRANCH  16  20
BRANCH  16  22
ATOM     22  C   UNL     1      -1.307  10.466  19.364  0.00  0.00    +0.000 C 
BRANCH  22  23
ATOM     23  C   UNL     1      -2.188  10.593  18.138  0.00  0.00    +0.000 A 
ATOM     24  C   UNL     1      -1.900   9.866  16.973  0.00  0.00    +0.000 A 
ATOM     25  C   UNL     1      -2.712   9.984  15.842  0.00  0.00    +0.000 A 
ATOM     26  C   UNL     1      -3.823  10.825  15.867  0.00  0.00    +0.000 A 
ATOM     27  C   UNL     1      -4.128  11.538  17.024  0.00  0.00    +0.000 A 
ATOM     28  C   UNL     1      -3.319  11.419  18.155  0.00  0.00    +0.000 A 
ENDBRANCH  22  23
ENDBRANCH  16  22
ENDBRANCH   1  16
TORSDOF 5
ENDMDL
MODEL 4
REMARK VINA RESULT:      -7.6      4.045      8.044
REMARK  Name = 
REMARK  7 active torsions:
REMARK  status: ('A' for Active; 'I' for Inactive)
REMARK    1  A    between atoms: C_1  and  N_2
REMARK    2  A    between atoms: N_2  and  C_3
REMARK    3  A    between atoms: C_4  and  C_6
REMARK    4  A    between atoms: C_6  and  C_7
REMARK    5  A    between atoms: C_6  and  N_14
REMARK    6  A    between atoms: C_7  and  C_8
REMARK    7  A    between atoms: C_15  and  C_17
REMARK                            x       y       z     vdW  Elec       q    Type
REMARK                         _______ _______ _______ _____ _____    ______ ____
ROOT
ATOM      1  N   UNL     1       3.800   5.402  17.816  0.00  0.00    +0.000 N 
ATOM      2  C   UNL     1       3.845   6.064  19.016  0.00  0.00    +0.000 C 
ATOM      3  O   UNL     1       4.609   5.760  19.926  0.00  0.00    +0.000 OA
ATOM      4  H   UNL     1       3.407   5.907  17.034  0.00  0.00    +0.000 HD
ENDROOT
BRANCH   2   5
ATOM      5  C   UNL     1       2.893   7.160  19.093  0.00  0.00    +0.000 A 
ATOM      6  C   UNL     1       2.458   7.999  18.077  0.00  0.00    +0.000 A 
ATOM      7  C   UNL     1       1.524   8.895  18.663  0.00  0.00    +0.000 A 
ATOM      8  S   UNL     1       0.521  10.224  18.190  0.00  0.00    +0.000 S 
ATOM      9  C   UNL     1      -0.034  10.360  19.800  0.00  0.00    +0.000 A 
ATOM     10 BR   UNL     1      -1.285  11.691  20.259  0.00  0.00    +0.000 Br
ATOM     11  C   UNL     1       0.502   9.442  20.672  0.00  0.00    +0.000 A 
ATOM     12 BR   UNL     1       0.157   9.283  22.520  0.00  0.00    +0.000 Br
ATOM     13  C   UNL     1       1.402   8.583  19.985  0.00  0.00    +0.000 A 
ATOM     14  N   UNL     1       2.213   7.501  20.247  0.00  0.00    +0.000 N 
ATOM     15  H   UNL     1       2.291   7.049  21.152  0.00  0.00    +0.000 HD
ENDBRANCH   2   5
BRANCH   1  16
ATOM     16  C   UNL     1       4.596   4.214  17.500  0.00  0.00    +0.000 C 
BRANCH  16  20
ATOM     17  C   UNL     1       7.038   4.741  14.561  0.00  0.00    +0.000 C 
ATOM     18  N   UNL     1       6.462   4.807  15.895  0.00  0.00    +0.000 N 
ATOM     19  C   UNL     1       7.295   5.335  16.966  0.00  0.00    +0.000 C 
ATOM     20  C   UNL     1       5.166   4.314  16.063  0.00  0.00    +0.000 C 
ATOM     21  O   UNL     1       4.524   3.867  15.106  0.00  0.00    +0.000 OA
ENDBRANCH  16  20
BRANCH  16  22
ATOM     22  C   UNL     1       3.688   2.965  17.558  0.00  0.00    +0.000 C 
BRANCH  22  23
ATOM     23  C   UNL     1       2.844   2.859  18.810  0.00  0.00    +0.000 A 
ATOM     24  C   UNL     1       3.439   2.592  20.053  0.00  0.00    +0.000 A 
ATOM     25  C   UNL     1       2.659   2.494  21.208  0.00  0.00    +0.000 A 
ATOM     26  C   UNL     1       1.279   2.668  21.135  0.00  0.00    +0.000 A 
ATOM     27  C   UNL     1       0.679   2.951  19.909  0.00  0.00    +0.000 A 
ATOM     28  C   UNL     1       1.457   3.052  18.755  0.00  0.00    +0.000 A 
ENDBRANCH  22  23
ENDBRANCH  16  22
ENDBRANCH   1  16
TORSDOF 5
ENDMDL
MODEL 5
REMARK VINA RESULT:      -7.5      1.205      1.806
REMARK  Name = 
REMARK  7 active torsions:
REMARK  status: ('A' for Active; 'I' for Inactive)
REMARK    1  A    between atoms: C_1  and  N_2
REMARK    2  A    between atoms: N_2  and  C_3
REMARK    3  A    between atoms: C_4  and  C_6
REMARK    4  A    between atoms: C_6  and  C_7
REMARK    5  A    between atoms: C_6  and  N_14
REMARK    6  A    between atoms: C_7  and  C_8
REMARK    7  A    between atoms: C_15  and  C_17
REMARK                            x       y       z     vdW  Elec       q    Type
REMARK                         _______ _______ _______ _____ _____    ______ ____
ROOT
ATOM      1  N   UNL     1       0.979   9.733  19.425  0.00  0.00    +0.000 N 
ATOM      2  C   UNL     1       1.780   9.146  18.480  0.00  0.00    +0.000 C 
ATOM      3  O   UNL     1       2.133   9.709  17.450  0.00  0.00    +0.000 OA
ATOM      4  H   UNL     1       1.018   9.345  20.357  0.00  0.00    +0.000 HD
ENDROOT
BRANCH   2   5
ATOM      5  C   UNL     1       2.164   7.788  18.830  0.00  0.00    +0.000 A 
ATOM      6  C   UNL     1       1.895   7.088  19.998  0.00  0.00    +0.000 A 
ATOM      7  C   UNL     1       2.477   5.801  19.842  0.00  0.00    +0.000 A 
ATOM      8  S   UNL     1       2.644   4.331  20.740  0.00  0.00    +0.000 S 
ATOM      9  C   UNL     1       3.530   3.657  19.443  0.00  0.00    +0.000 A 
ATOM     10 BR   UNL     1       4.189   1.897  19.563  0.00  0.00    +0.000 Br
ATOM     11  C   UNL     1       3.697   4.494  18.365  0.00  0.00    +0.000 A 
ATOM     12 BR   UNL     1       4.624   4.125  16.764  0.00  0.00    +0.000 Br
ATOM     13  C   UNL     1       3.060   5.740  18.611  0.00  0.00    +0.000 A 
ATOM     14  N   UNL     1       2.844   6.942  17.974  0.00  0.00    +0.000 N 
ATOM     15  H   UNL     1       3.153   7.154  17.031  0.00  0.00    +0.000 HD
ENDBRANCH   2   5
BRANCH   1  16
ATOM     16  C   UNL     1       0.387  11.067  19.290  0.00  0.00    +0.000 C 
BRANCH  16  20
ATOM     17  C   UNL     1       2.410  14.018  20.732  0.00  0.00    +0.000 C 
ATOM     18  N   UNL     1       1.935  13.003  19.804  0.00  0.00    +0.000 N 
ATOM     19  C   UNL     1       2.386  13.086  18.422  0.00  0.00    +0.000 C 
ATOM     20  C   UNL     1       1.040  12.049  20.294  0.00  0.00    +0.000 C 
ATOM     21  O   UNL     1       0.691  12.051  21.480  0.00  0.00    +0.000 OA
ENDBRANCH  16  20
BRANCH  16  22
ATOM     22  C   UNL     1      -1.119  10.989  19.623  0.00  0.00    +0.000 C 
BRANCH  22  23
ATOM     23  C   UNL     1      -2.024  10.871  18.414  0.00  0.00    +0.000 A 
ATOM     24  C   UNL     1      -1.692  10.015  17.353  0.00  0.00    +0.000 A 
ATOM     25  C   UNL     1      -2.527   9.907  16.238  0.00  0.00    +0.000 A 
ATOM     26  C   UNL     1      -3.704  10.649  16.174  0.00  0.00    +0.000 A 
ATOM     27  C   UNL     1      -4.053  11.490  17.229  0.00  0.00    +0.000 A 
ATOM     28  C   UNL     1      -3.221  11.596  18.344  0.00  0.00    +0.000 A 
ENDBRANCH  22  23
ENDBRANCH  16  22
ENDBRANCH   1  16
TORSDOF 5
ENDMDL
MODEL 6
REMARK VINA RESULT:      -7.5      4.577      8.536
REMARK  Name = 
REMARK  7 active torsions:
REMARK  status: ('A' for Active; 'I' for Inactive)
REMARK    1  A    between atoms: C_1  and  N_2
REMARK    2  A    between atoms: N_2  and  C_3
REMARK    3  A    between atoms: C_4  and  C_6
REMARK    4  A    between atoms: C_6  and  C_7
REMARK    5  A    between atoms: C_6  and  N_14
REMARK    6  A    between atoms: C_7  and  C_8
REMARK    7  A    between atoms: C_15  and  C_17
REMARK                            x       y       z     vdW  Elec       q    Type
REMARK                         _______ _______ _______ _____ _____    ______ ____
ROOT
ATOM      1  N   UNL     1       2.184   6.440  19.571  0.00  0.00    +0.000 N 
ATOM      2  C   UNL     1       2.145   7.740  19.135  0.00  0.00    +0.000 C 
ATOM      3  O   UNL     1       2.707   8.127  18.116  0.00  0.00    +0.000 OA
ATOM      4  H   UNL     1       1.447   6.151  20.197  0.00  0.00    +0.000 HD
ENDROOT
BRANCH   2   5
ATOM      5  C   UNL     1       1.370   8.606  20.007  0.00  0.00    +0.000 A 
ATOM      6  C   UNL     1       0.971   8.379  21.318  0.00  0.00    +0.000 A 
ATOM      7  C   UNL     1       0.247   9.530  21.726  0.00  0.00    +0.000 A 
ATOM      8  S   UNL     1      -0.590  10.114  23.124  0.00  0.00    +0.000 S 
ATOM      9  C   UNL     1      -0.977  11.547  22.277  0.00  0.00    +0.000 A 
ATOM     10 BR   UNL     1      -1.986  12.897  23.117  0.00  0.00    +0.000 Br
ATOM     11  C   UNL     1      -0.497  11.601  20.990  0.00  0.00    +0.000 A 
ATOM     12 BR   UNL     1      -0.729  12.996  19.741  0.00  0.00    +0.000 Br
ATOM     13  C   UNL     1       0.230  10.417  20.690  0.00  0.00    +0.000 A 
ATOM     14  N   UNL     1       0.944   9.871  19.646  0.00  0.00    +0.000 N 
ATOM     15  H   UNL     1       1.109  10.335  18.760  0.00  0.00    +0.000 HD
ENDBRANCH   2   5
BRANCH   1  16
ATOM     16  C   UNL     1       2.956   5.377  18.924  0.00  0.00    +0.000 C 
BRANCH  16  20
ATOM     17  C   UNL     1       2.272   1.598  19.286  0.00  0.00    +0.000 C 
ATOM     18  N   UNL     1       2.448   2.909  18.680  0.00  0.00    +0.000 N 
ATOM     19  C   UNL     1       2.508   2.979  17.227  0.00  0.00    +0.000 C 
ATOM     20  C   UNL     1       2.595   4.001  19.538  0.00  0.00    +0.000 C 
ATOM     21  O   UNL     1       2.547   3.861  20.765  0.00  0.00    +0.000 OA
ENDBRANCH  16  20
BRANCH  16  22
ATOM     22  C   UNL     1       4.461   5.620  19.170  0.00  0.00    +0.000 C 
BRANCH  22  23
ATOM     23  C   UNL     1       5.344   5.366  17.966  0.00  0.00    +0.000 A 
ATOM     24  C   UNL     1       4.897   5.680  16.673  0.00  0.00    +0.000 A 
ATOM     25  C   UNL     1       5.711   5.446  15.562  0.00  0.00    +0.000 A 
ATOM     26  C   UNL     1       6.982   4.901  15.732  0.00  0.00    +0.000 A 
ATOM     27  C   UNL     1       7.443   4.601  17.013  0.00  0.00    +0.000 A 
ATOM     28  C   UNL     1       6.632   4.837  18.123  0.00  0.00    +0.000 A 
ENDBRANCH  22  23
ENDBRANCH  16  22
ENDBRANCH   1  16
TORSDOF 5
ENDMDL
MODEL 7
REMARK VINA RESULT:      -7.4      4.469      8.403
REMARK  Name = 
REMARK  7 active torsions:
REMARK  status: ('A' for Active; 'I' for Inactive)
REMARK    1  A    between atoms: C_1  and  N_2
REMARK    2  A    between atoms: N_2  and  C_3
REMARK    3  A    between atoms: C_4  and  C_6
REMARK    4  A    between atoms: C_6  and  C_7
REMARK    5  A    between atoms: C_6  and  N_14
REMARK    6  A    between atoms: C_7  and  C_8
REMARK    7  A    between atoms: C_15  and  C_17
REMARK                            x       y       z     vdW  Elec       q    Type
REMARK                         _______ _______ _______ _____ _____    ______ ____
ROOT
ATOM      1  N   UNL     1       2.343   6.222  18.993  0.00  0.00    +0.000 N 
ATOM      2  C   UNL     1       2.305   7.558  18.682  0.00  0.00    +0.000 C 
ATOM      3  O   UNL     1       2.856   8.038  17.698  0.00  0.00    +0.000 OA
ATOM      4  H   UNL     1       1.612   5.878  19.599  0.00  0.00    +0.000 HD
ENDROOT
BRANCH   2   5
ATOM      5  C   UNL     1       1.546   8.340  19.644  0.00  0.00    +0.000 A 
ATOM      6  C   UNL     1       1.341   8.087  20.993  0.00  0.00    +0.000 A 
ATOM      7  C   UNL     1       0.541   9.152  21.488  0.00  0.00    +0.000 A 
ATOM      8  S   UNL     1      -0.182   9.654  22.979  0.00  0.00    +0.000 S 
ATOM      9  C   UNL     1      -0.836  11.019  22.185  0.00  0.00    +0.000 A 
ATOM     10 BR   UNL     1      -1.887  12.254  23.142  0.00  0.00    +0.000 Br
ATOM     11  C   UNL     1      -0.526  11.110  20.849  0.00  0.00    +0.000 A 
ATOM     12 BR   UNL     1      -1.073  12.449  19.637  0.00  0.00    +0.000 Br
ATOM     13  C   UNL     1       0.293  10.015  20.462  0.00  0.00    +0.000 A 
ATOM     14  N   UNL     1       0.933   9.541  19.338  0.00  0.00    +0.000 N 
ATOM     15  H   UNL     1       0.932  10.008  18.438  0.00  0.00    +0.000 HD
ENDBRANCH   2   5
BRANCH   1  16
ATOM     16  C   UNL     1       3.101   5.222  18.237  0.00  0.00    +0.000 C 
BRANCH  16  20
ATOM     17  C   UNL     1       0.563   2.385  18.864  0.00  0.00    +0.000 C 
ATOM     18  N   UNL     1       1.472   3.493  19.113  0.00  0.00    +0.000 N 
ATOM     19  C   UNL     1       1.463   4.089  20.442  0.00  0.00    +0.000 C 
ATOM     20  C   UNL     1       2.255   3.938  18.046  0.00  0.00    +0.000 C 
ATOM     21  O   UNL     1       2.199   3.389  16.940  0.00  0.00    +0.000 OA
ENDBRANCH  16  20
BRANCH  16  22
ATOM     22  C   UNL     1       4.366   4.836  19.034  0.00  0.00    +0.000 C 
BRANCH  22  23
ATOM     23  C   UNL     1       5.613   5.603  18.644  0.00  0.00    +0.000 A 
ATOM     24  C   UNL     1       6.790   5.486  19.400  0.00  0.00    +0.000 A 
ATOM     25  C   UNL     1       7.939   6.194  19.041  0.00  0.00    +0.000 A 
ATOM     26  C   UNL     1       7.926   7.022  17.921  0.00  0.00    +0.000 A 
ATOM     27  C   UNL     1       6.768   7.134  17.153  0.00  0.00    +0.000 A 
ATOM     28  C   UNL     1       5.621   6.425  17.509  0.00  0.00    +0.000 A 
ENDBRANCH  22  23
ENDBRANCH  16  22
ENDBRANCH   1  16
TORSDOF 5
ENDMDL
MODEL 8
REMARK VINA RESULT:      -7.3      4.115      7.943
REMARK  Name = 
REMARK  7 active torsions:
REMARK  status: ('A' for Active; 'I' for Inactive)
REMARK    1  A    between atoms: C_1  and  N_2
REMARK    2  A    between atoms: N_2  and  C_3
REMARK    3  A    between atoms: C_4  and  C_6
REMARK    4  A    between atoms: C_6  and  C_7
REMARK    5  A    between atoms: C_6  and  N_14
REMARK    6  A    between atoms: C_7  and  C_8
REMARK    7  A    between atoms: C_15  and  C_17
REMARK                            x       y       z     vdW  Elec       q    Type
REMARK                         _______ _______ _______ _____ _____    ______ ____
ROOT
ATOM      1  N   UNL     1       3.725   6.393  17.703  0.00  0.00    +0.000 N 
ATOM      2  C   UNL     1       3.314   6.492  19.008  0.00  0.00    +0.000 C 
ATOM      3  O   UNL     1       3.669   5.716  19.888  0.00  0.00    +0.000 OA
ATOM      4  H   UNL     1       3.664   7.233  17.144  0.00  0.00    +0.000 HD
ENDROOT
BRANCH   2   5
ATOM      5  C   UNL     1       2.415   7.612  19.234  0.00  0.00    +0.000 A 
ATOM      6  C   UNL     1       1.966   8.557  18.322  0.00  0.00    +0.000 A 
ATOM      7  C   UNL     1       1.102   9.431  19.036  0.00  0.00    +0.000 A 
ATOM      8  S   UNL     1       0.135  10.835  18.739  0.00  0.00    +0.000 S 
ATOM      9  C   UNL     1      -0.332  10.844  20.382  0.00  0.00    +0.000 A 
ATOM     10 BR   UNL     1      -1.500  12.174  21.025  0.00  0.00    +0.000 Br
ATOM     11  C   UNL     1       0.207   9.830  21.138  0.00  0.00    +0.000 A 
ATOM     12 BR   UNL     1      -0.051   9.515  22.980  0.00  0.00    +0.000 Br
ATOM     13  C   UNL     1       1.033   9.004  20.329  0.00  0.00    +0.000 A 
ATOM     14  N   UNL     1       1.809   7.871  20.449  0.00  0.00    +0.000 N 
ATOM     15  H   UNL     1       1.913   7.336  21.304  0.00  0.00    +0.000 HD
ENDBRANCH   2   5
BRANCH   1  16
ATOM     16  C   UNL     1       4.569   5.315  17.185  0.00  0.00    +0.000 C 
BRANCH  16  20
ATOM     17  C   UNL     1       7.523   5.674  14.729  0.00  0.00    +0.000 C 
ATOM     18  N   UNL     1       6.749   5.282  15.897  0.00  0.00    +0.000 N 
ATOM     19  C   UNL     1       7.333   4.297  16.796  0.00  0.00    +0.000 C 
ATOM     20  C   UNL     1       5.479   5.844  16.048  0.00  0.00    +0.000 C 
ATOM     21  O   UNL     1       5.043   6.666  15.233  0.00  0.00    +0.000 OA
ENDBRANCH  16  20
BRANCH  16  22
ATOM     22  C   UNL     1       3.671   4.208  16.590  0.00  0.00    +0.000 C 
BRANCH  22  23
ATOM     23  C   UNL     1       2.892   3.412  17.616  0.00  0.00    +0.000 A 
ATOM     24  C   UNL     1       3.539   2.472  18.433  0.00  0.00    +0.000 A 
ATOM     25  C   UNL     1       2.821   1.737  19.379  0.00  0.00    +0.000 A 
ATOM     26  C   UNL     1       1.450   1.938  19.523  0.00  0.00    +0.000 A 
ATOM     27  C   UNL     1       0.799   2.881  18.729  0.00  0.00    +0.000 A 
ATOM     28  C   UNL     1       1.516   3.617  17.786  0.00  0.00    +0.000 A 
ENDBRANCH  22  23
ENDBRANCH  16  22
ENDBRANCH   1  16
TORSDOF 5
ENDMDL
MODEL 9
REMARK VINA RESULT:      -7.3      4.510      8.471
REMARK  Name = 
REMARK  7 active torsions:
REMARK  status: ('A' for Active; 'I' for Inactive)
REMARK    1  A    between atoms: C_1  and  N_2
REMARK    2  A    between atoms: N_2  and  C_3
REMARK    3  A    between atoms: C_4  and  C_6
REMARK    4  A    between atoms: C_6  and  C_7
REMARK    5  A    between atoms: C_6  and  N_14
REMARK    6  A    between atoms: C_7  and  C_8
REMARK    7  A    between atoms: C_15  and  C_17
REMARK                            x       y       z     vdW  Elec       q    Type
REMARK                         _______ _______ _______ _____ _____    ______ ____
ROOT
ATOM      1  N   UNL     1       2.367   6.966  18.976  0.00  0.00    +0.000 N 
ATOM      2  C   UNL     1       2.021   8.223  18.552  0.00  0.00    +0.000 C 
ATOM      3  O   UNL     1       2.328   8.674  17.454  0.00  0.00    +0.000 OA
ATOM      4  H   UNL     1       1.808   6.568  19.717  0.00  0.00    +0.000 HD
ENDROOT
BRANCH   2   5
ATOM      5  C   UNL     1       1.253   8.962  19.541  0.00  0.00    +0.000 A 
ATOM      6  C   UNL     1       1.039   8.650  20.877  0.00  0.00    +0.000 A 
ATOM      7  C   UNL     1       0.234   9.691  21.412  0.00  0.00    +0.000 A 
ATOM      8  S   UNL     1      -0.499  10.127  22.918  0.00  0.00    +0.000 S 
ATOM      9  C   UNL     1      -1.150  11.524  22.181  0.00  0.00    +0.000 A 
ATOM     10 BR   UNL     1      -2.209  12.716  23.183  0.00  0.00    +0.000 Br
ATOM     11  C   UNL     1      -0.831  11.674  20.852  0.00  0.00    +0.000 A 
ATOM     12 BR   UNL     1      -1.371  13.064  19.695  0.00  0.00    +0.000 Br
ATOM     13  C   UNL     1      -0.008  10.598  20.423  0.00  0.00    +0.000 A 
ATOM     14  N   UNL     1       0.641  10.174  19.284  0.00  0.00    +0.000 N 
ATOM     15  H   UNL     1       0.646  10.680  18.405  0.00  0.00    +0.000 HD
ENDBRANCH   2   5
BRANCH   1  16
ATOM     16  C   UNL     1       3.204   6.039  18.210  0.00  0.00    +0.000 C 
BRANCH  16  20
ATOM     17  C   UNL     1       3.579   2.310  19.124  0.00  0.00    +0.000 C 
ATOM     18  N   UNL     1       3.187   3.516  18.409  0.00  0.00    +0.000 N 
ATOM     19  C   UNL     1       2.593   3.356  17.090  0.00  0.00    +0.000 C 
ATOM     20  C   UNL     1       3.452   4.743  19.021  0.00  0.00    +0.000 C 
ATOM     21  O   UNL     1       3.973   4.800  20.140  0.00  0.00    +0.000 OA
ENDBRANCH  16  20
BRANCH  16  22
ATOM     22  C   UNL     1       4.576   6.696  17.944  0.00  0.00    +0.000 C 
BRANCH  22  23
ATOM     23  C   UNL     1       5.468   5.926  16.991  0.00  0.00    +0.000 A 
ATOM     24  C   UNL     1       6.599   5.244  17.465  0.00  0.00    +0.000 A 
ATOM     25  C   UNL     1       7.421   4.534  16.587  0.00  0.00    +0.000 A 
ATOM     26  C   UNL     1       7.119   4.495  15.228  0.00  0.00    +0.000 A 
ATOM     27  C   UNL     1       5.989   5.154  14.748  0.00  0.00    +0.000 A 
ATOM     28  C   UNL     1       5.165   5.861  15.625  0.00  0.00    +0.000 A 
ENDBRANCH  22  23
ENDBRANCH  16  22
ENDBRANCH   1  16
TORSDOF 5
ENDMDL
