MODEL 1
REMARK VINA RESULT:      -8.5      0.000      0.000
REMARK  Name = 
REMARK  7 active torsions:
REMARK  status: ('A' for Active; 'I' for Inactive)
REMARK    1  A    between atoms: C_1  and  N_2
REMARK    2  A    between atoms: N_2  and  C_3
REMARK    3  A    between atoms: N_2  and  S_16
REMARK    4  A    between atoms: C_3  and  C_4
REMARK    5  A    between atoms: S_16  and  C_19
REMARK    6  A    between atoms: N_27  and  C_28
REMARK    7  A    between atoms: N_31  and  C_32
REMARK                            x       y       z     vdW  Elec       q    Type
REMARK                         _______ _______ _______ _____ _____    ______ ____
ROOT
ATOM      1  S   UNL     1       0.439  10.128  20.090  0.00  0.00    +0.000 S 
ATOM      2  O   UNL     1       0.803  10.208  21.489  0.00  0.00    +0.000 OA
ATOM      3  O   UNL     1      -0.921   9.836  19.686  0.00  0.00    +0.000 OA
ENDROOT
BRANCH   1   4
ATOM      4  C   UNL     1       1.513   8.924  19.345  0.00  0.00    +0.000 A 
ATOM      5  C   UNL     1       2.160   9.192  18.140  0.00  0.00    +0.000 A 
ATOM      6  C   UNL     1       3.009   8.229  17.582  0.00  0.00    +0.000 A 
ATOM      7  C   UNL     1       3.193   6.979  18.202  0.00  0.00    +0.000 A 
ATOM      8  C   UNL     1       2.510   6.726  19.391  0.00  0.00    +0.000 A 
ATOM      9  C   UNL     1       1.680   7.692  19.977  0.00  0.00    +0.000 A 
ATOM     10  C   UNL     1       2.643   5.408  20.032  0.00  0.00    +0.000 A 
ATOM     11  O   UNL     1       2.067   5.205  21.099  0.00  0.00    +0.000 OA
ATOM     12  N   UNL     1       3.414   4.471  19.371  0.00  0.00    +0.000 N 
ATOM     13  C   UNL     1       3.500   3.133  19.931  0.00  0.00    +0.000 C 
ATOM     14  C   UNL     1       4.160   4.712  18.223  0.00  0.00    +0.000 A 
ATOM     15  O   UNL     1       4.887   3.845  17.736  0.00  0.00    +0.000 OA
ATOM     16  N   UNL     1       4.039   5.979  17.653  0.00  0.00    +0.000 N 
ATOM     17  C   UNL     1       4.808   6.262  16.448  0.00  0.00    +0.000 C 
ENDBRANCH   1   4
BRANCH   1  19
ATOM     18  C   UNL     1      -0.181  12.209  18.521  0.00  0.00    +0.000 C 
ATOM     19  N   UNL     1       0.907  11.577  19.307  0.00  0.00    +0.000 NA
BRANCH  19  20
ATOM     20  C   UNL     1       1.579  12.524  20.250  0.00  0.00    +0.000 C 
BRANCH  20  21
ATOM     21  C   UNL     1       0.845  13.836  20.556  0.00  0.00    +0.000 C 
ATOM     22  O   UNL     1      -0.062  13.904  21.390  0.00  0.00    +0.000 OA
ATOM     23  N   UNL     1       1.267  14.978  19.875  0.00  0.00    +0.000 N 
ATOM     24  C   UNL     1       2.422  15.005  18.967  0.00  0.00    +0.000 C 
ATOM     25  C   UNL     1       2.850  16.404  18.520  0.00  0.00    +0.000 C 
ATOM     26  C   UNL     1       1.645  17.141  18.006  0.00  0.00    +0.000 A 
ATOM     27  C   UNL     1       1.685  17.918  16.847  0.00  0.00    +0.000 A 
ATOM     28  C   UNL     1       0.527  18.551  16.399  0.00  0.00    +0.000 A 
ATOM     29  C   UNL     1      -0.666  18.421  17.112  0.00  0.00    +0.000 A 
ATOM     30  C   UNL     1      -0.706  17.661  18.282  0.00  0.00    +0.000 A 
ATOM     31  C   UNL     1       0.447  17.010  18.733  0.00  0.00    +0.000 A 
ATOM     32  C   UNL     1       0.453  16.192  20.000  0.00  0.00    +0.000 C 
ENDBRANCH  20  21
ENDBRANCH  19  20
ENDBRANCH   1  19
TORSDOF 4
ENDMDL
MODEL 2
REMARK VINA RESULT:      -8.4      3.617      5.275
REMARK  Name = 
REMARK  7 active torsions:
REMARK  status: ('A' for Active; 'I' for Inactive)
REMARK    1  A    between atoms: C_1  and  N_2
REMARK    2  A    between atoms: N_2  and  C_3
REMARK    3  A    between atoms: N_2  and  S_16
REMARK    4  A    between atoms: C_3  and  C_4
REMARK    5  A    between atoms: S_16  and  C_19
REMARK    6  A    between atoms: N_27  and  C_28
REMARK    7  A    between atoms: N_31  and  C_32
REMARK                            x       y       z     vdW  Elec       q    Type
REMARK                         _______ _______ _______ _____ _____    ______ ____
ROOT
ATOM      1  S   UNL     1       1.225  10.124  18.587  0.00  0.00    +0.000 S 
ATOM      2  O   UNL     1      -0.045   9.963  17.912  0.00  0.00    +0.000 OA
ATOM      3  O   UNL     1       2.319  10.840  17.964  0.00  0.00    +0.000 OA
ENDROOT
BRANCH   1   4
ATOM      4  C   UNL     1       1.795   8.494  19.008  0.00  0.00    +0.000 A 
ATOM      5  C   UNL     1       1.370   7.870  20.180  0.00  0.00    +0.000 A 
ATOM      6  C   UNL     1       1.827   6.581  20.481  0.00  0.00    +0.000 A 
ATOM      7  C   UNL     1       2.736   5.918  19.635  0.00  0.00    +0.000 A 
ATOM      8  C   UNL     1       3.167   6.578  18.485  0.00  0.00    +0.000 A 
ATOM      9  C   UNL     1       2.695   7.857  18.156  0.00  0.00    +0.000 A 
ATOM     10  C   UNL     1       4.158   5.931  17.611  0.00  0.00    +0.000 A 
ATOM     11  O   UNL     1       4.505   6.503  16.580  0.00  0.00    +0.000 OA
ATOM     12  N   UNL     1       4.643   4.704  18.024  0.00  0.00    +0.000 N 
ATOM     13  C   UNL     1       5.683   4.073  17.231  0.00  0.00    +0.000 C 
ATOM     14  C   UNL     1       4.185   3.991  19.127  0.00  0.00    +0.000 A 
ATOM     15  O   UNL     1       4.613   2.865  19.385  0.00  0.00    +0.000 OA
ATOM     16  N   UNL     1       3.225   4.616  19.921  0.00  0.00    +0.000 N 
ATOM     17  C   UNL     1       2.726   3.894  21.084  0.00  0.00    +0.000 C 
ENDBRANCH   1   4
BRANCH   1  19
ATOM     18  C   UNL     1       1.370  12.254  20.205  0.00  0.00    +0.000 C 
ATOM     19  N   UNL     1       0.957  10.832  20.123  0.00  0.00    +0.000 NA
BRANCH  19  20
ATOM     20  C   UNL     1      -0.439  10.594  20.605  0.00  0.00    +0.000 C 
BRANCH  20  21
ATOM     21  C   UNL     1      -0.802  11.159  21.985  0.00  0.00    +0.000 C 
ATOM     22  O   UNL     1      -0.184  10.847  23.006  0.00  0.00    +0.000 OA
ATOM     23  N   UNL     1      -1.848  12.080  22.044  0.00  0.00    +0.000 N 
ATOM     24  C   UNL     1      -2.544  12.599  20.859  0.00  0.00    +0.000 C 
ATOM     25  C   UNL     1      -3.487  13.772  21.135  0.00  0.00    +0.000 C 
ATOM     26  C   UNL     1      -4.398  13.405  22.273  0.00  0.00    +0.000 A 
ATOM     27  C   UNL     1      -5.764  13.694  22.256  0.00  0.00    +0.000 A 
ATOM     28  C   UNL     1      -6.567  13.300  23.325  0.00  0.00    +0.000 A 
ATOM     29  C   UNL     1      -6.006  12.630  24.415  0.00  0.00    +0.000 A 
ATOM     30  C   UNL     1      -4.639  12.357  24.444  0.00  0.00    +0.000 A 
ATOM     31  C   UNL     1      -3.827  12.736  23.371  0.00  0.00    +0.000 A 
ATOM     32  C   UNL     1      -2.341  12.475  23.368  0.00  0.00    +0.000 C 
ENDBRANCH  20  21
ENDBRANCH  19  20
ENDBRANCH   1  19
TORSDOF 4
ENDMDL
MODEL 3
REMARK VINA RESULT:      -8.4      4.302     10.363
REMARK  Name = 
REMARK  7 active torsions:
REMARK  status: ('A' for Active; 'I' for Inactive)
REMARK    1  A    between atoms: C_1  and  N_2
REMARK    2  A    between atoms: N_2  and  C_3
REMARK    3  A    between atoms: N_2  and  S_16
REMARK    4  A    between atoms: C_3  and  C_4
REMARK    5  A    between atoms: S_16  and  C_19
REMARK    6  A    between atoms: N_27  and  C_28
REMARK    7  A    between atoms: N_31  and  C_32
REMARK                            x       y       z     vdW  Elec       q    Type
REMARK                         _______ _______ _______ _____ _____    ______ ____
ROOT
ATOM      1  S   UNL     1      -0.714  12.106  18.988  0.00  0.00    +0.000 S 
ATOM      2  O   UNL     1       0.478  12.833  19.369  0.00  0.00    +0.000 OA
ATOM      3  O   UNL     1      -1.404  12.395  17.748  0.00  0.00    +0.000 OA
ENDROOT
BRANCH   1   4
ATOM      4  C   UNL     1      -1.874  12.280  20.325  0.00  0.00    +0.000 A 
ATOM      5  C   UNL     1      -1.491  12.023  21.640  0.00  0.00    +0.000 A 
ATOM      6  C   UNL     1      -2.422  12.180  22.673  0.00  0.00    +0.000 A 
ATOM      7  C   UNL     1      -3.750  12.560  22.401  0.00  0.00    +0.000 A 
ATOM      8  C   UNL     1      -4.113  12.782  21.073  0.00  0.00    +0.000 A 
ATOM      9  C   UNL     1      -3.183  12.658  20.031  0.00  0.00    +0.000 A 
ATOM     10  C   UNL     1      -5.507  13.128  20.755  0.00  0.00    +0.000 A 
ATOM     11  O   UNL     1      -5.811  13.358  19.586  0.00  0.00    +0.000 OA
ATOM     12  N   UNL     1      -6.395  13.163  21.813  0.00  0.00    +0.000 N 
ATOM     13  C   UNL     1      -7.796  13.418  21.527  0.00  0.00    +0.000 C 
ATOM     14  C   UNL     1      -6.053  13.013  23.153  0.00  0.00    +0.000 A 
ATOM     15  O   UNL     1      -6.891  13.136  24.047  0.00  0.00    +0.000 OA
ATOM     16  N   UNL     1      -4.719  12.715  23.428  0.00  0.00    +0.000 N 
ATOM     17  C   UNL     1      -4.329  12.552  24.822  0.00  0.00    +0.000 C 
ENDBRANCH   1   4
BRANCH   1  19
ATOM     18  C   UNL     1      -0.817   9.715  17.784  0.00  0.00    +0.000 C 
ATOM     19  N   UNL     1      -0.375  10.427  19.008  0.00  0.00    +0.000 NA
BRANCH  19  20
ATOM     20  C   UNL     1       1.051  10.154  19.367  0.00  0.00    +0.000 C 
BRANCH  20  21
ATOM     21  C   UNL     1       1.785   9.096  18.536  0.00  0.00    +0.000 C 
ATOM     22  O   UNL     1       2.198   9.325  17.396  0.00  0.00    +0.000 OA
ATOM     23  N   UNL     1       2.007   7.854  19.132  0.00  0.00    +0.000 N 
ATOM     24  C   UNL     1       1.662   7.548  20.527  0.00  0.00    +0.000 C 
ATOM     25  C   UNL     1       2.209   6.215  21.042  0.00  0.00    +0.000 C 
ATOM     26  C   UNL     1       1.847   5.131  20.065  0.00  0.00    +0.000 A 
ATOM     27  C   UNL     1       1.380   3.881  20.479  0.00  0.00    +0.000 A 
ATOM     28  C   UNL     1       1.026   2.927  19.527  0.00  0.00    +0.000 A 
ATOM     29  C   UNL     1       1.150   3.212  18.166  0.00  0.00    +0.000 A 
ATOM     30  C   UNL     1       1.635   4.452  17.749  0.00  0.00    +0.000 A 
ATOM     31  C   UNL     1       1.979   5.422  18.695  0.00  0.00    +0.000 A 
ATOM     32  C   UNL     1       2.522   6.770  18.290  0.00  0.00    +0.000 C 
ENDBRANCH  20  21
ENDBRANCH  19  20
ENDBRANCH   1  19
TORSDOF 4
ENDMDL
MODEL 4
REMARK VINA RESULT:      -8.4      3.453      4.826
REMARK  Name = 
REMARK  7 active torsions:
REMARK  status: ('A' for Active; 'I' for Inactive)
REMARK    1  A    between atoms: C_1  and  N_2
REMARK    2  A    between atoms: N_2  and  C_3
REMARK    3  A    between atoms: N_2  and  S_16
REMARK    4  A    between atoms: C_3  and  C_4
REMARK    5  A    between atoms: S_16  and  C_19
REMARK    6  A    between atoms: N_27  and  C_28
REMARK    7  A    between atoms: N_31  and  C_32
REMARK                            x       y       z     vdW  Elec       q    Type
REMARK                         _______ _______ _______ _____ _____    ______ ____
ROOT
ATOM      1  S   UNL     1       1.311   9.784  18.230  0.00  0.00    +0.000 S 
ATOM      2  O   UNL     1      -0.017   9.379  17.823  0.00  0.00    +0.000 OA
ATOM      3  O   UNL     1       2.057  10.770  17.476  0.00  0.00    +0.000 OA
ENDROOT
BRANCH   1   4
ATOM      4  C   UNL     1       2.292   8.305  18.335  0.00  0.00    +0.000 A 
ATOM      5  C   UNL     1       3.376   8.105  17.483  0.00  0.00    +0.000 A 
ATOM      6  C   UNL     1       4.138   6.935  17.596  0.00  0.00    +0.000 A 
ATOM      7  C   UNL     1       3.804   5.941  18.535  0.00  0.00    +0.000 A 
ATOM      8  C   UNL     1       2.695   6.155  19.354  0.00  0.00    +0.000 A 
ATOM      9  C   UNL     1       1.942   7.334  19.272  0.00  0.00    +0.000 A 
ATOM     10  C   UNL     1       2.292   5.108  20.306  0.00  0.00    +0.000 A 
ATOM     11  O   UNL     1       1.336   5.318  21.051  0.00  0.00    +0.000 OA
ATOM     12  N   UNL     1       3.026   3.937  20.291  0.00  0.00    +0.000 N 
ATOM     13  C   UNL     1       2.605   2.850  21.159  0.00  0.00    +0.000 C 
ATOM     14  C   UNL     1       4.174   3.720  19.536  0.00  0.00    +0.000 A 
ATOM     15  O   UNL     1       4.819   2.676  19.637  0.00  0.00    +0.000 OA
ATOM     16  N   UNL     1       4.550   4.740  18.663  0.00  0.00    +0.000 N 
ATOM     17  C   UNL     1       5.748   4.542  17.859  0.00  0.00    +0.000 C 
ENDBRANCH   1   4
BRANCH   1  19
ATOM     18  C   UNL     1       1.664  11.729  20.038  0.00  0.00    +0.000 C 
ATOM     19  N   UNL     1       1.262  10.312  19.858  0.00  0.00    +0.000 NA
BRANCH  19  20
ATOM     20  C   UNL     1      -0.045   9.984  20.506  0.00  0.00    +0.000 C 
BRANCH  20  21
ATOM     21  C   UNL     1      -0.342  10.659  21.851  0.00  0.00    +0.000 C 
ATOM     22  O   UNL     1       0.272  10.369  22.882  0.00  0.00    +0.000 OA
ATOM     23  N   UNL     1      -1.319  11.653  21.867  0.00  0.00    +0.000 N 
ATOM     24  C   UNL     1      -2.000  12.145  20.661  0.00  0.00    +0.000 C 
ATOM     25  C   UNL     1      -2.854  13.396  20.875  0.00  0.00    +0.000 C 
ATOM     26  C   UNL     1      -3.766  13.168  22.048  0.00  0.00    +0.000 A 
ATOM     27  C   UNL     1      -5.109  13.551  22.032  0.00  0.00    +0.000 A 
ATOM     28  C   UNL     1      -5.917  13.282  23.137  0.00  0.00    +0.000 A 
ATOM     29  C   UNL     1      -5.383  12.645  24.259  0.00  0.00    +0.000 A 
ATOM     30  C   UNL     1      -4.037  12.278  24.285  0.00  0.00    +0.000 A 
ATOM     31  C   UNL     1      -3.222  12.531  23.178  0.00  0.00    +0.000 A 
ATOM     32  C   UNL     1      -1.758  12.165  23.169  0.00  0.00    +0.000 C 
ENDBRANCH  20  21
ENDBRANCH  19  20
ENDBRANCH   1  19
TORSDOF 4
ENDMDL
MODEL 5
REMARK VINA RESULT:      -8.2      1.922      2.832
REMARK  Name = 
REMARK  7 active torsions:
REMARK  status: ('A' for Active; 'I' for Inactive)
REMARK    1  A    between atoms: C_1  and  N_2
REMARK    2  A    between atoms: N_2  and  C_3
REMARK    3  A    between atoms: N_2  and  S_16
REMARK    4  A    between atoms: C_3  and  C_4
REMARK    5  A    between atoms: S_16  and  C_19
REMARK    6  A    between atoms: N_27  and  C_28
REMARK    7  A    between atoms: N_31  and  C_32
REMARK                            x       y       z     vdW  Elec       q    Type
REMARK                         _______ _______ _______ _____ _____    ______ ____
ROOT
ATOM      1  S   UNL     1       0.438   9.620  20.733  0.00  0.00    +0.000 S 
ATOM      2  O   UNL     1       1.274  10.352  21.660  0.00  0.00    +0.000 OA
ATOM      3  O   UNL     1      -0.689   8.838  21.199  0.00  0.00    +0.000 OA
ENDROOT
BRANCH   1   4
ATOM      4  C   UNL     1       1.512   8.551  19.803  0.00  0.00    +0.000 A 
ATOM      5  C   UNL     1       2.047   8.962  18.584  0.00  0.00    +0.000 A 
ATOM      6  C   UNL     1       2.899   8.104  17.879  0.00  0.00    +0.000 A 
ATOM      7  C   UNL     1       3.196   6.817  18.366  0.00  0.00    +0.000 A 
ATOM      8  C   UNL     1       2.623   6.421  19.574  0.00  0.00    +0.000 A 
ATOM      9  C   UNL     1       1.792   7.281  20.305  0.00  0.00    +0.000 A 
ATOM     10  C   UNL     1       2.874   5.062  20.079  0.00  0.00    +0.000 A 
ATOM     11  O   UNL     1       2.396   4.733  21.162  0.00  0.00    +0.000 OA
ATOM     12  N   UNL     1       3.640   4.234  19.280  0.00  0.00    +0.000 N 
ATOM     13  C   UNL     1       3.838   2.859  19.706  0.00  0.00    +0.000 C 
ATOM     14  C   UNL     1       4.279   4.619  18.106  0.00  0.00    +0.000 A 
ATOM     15  O   UNL     1       5.010   3.842  17.490  0.00  0.00    +0.000 OA
ATOM     16  N   UNL     1       4.047   5.920  17.666  0.00  0.00    +0.000 N 
ATOM     17  C   UNL     1       4.703   6.353  16.439  0.00  0.00    +0.000 C 
ENDBRANCH   1   4
BRANCH   1  19
ATOM     18  C   UNL     1      -1.362  10.211  18.838  0.00  0.00    +0.000 C 
ATOM     19  N   UNL     1      -0.144  10.695  19.534  0.00  0.00    +0.000 NA
BRANCH  19  20
ATOM     20  C   UNL     1      -0.280  12.089  20.060  0.00  0.00    +0.000 C 
BRANCH  20  21
ATOM     21  C   UNL     1       0.244  13.221  19.168  0.00  0.00    +0.000 C 
ATOM     22  O   UNL     1      -0.302  13.526  18.104  0.00  0.00    +0.000 OA
ATOM     23  N   UNL     1       1.355  13.931  19.622  0.00  0.00    +0.000 N 
ATOM     24  C   UNL     1       1.979  13.715  20.934  0.00  0.00    +0.000 C 
ATOM     25  C   UNL     1       3.026  14.760  21.324  0.00  0.00    +0.000 C 
ATOM     26  C   UNL     1       4.005  14.912  20.194  0.00  0.00    +0.000 A 
ATOM     27  C   UNL     1       5.382  15.006  20.409  0.00  0.00    +0.000 A 
ATOM     28  C   UNL     1       6.246  15.111  19.319  0.00  0.00    +0.000 A 
ATOM     29  C   UNL     1       5.737  15.136  18.019  0.00  0.00    +0.000 A 
ATOM     30  C   UNL     1       4.361  15.062  17.802  0.00  0.00    +0.000 A 
ATOM     31  C   UNL     1       3.487  14.943  18.886  0.00  0.00    +0.000 A 
ATOM     32  C   UNL     1       1.991  14.876  18.698  0.00  0.00    +0.000 C 
ENDBRANCH  20  21
ENDBRANCH  19  20
ENDBRANCH   1  19
TORSDOF 4
ENDMDL
MODEL 6
REMARK VINA RESULT:      -8.1      3.906     10.086
REMARK  Name = 
REMARK  7 active torsions:
REMARK  status: ('A' for Active; 'I' for Inactive)
REMARK    1  A    between atoms: C_1  and  N_2
REMARK    2  A    between atoms: N_2  and  C_3
REMARK    3  A    between atoms: N_2  and  S_16
REMARK    4  A    between atoms: C_3  and  C_4
REMARK    5  A    between atoms: S_16  and  C_19
REMARK    6  A    between atoms: N_27  and  C_28
REMARK    7  A    between atoms: N_31  and  C_32
REMARK                            x       y       z     vdW  Elec       q    Type
REMARK                         _______ _______ _______ _____ _____    ______ ____
ROOT
ATOM      1  S   UNL     1       1.068  11.851  20.189  0.00  0.00    +0.000 S 
ATOM      2  O   UNL     1       1.801  12.669  21.131  0.00  0.00    +0.000 OA
ATOM      3  O   UNL     1       1.328  11.932  18.766  0.00  0.00    +0.000 OA
ENDROOT
BRANCH   1   4
ATOM      4  C   UNL     1      -0.659  12.175  20.459  0.00  0.00    +0.000 A 
ATOM      5  C   UNL     1      -1.109  12.671  21.681  0.00  0.00    +0.000 A 
ATOM      6  C   UNL     1      -2.474  12.927  21.862  0.00  0.00    +0.000 A 
ATOM      7  C   UNL     1      -3.404  12.658  20.840  0.00  0.00    +0.000 A 
ATOM      8  C   UNL     1      -2.928  12.134  19.638  0.00  0.00    +0.000 A 
ATOM      9  C   UNL     1      -1.561  11.901  19.432  0.00  0.00    +0.000 A 
ATOM     10  C   UNL     1      -3.884  11.794  18.573  0.00  0.00    +0.000 A 
ATOM     11  O   UNL     1      -3.455  11.367  17.503  0.00  0.00    +0.000 OA
ATOM     12  N   UNL     1      -5.224  11.975  18.859  0.00  0.00    +0.000 N 
ATOM     13  C   UNL     1      -6.201  11.572  17.862  0.00  0.00    +0.000 C 
ATOM     14  C   UNL     1      -5.725  12.557  20.018  0.00  0.00    +0.000 A 
ATOM     15  O   UNL     1      -6.931  12.757  20.166  0.00  0.00    +0.000 OA
ATOM     16  N   UNL     1      -4.795  12.896  20.999  0.00  0.00    +0.000 N 
ATOM     17  C   UNL     1      -5.288  13.507  22.226  0.00  0.00    +0.000 C 
ENDBRANCH   1   4
BRANCH   1  19
ATOM     18  C   UNL     1       0.571   9.888  21.944  0.00  0.00    +0.000 C 
ATOM     19  N   UNL     1       1.213  10.207  20.644  0.00  0.00    +0.000 NA
BRANCH  19  20
ATOM     20  C   UNL     1       0.795   9.288  19.540  0.00  0.00    +0.000 C 
BRANCH  20  21
ATOM     21  C   UNL     1       1.903   8.478  18.855  0.00  0.00    +0.000 C 
ATOM     22  O   UNL     1       2.588   8.942  17.940  0.00  0.00    +0.000 OA
ATOM     23  N   UNL     1       2.140   7.189  19.332  0.00  0.00    +0.000 N 
ATOM     24  C   UNL     1       1.458   6.613  20.499  0.00  0.00    +0.000 C 
ATOM     25  C   UNL     1       2.041   5.286  20.990  0.00  0.00    +0.000 C 
ATOM     26  C   UNL     1       2.161   4.347  19.822  0.00  0.00    +0.000 A 
ATOM     27  C   UNL     1       1.804   3.000  19.910  0.00  0.00    +0.000 A 
ATOM     28  C   UNL     1       1.904   2.184  18.785  0.00  0.00    +0.000 A 
ATOM     29  C   UNL     1       2.373   2.707  17.577  0.00  0.00    +0.000 A 
ATOM     30  C   UNL     1       2.749   4.047  17.491  0.00  0.00    +0.000 A 
ATOM     31  C   UNL     1       2.639   4.878  18.610  0.00  0.00    +0.000 A 
ATOM     32  C   UNL     1       3.049   6.329  18.566  0.00  0.00    +0.000 C 
ENDBRANCH  20  21
ENDBRANCH  19  20
ENDBRANCH   1  19
TORSDOF 4
ENDMDL
MODEL 7
REMARK VINA RESULT:      -8.0      3.872      9.948
REMARK  Name = 
REMARK  7 active torsions:
REMARK  status: ('A' for Active; 'I' for Inactive)
REMARK    1  A    between atoms: C_1  and  N_2
REMARK    2  A    between atoms: N_2  and  C_3
REMARK    3  A    between atoms: N_2  and  S_16
REMARK    4  A    between atoms: C_3  and  C_4
REMARK    5  A    between atoms: S_16  and  C_19
REMARK    6  A    between atoms: N_27  and  C_28
REMARK    7  A    between atoms: N_31  and  C_32
REMARK                            x       y       z     vdW  Elec       q    Type
REMARK                         _______ _______ _______ _____ _____    ______ ____
ROOT
ATOM      1  S   UNL     1       0.996  11.956  20.053  0.00  0.00    +0.000 S 
ATOM      2  O   UNL     1       1.129  12.792  21.226  0.00  0.00    +0.000 OA
ATOM      3  O   UNL     1       1.778  12.207  18.860  0.00  0.00    +0.000 OA
ENDROOT
BRANCH   1   4
ATOM      4  C   UNL     1      -0.724  11.968  19.604  0.00  0.00    +0.000 A 
ATOM      5  C   UNL     1      -1.122  11.695  18.296  0.00  0.00    +0.000 A 
ATOM      6  C   UNL     1      -2.485  11.700  17.974  0.00  0.00    +0.000 A 
ATOM      7  C   UNL     1      -3.458  12.011  18.942  0.00  0.00    +0.000 A 
ATOM      8  C   UNL     1      -3.028  12.309  20.235  0.00  0.00    +0.000 A 
ATOM      9  C   UNL     1      -1.670  12.278  20.580  0.00  0.00    +0.000 A 
ATOM     10  C   UNL     1      -4.020  12.690  21.254  0.00  0.00    +0.000 A 
ATOM     11  O   UNL     1      -3.638  12.915  22.400  0.00  0.00    +0.000 OA
ATOM     12  N   UNL     1      -5.335  12.775  20.839  0.00  0.00    +0.000 N 
ATOM     13  C   UNL     1      -6.330  13.229  21.795  0.00  0.00    +0.000 C 
ATOM     14  C   UNL     1      -5.803  12.421  19.578  0.00  0.00    +0.000 A 
ATOM     15  O   UNL     1      -7.004  12.450  19.308  0.00  0.00    +0.000 OA
ATOM     16  N   UNL     1      -4.845  12.036  18.641  0.00  0.00    +0.000 N 
ATOM     17  C   UNL     1      -5.304  11.659  17.311  0.00  0.00    +0.000 C 
ENDBRANCH   1   4
BRANCH   1  19
ATOM     18  C   UNL     1       0.730   9.982  21.846  0.00  0.00    +0.000 C 
ATOM     19  N   UNL     1       1.251  10.322  20.499  0.00  0.00    +0.000 NA
BRANCH  19  20
ATOM     20  C   UNL     1       0.790   9.379  19.433  0.00  0.00    +0.000 C 
BRANCH  20  21
ATOM     21  C   UNL     1       1.872   8.568  18.708  0.00  0.00    +0.000 C 
ATOM     22  O   UNL     1       2.502   9.022  17.750  0.00  0.00    +0.000 OA
ATOM     23  N   UNL     1       2.150   7.292  19.197  0.00  0.00    +0.000 N 
ATOM     24  C   UNL     1       1.537   6.733  20.410  0.00  0.00    +0.000 C 
ATOM     25  C   UNL     1       2.161   5.423  20.896  0.00  0.00    +0.000 C 
ATOM     26  C   UNL     1       2.234   4.462  19.742  0.00  0.00    +0.000 A 
ATOM     27  C   UNL     1       1.899   3.112  19.875  0.00  0.00    +0.000 A 
ATOM     28  C   UNL     1       1.952   2.275  18.762  0.00  0.00    +0.000 A 
ATOM     29  C   UNL     1       2.350   2.778  17.522  0.00  0.00    +0.000 A 
ATOM     30  C   UNL     1       2.703   4.121  17.390  0.00  0.00    +0.000 A 
ATOM     31  C   UNL     1       2.641   4.973  18.497  0.00  0.00    +0.000 A 
ATOM     32  C   UNL     1       3.029   6.428  18.402  0.00  0.00    +0.000 C 
ENDBRANCH  20  21
ENDBRANCH  19  20
ENDBRANCH   1  19
TORSDOF 4
ENDMDL
MODEL 8
REMARK VINA RESULT:      -8.0      3.378      4.368
REMARK  Name = 
REMARK  7 active torsions:
REMARK  status: ('A' for Active; 'I' for Inactive)
REMARK    1  A    between atoms: C_1  and  N_2
REMARK    2  A    between atoms: N_2  and  C_3
REMARK    3  A    between atoms: N_2  and  S_16
REMARK    4  A    between atoms: C_3  and  C_4
REMARK    5  A    between atoms: S_16  and  C_19
REMARK    6  A    between atoms: N_27  and  C_28
REMARK    7  A    between atoms: N_31  and  C_32
REMARK                            x       y       z     vdW  Elec       q    Type
REMARK                         _______ _______ _______ _____ _____    ______ ____
ROOT
ATOM      1  S   UNL     1       0.454   8.899  21.527  0.00  0.00    +0.000 S 
ATOM      2  O   UNL     1       1.292   9.269  22.647  0.00  0.00    +0.000 OA
ATOM      3  O   UNL     1      -0.773   8.155  21.723  0.00  0.00    +0.000 OA
ENDROOT
BRANCH   1   4
ATOM      4  C   UNL     1       1.480   7.992  20.393  0.00  0.00    +0.000 A 
ATOM      5  C   UNL     1       1.958   8.590  19.229  0.00  0.00    +0.000 A 
ATOM      6  C   UNL     1       2.774   7.855  18.359  0.00  0.00    +0.000 A 
ATOM      7  C   UNL     1       3.091   6.510  18.626  0.00  0.00    +0.000 A 
ATOM      8  C   UNL     1       2.574   5.928  19.784  0.00  0.00    +0.000 A 
ATOM      9  C   UNL     1       1.780   6.661  20.678  0.00  0.00    +0.000 A 
ATOM     10  C   UNL     1       2.844   4.509  20.059  0.00  0.00    +0.000 A 
ATOM     11  O   UNL     1       2.417   4.013  21.099  0.00  0.00    +0.000 OA
ATOM     12  N   UNL     1       3.569   3.818  19.106  0.00  0.00    +0.000 N 
ATOM     13  C   UNL     1       3.784   2.395  19.304  0.00  0.00    +0.000 C 
ATOM     14  C   UNL     1       4.153   4.383  17.978  0.00  0.00    +0.000 A 
ATOM     15  O   UNL     1       4.852   3.715  17.215  0.00  0.00    +0.000 OA
ATOM     16  N   UNL     1       3.905   5.736  17.757  0.00  0.00    +0.000 N 
ATOM     17  C   UNL     1       4.504   6.357  16.583  0.00  0.00    +0.000 C 
ENDBRANCH   1   4
BRANCH   1  19
ATOM     18  C   UNL     1      -1.103  10.136  19.731  0.00  0.00    +0.000 C 
ATOM     19  N   UNL     1       0.065  10.305  20.631  0.00  0.00    +0.000 NA
BRANCH  19  20
ATOM     20  C   UNL     1      -0.038  11.510  21.511  0.00  0.00    +0.000 C 
BRANCH  20  21
ATOM     21  C   UNL     1      -1.296  11.628  22.381  0.00  0.00    +0.000 C 
ATOM     22  O   UNL     1      -1.487  10.904  23.361  0.00  0.00    +0.000 OA
ATOM     23  N   UNL     1      -2.216  12.621  22.044  0.00  0.00    +0.000 N 
ATOM     24  C   UNL     1      -1.998  13.605  20.975  0.00  0.00    +0.000 C 
ATOM     25  C   UNL     1      -3.019  14.744  20.938  0.00  0.00    +0.000 C 
ATOM     26  C   UNL     1      -4.403  14.158  20.963  0.00  0.00    +0.000 A 
ATOM     27  C   UNL     1      -5.429  14.636  20.146  0.00  0.00    +0.000 A 
ATOM     28  C   UNL     1      -6.684  14.031  20.187  0.00  0.00    +0.000 A 
ATOM     29  C   UNL     1      -6.919  12.959  21.052  0.00  0.00    +0.000 A 
ATOM     30  C   UNL     1      -5.902  12.491  21.884  0.00  0.00    +0.000 A 
ATOM     31  C   UNL     1      -4.635  13.083  21.840  0.00  0.00    +0.000 A 
ATOM     32  C   UNL     1      -3.511  12.619  22.733  0.00  0.00    +0.000 C 
ENDBRANCH  20  21
ENDBRANCH  19  20
ENDBRANCH   1  19
TORSDOF 4
ENDMDL
MODEL 9
REMARK VINA RESULT:      -7.9      1.060      2.068
REMARK  Name = 
REMARK  7 active torsions:
REMARK  status: ('A' for Active; 'I' for Inactive)
REMARK    1  A    between atoms: C_1  and  N_2
REMARK    2  A    between atoms: N_2  and  C_3
REMARK    3  A    between atoms: N_2  and  S_16
REMARK    4  A    between atoms: C_3  and  C_4
REMARK    5  A    between atoms: S_16  and  C_19
REMARK    6  A    between atoms: N_27  and  C_28
REMARK    7  A    between atoms: N_31  and  C_32
REMARK                            x       y       z     vdW  Elec       q    Type
REMARK                         _______ _______ _______ _____ _____    ______ ____
ROOT
ATOM      1  S   UNL     1       0.281  10.396  20.708  0.00  0.00    +0.000 S 
ATOM      2  O   UNL     1       0.684  10.770  22.046  0.00  0.00    +0.000 OA
ATOM      3  O   UNL     1      -1.118  10.282  20.351  0.00  0.00    +0.000 OA
ENDROOT
BRANCH   1   4
ATOM      4  C   UNL     1       1.077   8.848  20.343  0.00  0.00    +0.000 A 
ATOM      5  C   UNL     1       0.971   7.768  21.217  0.00  0.00    +0.000 A 
ATOM      6  C   UNL     1       1.599   6.558  20.899  0.00  0.00    +0.000 A 
ATOM      7  C   UNL     1       2.365   6.425  19.726  0.00  0.00    +0.000 A 
ATOM      8  C   UNL     1       2.479   7.532  18.885  0.00  0.00    +0.000 A 
ATOM      9  C   UNL     1       1.831   8.741  19.176  0.00  0.00    +0.000 A 
ATOM     10  C   UNL     1       3.318   7.438  17.680  0.00  0.00    +0.000 A 
ATOM     11  O   UNL     1       3.383   8.405  16.924  0.00  0.00    +0.000 OA
ATOM     12  N   UNL     1       3.991   6.247  17.483  0.00  0.00    +0.000 N 
ATOM     13  C   UNL     1       4.894   6.147  16.349  0.00  0.00    +0.000 C 
ATOM     14  C   UNL     1       3.847   5.106  18.264  0.00  0.00    +0.000 A 
ATOM     15  O   UNL     1       4.423   4.056  17.977  0.00  0.00    +0.000 OA
ATOM     16  N   UNL     1       3.023   5.214  19.383  0.00  0.00    +0.000 N 
ATOM     17  C   UNL     1       2.852   4.035  20.222  0.00  0.00    +0.000 C 
ENDBRANCH   1   4
BRANCH   1  19
ATOM     18  C   UNL     1       0.085  11.951  18.535  0.00  0.00    +0.000 C 
ATOM     19  N   UNL     1       1.013  11.462  19.585  0.00  0.00    +0.000 NA
BRANCH  19  20
ATOM     20  C   UNL     1       1.758  12.562  20.271  0.00  0.00    +0.000 C 
BRANCH  20  21
ATOM     21  C   UNL     1       0.987  13.861  20.539  0.00  0.00    +0.000 C 
ATOM     22  O   UNL     1       0.061  13.920  21.352  0.00  0.00    +0.000 OA
ATOM     23  N   UNL     1       1.395  15.001  19.847  0.00  0.00    +0.000 N 
ATOM     24  C   UNL     1       2.567  15.041  18.963  0.00  0.00    +0.000 C 
ATOM     25  C   UNL     1       2.972  16.443  18.501  0.00  0.00    +0.000 C 
ATOM     26  C   UNL     1       1.760  17.141  17.950  0.00  0.00    +0.000 A 
ATOM     27  C   UNL     1       1.806  17.900  16.778  0.00  0.00    +0.000 A 
ATOM     28  C   UNL     1       0.642  18.496  16.295  0.00  0.00    +0.000 A 
ATOM     29  C   UNL     1      -0.562  18.349  16.986  0.00  0.00    +0.000 A 
ATOM     30  C   UNL     1      -0.608  17.607  18.167  0.00  0.00    +0.000 A 
ATOM     31  C   UNL     1       0.550  16.993  18.653  0.00  0.00    +0.000 A 
ATOM     32  C   UNL     1       0.549  16.197  19.934  0.00  0.00    +0.000 C 
ENDBRANCH  20  21
ENDBRANCH  19  20
ENDBRANCH   1  19
TORSDOF 4
ENDMDL
