MODEL 1
REMARK VINA RESULT:      -8.6      0.000      0.000
REMARK  Name = 
REMARK  3 active torsions:
REMARK  status: ('A' for Active; 'I' for Inactive)
REMARK    1  A    between atoms: C_4  and  C_5
REMARK    2  A    between atoms: C_12  and  C_13
REMARK    3  A    between atoms: C_14  and  C_15
REMARK                            x       y       z     vdW  Elec       q    Type
REMARK                         _______ _______ _______ _____ _____    ______ ____
ROOT
ATOM      1  O   UNL     1       7.805   4.683  18.671  0.00  0.00    +0.000 OA
ATOM      2  C   UNL     1       6.717   5.218  18.463  0.00  0.00    +0.000 C 
ATOM      3  C   UNL     1       5.476   4.512  18.860  0.00  0.00    +0.000 C 
ATOM      4  C   UNL     1       4.278   5.078  18.638  0.00  0.00    +0.000 C 
ATOM      5  C   UNL     1       4.089   6.403  17.944  0.00  0.00    +0.000 C 
ATOM      6  C   UNL     1       5.307   6.799  17.085  0.00  0.00    +0.000 C 
ATOM      7  C   UNL     1       6.602   6.611  17.882  0.00  0.00    +0.000 C 
ENDROOT
BRANCH   4   8
ATOM      8  C   UNL     1       3.074   4.349  19.052  0.00  0.00    +0.000 A 
ATOM      9  C   UNL     1       2.399   3.534  18.138  0.00  0.00    +0.000 A 
ATOM     10  C   UNL     1       1.218   2.889  18.512  0.00  0.00    +0.000 A 
ATOM     11  C   UNL     1       0.708   3.056  19.798  0.00  0.00    +0.000 A 
ATOM     12  C   UNL     1       1.380   3.862  20.716  0.00  0.00    +0.000 A 
ATOM     13  C   UNL     1       2.561   4.507  20.345  0.00  0.00    +0.000 A 
ENDBRANCH   4   8
BRANCH   6  14
ATOM     14  C   UNL     1       5.339   6.005  15.793  0.00  0.00    +0.000 C 
ATOM     15  C   UNL     1       6.441   5.454  15.257  0.00  0.00    +0.000 C 
BRANCH  15  16
ATOM     16  C   UNL     1       6.436   4.711  13.987  0.00  0.00    +0.000 A 
ATOM     17  C   UNL     1       5.368   3.850  13.707  0.00  0.00    +0.000 A 
ATOM     18  C   UNL     1       5.331   3.126  12.512  0.00  0.00    +0.000 A 
ATOM     19  C   UNL     1       6.356   3.259  11.580  0.00  0.00    +0.000 A 
ATOM     20  C   UNL     1       7.413   4.129  11.834  0.00  0.00    +0.000 A 
ATOM     21  C   UNL     1       7.448   4.858  13.025  0.00  0.00    +0.000 A 
ENDBRANCH  15  16
ENDBRANCH   6  14
TORSDOF 3
ENDMDL
MODEL 2
REMARK VINA RESULT:      -8.6      0.106      1.060
REMARK  Name = 
REMARK  3 active torsions:
REMARK  status: ('A' for Active; 'I' for Inactive)
REMARK    1  A    between atoms: C_4  and  C_5
REMARK    2  A    between atoms: C_12  and  C_13
REMARK    3  A    between atoms: C_14  and  C_15
REMARK                            x       y       z     vdW  Elec       q    Type
REMARK                         _______ _______ _______ _____ _____    ______ ____
ROOT
ATOM      1  O   UNL     1       7.729   4.688  18.800  0.00  0.00    +0.000 OA
ATOM      2  C   UNL     1       6.662   5.246  18.554  0.00  0.00    +0.000 C 
ATOM      3  C   UNL     1       5.393   4.585  18.942  0.00  0.00    +0.000 C 
ATOM      4  C   UNL     1       4.216   5.177  18.679  0.00  0.00    +0.000 C 
ATOM      5  C   UNL     1       4.079   6.487  17.946  0.00  0.00    +0.000 C 
ATOM      6  C   UNL     1       5.326   6.827  17.104  0.00  0.00    +0.000 C 
ATOM      7  C   UNL     1       6.598   6.626  17.935  0.00  0.00    +0.000 C 
ENDROOT
BRANCH   4   8
ATOM      8  C   UNL     1       2.984   4.492  19.085  0.00  0.00    +0.000 A 
ATOM      9  C   UNL     1       2.505   4.626  20.392  0.00  0.00    +0.000 A 
ATOM     10  C   UNL     1       1.367   3.926  20.798  0.00  0.00    +0.000 A 
ATOM     11  C   UNL     1       0.704   3.092  19.900  0.00  0.00    +0.000 A 
ATOM     12  C   UNL     1       1.172   2.960  18.593  0.00  0.00    +0.000 A 
ATOM     13  C   UNL     1       2.309   3.658  18.185  0.00  0.00    +0.000 A 
ENDBRANCH   4   8
BRANCH   6  14
ATOM     14  C   UNL     1       5.363   5.998  15.835  0.00  0.00    +0.000 C 
ATOM     15  C   UNL     1       6.483   5.555  15.239  0.00  0.00    +0.000 C 
BRANCH  15  16
ATOM     16  C   UNL     1       6.480   4.774  13.992  0.00  0.00    +0.000 A 
ATOM     17  C   UNL     1       5.425   3.885  13.750  0.00  0.00    +0.000 A 
ATOM     18  C   UNL     1       5.391   3.123  12.579  0.00  0.00    +0.000 A 
ATOM     19  C   UNL     1       6.404   3.247  11.632  0.00  0.00    +0.000 A 
ATOM     20  C   UNL     1       7.447   4.144  11.848  0.00  0.00    +0.000 A 
ATOM     21  C   UNL     1       7.479   4.909  13.016  0.00  0.00    +0.000 A 
ENDBRANCH  15  16
ENDBRANCH   6  14
TORSDOF 3
ENDMDL
MODEL 3
REMARK VINA RESULT:      -8.6      0.171      1.486
REMARK  Name = 
REMARK  3 active torsions:
REMARK  status: ('A' for Active; 'I' for Inactive)
REMARK    1  A    between atoms: C_4  and  C_5
REMARK    2  A    between atoms: C_12  and  C_13
REMARK    3  A    between atoms: C_14  and  C_15
REMARK                            x       y       z     vdW  Elec       q    Type
REMARK                         _______ _______ _______ _____ _____    ______ ____
ROOT
ATOM      1  O   UNL     1       7.742   4.563  18.682  0.00  0.00    +0.000 OA
ATOM      2  C   UNL     1       6.678   5.145  18.476  0.00  0.00    +0.000 C 
ATOM      3  C   UNL     1       5.405   4.472  18.827  0.00  0.00    +0.000 C 
ATOM      4  C   UNL     1       4.233   5.089  18.608  0.00  0.00    +0.000 C 
ATOM      5  C   UNL     1       4.104   6.444  17.960  0.00  0.00    +0.000 C 
ATOM      6  C   UNL     1       5.350   6.826  17.136  0.00  0.00    +0.000 C 
ATOM      7  C   UNL     1       6.624   6.562  17.946  0.00  0.00    +0.000 C 
ENDROOT
BRANCH   4   8
ATOM      8  C   UNL     1       2.996   4.391  18.975  0.00  0.00    +0.000 A 
ATOM      9  C   UNL     1       2.321   4.731  20.152  0.00  0.00    +0.000 A 
ATOM     10  C   UNL     1       1.178   4.026  20.535  0.00  0.00    +0.000 A 
ATOM     11  C   UNL     1       0.706   2.980  19.744  0.00  0.00    +0.000 A 
ATOM     12  C   UNL     1       1.370   2.640  18.566  0.00  0.00    +0.000 A 
ATOM     13  C   UNL     1       2.512   3.344  18.181  0.00  0.00    +0.000 A 
ENDBRANCH   4   8
BRANCH   6  14
ATOM     14  C   UNL     1       5.376   6.078  15.816  0.00  0.00    +0.000 C 
ATOM     15  C   UNL     1       6.426   5.385  15.346  0.00  0.00    +0.000 C 
BRANCH  15  16
ATOM     16  C   UNL     1       6.421   4.693  14.047  0.00  0.00    +0.000 A 
ATOM     17  C   UNL     1       7.464   4.939  13.144  0.00  0.00    +0.000 A 
ATOM     18  C   UNL     1       7.491   4.303  11.899  0.00  0.00    +0.000 A 
ATOM     19  C   UNL     1       6.483   3.411  11.545  0.00  0.00    +0.000 A 
ATOM     20  C   UNL     1       5.453   3.139  12.442  0.00  0.00    +0.000 A 
ATOM     21  C   UNL     1       5.428   3.769  13.688  0.00  0.00    +0.000 A 
ENDBRANCH  15  16
ENDBRANCH   6  14
TORSDOF 3
ENDMDL
MODEL 4
REMARK VINA RESULT:      -8.6      0.253      1.076
REMARK  Name = 
REMARK  3 active torsions:
REMARK  status: ('A' for Active; 'I' for Inactive)
REMARK    1  A    between atoms: C_4  and  C_5
REMARK    2  A    between atoms: C_12  and  C_13
REMARK    3  A    between atoms: C_14  and  C_15
REMARK                            x       y       z     vdW  Elec       q    Type
REMARK                         _______ _______ _______ _____ _____    ______ ____
ROOT
ATOM      1  O   UNL     1       7.815   4.608  18.711  0.00  0.00    +0.000 OA
ATOM      2  C   UNL     1       6.732   5.154  18.513  0.00  0.00    +0.000 C 
ATOM      3  C   UNL     1       5.484   4.430  18.852  0.00  0.00    +0.000 C 
ATOM      4  C   UNL     1       4.289   5.008  18.640  0.00  0.00    +0.000 C 
ATOM      5  C   UNL     1       4.113   6.367  18.013  0.00  0.00    +0.000 C 
ATOM      6  C   UNL     1       5.345   6.806  17.196  0.00  0.00    +0.000 C 
ATOM      7  C   UNL     1       6.627   6.576  18.004  0.00  0.00    +0.000 C 
ENDROOT
BRANCH   4   8
ATOM      8  C   UNL     1       3.079   4.260  18.995  0.00  0.00    +0.000 A 
ATOM      9  C   UNL     1       2.662   3.184  18.205  0.00  0.00    +0.000 A 
ATOM     10  C   UNL     1       1.476   2.510  18.506  0.00  0.00    +0.000 A 
ATOM     11  C   UNL     1       0.704   2.908  19.595  0.00  0.00    +0.000 A 
ATOM     12  C   UNL     1       1.118   3.976  20.391  0.00  0.00    +0.000 A 
ATOM     13  C   UNL     1       2.303   4.651  20.094  0.00  0.00    +0.000 A 
ENDBRANCH   4   8
BRANCH   6  14
ATOM     14  C   UNL     1       5.398   6.080  15.866  0.00  0.00    +0.000 C 
ATOM     15  C   UNL     1       6.459   5.397  15.405  0.00  0.00    +0.000 C 
BRANCH  15  16
ATOM     16  C   UNL     1       6.482   4.727  14.095  0.00  0.00    +0.000 A 
ATOM     17  C   UNL     1       7.497   5.051  13.185  0.00  0.00    +0.000 A 
ATOM     18  C   UNL     1       7.548   4.437  11.929  0.00  0.00    +0.000 A 
ATOM     19  C   UNL     1       6.594   3.489  11.572  0.00  0.00    +0.000 A 
ATOM     20  C   UNL     1       5.593   3.141  12.476  0.00  0.00    +0.000 A 
ATOM     21  C   UNL     1       5.544   3.749  13.732  0.00  0.00    +0.000 A 
ENDBRANCH  15  16
ENDBRANCH   6  14
TORSDOF 3
ENDMDL
MODEL 5
REMARK VINA RESULT:      -8.6      0.837      1.037
REMARK  Name = 
REMARK  3 active torsions:
REMARK  status: ('A' for Active; 'I' for Inactive)
REMARK    1  A    between atoms: C_4  and  C_5
REMARK    2  A    between atoms: C_12  and  C_13
REMARK    3  A    between atoms: C_14  and  C_15
REMARK                            x       y       z     vdW  Elec       q    Type
REMARK                         _______ _______ _______ _____ _____    ______ ____
ROOT
ATOM      1  O   UNL     1       8.018   4.295  18.054  0.00  0.00    +0.000 OA
ATOM      2  C   UNL     1       6.969   4.869  17.771  0.00  0.00    +0.000 C 
ATOM      3  C   UNL     1       5.698   4.388  18.363  0.00  0.00    +0.000 C 
ATOM      4  C   UNL     1       4.540   4.999  18.064  0.00  0.00    +0.000 C 
ATOM      5  C   UNL     1       4.421   6.149  17.096  0.00  0.00    +0.000 C 
ATOM      6  C   UNL     1       5.616   6.230  16.125  0.00  0.00    +0.000 C 
ATOM      7  C   UNL     1       6.936   6.104  16.895  0.00  0.00    +0.000 C 
ENDROOT
BRANCH   4   8
ATOM      8  C   UNL     1       3.306   4.496  18.677  0.00  0.00    +0.000 A 
ATOM      9  C   UNL     1       2.335   3.871  17.887  0.00  0.00    +0.000 A 
ATOM     10  C   UNL     1       1.133   3.446  18.457  0.00  0.00    +0.000 A 
ATOM     11  C   UNL     1       0.896   3.645  19.816  0.00  0.00    +0.000 A 
ATOM     12  C   UNL     1       1.863   4.262  20.610  0.00  0.00    +0.000 A 
ATOM     13  C   UNL     1       3.065   4.686  20.043  0.00  0.00    +0.000 A 
ENDBRANCH   4   8
BRANCH   6  14
ATOM     14  C   UNL     1       5.509   5.169  15.046  0.00  0.00    +0.000 C 
ATOM     15  C   UNL     1       6.412   4.969  14.072  0.00  0.00    +0.000 C 
BRANCH  15  16
ATOM     16  C   UNL     1       6.260   3.946  13.026  0.00  0.00    +0.000 A 
ATOM     17  C   UNL     1       4.970   3.549  12.648  0.00  0.00    +0.000 A 
ATOM     18  C   UNL     1       4.786   2.576  11.661  0.00  0.00    +0.000 A 
ATOM     19  C   UNL     1       5.885   1.996  11.034  0.00  0.00    +0.000 A 
ATOM     20  C   UNL     1       7.172   2.398  11.383  0.00  0.00    +0.000 A 
ATOM     21  C   UNL     1       7.357   3.373  12.366  0.00  0.00    +0.000 A 
ENDBRANCH  15  16
ENDBRANCH   6  14
TORSDOF 3
ENDMDL
MODEL 6
REMARK VINA RESULT:      -8.4      1.411      6.504
REMARK  Name = 
REMARK  3 active torsions:
REMARK  status: ('A' for Active; 'I' for Inactive)
REMARK    1  A    between atoms: C_4  and  C_5
REMARK    2  A    between atoms: C_12  and  C_13
REMARK    3  A    between atoms: C_14  and  C_15
REMARK                            x       y       z     vdW  Elec       q    Type
REMARK                         _______ _______ _______ _____ _____    ______ ____
ROOT
ATOM      1  O   UNL     1       7.220   8.558  17.684  0.00  0.00    +0.000 OA
ATOM      2  C   UNL     1       7.322   7.341  17.536  0.00  0.00    +0.000 C 
ATOM      3  C   UNL     1       6.966   6.738  16.230  0.00  0.00    +0.000 C 
ATOM      4  C   UNL     1       7.067   5.411  16.049  0.00  0.00    +0.000 C 
ATOM      5  C   UNL     1       7.481   4.445  17.129  0.00  0.00    +0.000 C 
ATOM      6  C   UNL     1       7.292   5.025  18.546  0.00  0.00    +0.000 C 
ATOM      7  C   UNL     1       7.873   6.441  18.622  0.00  0.00    +0.000 C 
ENDROOT
BRANCH   4   8
ATOM      8  C   UNL     1       6.712   4.855  14.739  0.00  0.00    +0.000 A 
ATOM      9  C   UNL     1       5.535   4.114  14.588  0.00  0.00    +0.000 A 
ATOM     10  C   UNL     1       5.226   3.532  13.357  0.00  0.00    +0.000 A 
ATOM     11  C   UNL     1       6.090   3.687  12.274  0.00  0.00    +0.000 A 
ATOM     12  C   UNL     1       7.261   4.431  12.417  0.00  0.00    +0.000 A 
ATOM     13  C   UNL     1       7.572   5.015  13.646  0.00  0.00    +0.000 A 
ENDBRANCH   4   8
BRANCH   6  14
ATOM     14  C   UNL     1       5.829   5.011  18.945  0.00  0.00    +0.000 C 
ATOM     15  C   UNL     1       5.059   3.911  19.005  0.00  0.00    +0.000 C 
BRANCH  15  16
ATOM     16  C   UNL     1       3.634   3.942  19.371  0.00  0.00    +0.000 A 
ATOM     17  C   UNL     1       3.143   5.035  20.096  0.00  0.00    +0.000 A 
ATOM     18  C   UNL     1       1.796   5.096  20.465  0.00  0.00    +0.000 A 
ATOM     19  C   UNL     1       0.923   4.073  20.107  0.00  0.00    +0.000 A 
ATOM     20  C   UNL     1       1.392   2.992  19.365  0.00  0.00    +0.000 A 
ATOM     21  C   UNL     1       2.737   2.932  18.991  0.00  0.00    +0.000 A 
ENDBRANCH  15  16
ENDBRANCH   6  14
TORSDOF 3
ENDMDL
MODEL 7
REMARK VINA RESULT:      -8.4      1.436      6.399
REMARK  Name = 
REMARK  3 active torsions:
REMARK  status: ('A' for Active; 'I' for Inactive)
REMARK    1  A    between atoms: C_4  and  C_5
REMARK    2  A    between atoms: C_12  and  C_13
REMARK    3  A    between atoms: C_14  and  C_15
REMARK                            x       y       z     vdW  Elec       q    Type
REMARK                         _______ _______ _______ _____ _____    ______ ____
ROOT
ATOM      1  O   UNL     1       7.139   8.630  17.627  0.00  0.00    +0.000 OA
ATOM      2  C   UNL     1       7.280   7.413  17.526  0.00  0.00    +0.000 C 
ATOM      3  C   UNL     1       6.913   6.746  16.254  0.00  0.00    +0.000 C 
ATOM      4  C   UNL     1       7.056   5.416  16.124  0.00  0.00    +0.000 C 
ATOM      5  C   UNL     1       7.530   4.509  17.231  0.00  0.00    +0.000 C 
ATOM      6  C   UNL     1       7.356   5.140  18.628  0.00  0.00    +0.000 C 
ATOM      7  C   UNL     1       7.888   6.577  18.632  0.00  0.00    +0.000 C 
ENDROOT
BRANCH   4   8
ATOM      8  C   UNL     1       6.688   4.796  14.847  0.00  0.00    +0.000 A 
ATOM      9  C   UNL     1       7.537   4.909  13.741  0.00  0.00    +0.000 A 
ATOM     10  C   UNL     1       7.160   4.372  12.509  0.00  0.00    +0.000 A 
ATOM     11  C   UNL     1       5.935   3.721  12.377  0.00  0.00    +0.000 A 
ATOM     12  C   UNL     1       5.087   3.598  13.477  0.00  0.00    +0.000 A 
ATOM     13  C   UNL     1       5.462   4.133  14.710  0.00  0.00    +0.000 A 
ENDBRANCH   4   8
BRANCH   6  14
ATOM     14  C   UNL     1       5.904   5.093  19.064  0.00  0.00    +0.000 C 
ATOM     15  C   UNL     1       5.093   4.031  18.922  0.00  0.00    +0.000 C 
BRANCH  15  16
ATOM     16  C   UNL     1       3.680   4.033  19.334  0.00  0.00    +0.000 A 
ATOM     17  C   UNL     1       2.883   2.921  19.031  0.00  0.00    +0.000 A 
ATOM     18  C   UNL     1       1.536   2.888  19.403  0.00  0.00    +0.000 A 
ATOM     19  C   UNL     1       0.972   3.960  20.089  0.00  0.00    +0.000 A 
ATOM     20  C   UNL     1       1.758   5.062  20.418  0.00  0.00    +0.000 A 
ATOM     21  C   UNL     1       3.105   5.093  20.051  0.00  0.00    +0.000 A 
ENDBRANCH  15  16
ENDBRANCH   6  14
TORSDOF 3
ENDMDL
MODEL 8
REMARK VINA RESULT:      -8.3      1.002      1.616
REMARK  Name = 
REMARK  3 active torsions:
REMARK  status: ('A' for Active; 'I' for Inactive)
REMARK    1  A    between atoms: C_4  and  C_5
REMARK    2  A    between atoms: C_12  and  C_13
REMARK    3  A    between atoms: C_14  and  C_15
REMARK                            x       y       z     vdW  Elec       q    Type
REMARK                         _______ _______ _______ _____ _____    ______ ____
ROOT
ATOM      1  O   UNL     1       8.111   4.297  17.994  0.00  0.00    +0.000 OA
ATOM      2  C   UNL     1       7.030   4.781  17.664  0.00  0.00    +0.000 C 
ATOM      3  C   UNL     1       5.784   4.237  18.253  0.00  0.00    +0.000 C 
ATOM      4  C   UNL     1       4.592   4.750  17.904  0.00  0.00    +0.000 C 
ATOM      5  C   UNL     1       4.415   5.843  16.881  0.00  0.00    +0.000 C 
ATOM      6  C   UNL     1       5.623   5.966  15.931  0.00  0.00    +0.000 C 
ATOM      7  C   UNL     1       6.930   5.969  16.731  0.00  0.00    +0.000 C 
ENDROOT
BRANCH   4   8
ATOM      8  C   UNL     1       3.383   4.188  18.515  0.00  0.00    +0.000 A 
ATOM      9  C   UNL     1       2.212   4.058  17.761  0.00  0.00    +0.000 A 
ATOM     10  C   UNL     1       1.043   3.581  18.357  0.00  0.00    +0.000 A 
ATOM     11  C   UNL     1       1.039   3.232  19.707  0.00  0.00    +0.000 A 
ATOM     12  C   UNL     1       2.206   3.353  20.462  0.00  0.00    +0.000 A 
ATOM     13  C   UNL     1       3.376   3.829  19.868  0.00  0.00    +0.000 A 
ENDBRANCH   4   8
BRANCH   6  14
ATOM     14  C   UNL     1       5.615   4.853  14.900  0.00  0.00    +0.000 C 
ATOM     15  C   UNL     1       6.329   4.854  13.762  0.00  0.00    +0.000 C 
BRANCH  15  16
ATOM     16  C   UNL     1       6.275   3.766  12.773  0.00  0.00    +0.000 A 
ATOM     17  C   UNL     1       7.472   3.278  12.235  0.00  0.00    +0.000 A 
ATOM     18  C   UNL     1       7.460   2.247  11.290  0.00  0.00    +0.000 A 
ATOM     19  C   UNL     1       6.253   1.688  10.878  0.00  0.00    +0.000 A 
ATOM     20  C   UNL     1       5.057   2.147  11.422  0.00  0.00    +0.000 A 
ATOM     21  C   UNL     1       5.068   3.173  12.371  0.00  0.00    +0.000 A 
ENDBRANCH  15  16
ENDBRANCH   6  14
TORSDOF 3
ENDMDL
MODEL 9
REMARK VINA RESULT:      -8.3      2.301      6.778
REMARK  Name = 
REMARK  3 active torsions:
REMARK  status: ('A' for Active; 'I' for Inactive)
REMARK    1  A    between atoms: C_4  and  C_5
REMARK    2  A    between atoms: C_12  and  C_13
REMARK    3  A    between atoms: C_14  and  C_15
REMARK                            x       y       z     vdW  Elec       q    Type
REMARK                         _______ _______ _______ _____ _____    ______ ____
ROOT
ATOM      1  O   UNL     1       6.886   5.160  19.767  0.00  0.00    +0.000 OA
ATOM      2  C   UNL     1       6.133   4.685  18.919  0.00  0.00    +0.000 C 
ATOM      3  C   UNL     1       6.510   4.768  17.488  0.00  0.00    +0.000 C 
ATOM      4  C   UNL     1       5.700   4.258  16.546  0.00  0.00    +0.000 C 
ATOM      5  C   UNL     1       4.361   3.629  16.839  0.00  0.00    +0.000 C 
ATOM      6  C   UNL     1       3.790   4.062  18.204  0.00  0.00    +0.000 C 
ATOM      7  C   UNL     1       4.865   3.946  19.291  0.00  0.00    +0.000 C 
ENDROOT
BRANCH   4   8
ATOM      8  C   UNL     1       6.112   4.355  15.142  0.00  0.00    +0.000 A 
ATOM      9  C   UNL     1       5.423   3.641  14.157  0.00  0.00    +0.000 A 
ATOM     10  C   UNL     1       5.852   3.684  12.829  0.00  0.00    +0.000 A 
ATOM     11  C   UNL     1       6.970   4.439  12.480  0.00  0.00    +0.000 A 
ATOM     12  C   UNL     1       7.658   5.159  13.457  0.00  0.00    +0.000 A 
ATOM     13  C   UNL     1       7.230   5.119  14.785  0.00  0.00    +0.000 A 
ENDBRANCH   4   8
BRANCH   6  14
ATOM     14  C   UNL     1       3.233   5.472  18.134  0.00  0.00    +0.000 C 
ATOM     15  C   UNL     1       2.798   6.179  19.190  0.00  0.00    +0.000 C 
BRANCH  15  16
ATOM     16  C   UNL     1       2.239   7.536  19.078  0.00  0.00    +0.000 A 
ATOM     17  C   UNL     1       2.381   8.231  17.870  0.00  0.00    +0.000 A 
ATOM     18  C   UNL     1       1.866   9.523  17.728  0.00  0.00    +0.000 A 
ATOM     19  C   UNL     1       1.198  10.132  18.786  0.00  0.00    +0.000 A 
ATOM     20  C   UNL     1       1.028   9.444  19.985  0.00  0.00    +0.000 A 
ATOM     21  C   UNL     1       1.537   8.151  20.126  0.00  0.00    +0.000 A 
ENDBRANCH  15  16
ENDBRANCH   6  14
TORSDOF 3
ENDMDL
