MODEL 1
REMARK VINA RESULT:      -7.7      0.000      0.000
REMARK  Name = 
REMARK  5 active torsions:
REMARK  status: ('A' for Active; 'I' for Inactive)
REMARK    1  A    between atoms: C_1  and  C_2
REMARK    2  A    between atoms: C_4  and  C_5
REMARK    3  A    between atoms: C_7  and  N_8
REMARK    4  A    between atoms: C_10  and  C_11
REMARK    5  A    between atoms: C_11  and  O_13
REMARK                            x       y       z     vdW  Elec       q    Type
REMARK                         _______ _______ _______ _____ _____    ______ ____
ROOT
ATOM      1  N   UNL     1       5.144   4.726  18.312  0.00  0.00    +0.000 N 
ATOM      2  C   UNL     1       5.090   4.450  16.893  0.00  0.00    +0.000 C 
ATOM      3  C   UNL     1       6.514   4.085  16.509  0.00  0.00    +0.000 C 
ATOM      4  C   UNL     1       7.359   4.840  17.517  0.00  0.00    +0.000 C 
ATOM      5  C   UNL     1       6.461   4.981  18.717  0.00  0.00    +0.000 C 
ATOM      6  O   UNL     1       6.899   5.281  19.816  0.00  0.00    +0.000 OA
ENDROOT
BRANCH   1  13
ATOM      7  C   UNL     1       1.409   2.801  20.989  0.00  0.00    +0.000 C 
ATOM      8  C   UNL     1       2.103   3.994  20.399  0.00  0.00    +0.000 A 
ATOM      9  C   UNL     1       1.598   5.282  20.595  0.00  0.00    +0.000 A 
ATOM     10  C   UNL     1       2.260   6.385  20.057  0.00  0.00    +0.000 A 
ATOM     11  C   UNL     1       1.714   7.775  20.208  0.00  0.00    +0.000 C 
ATOM     12  C   UNL     1       3.448   6.192  19.334  0.00  0.00    +0.000 A 
ATOM     13  C   UNL     1       3.971   4.914  19.097  0.00  0.00    +0.000 A 
ATOM     14  C   UNL     1       3.275   3.822  19.642  0.00  0.00    +0.000 A 
ENDBRANCH   1  13
BRANCH   3  15
ATOM     15  C   UNL     1       6.829   4.484  15.092  0.00  0.00    +0.000 C 
ATOM     16  O   UNL     1       7.396   5.515  14.769  0.00  0.00    +0.000 OA
BRANCH  15  17
ATOM     17  O   UNL     1       6.375   3.599  14.175  0.00  0.00    +0.000 OA
ATOM     18  H   UNL     1       6.871   2.759  14.120  0.00  0.00    +0.000 HD
ENDBRANCH  15  17
ENDBRANCH   3  15
TORSDOF 3
ENDMDL
MODEL 2
REMARK VINA RESULT:      -7.6      0.305      2.238
REMARK  Name = 
REMARK  5 active torsions:
REMARK  status: ('A' for Active; 'I' for Inactive)
REMARK    1  A    between atoms: C_1  and  C_2
REMARK    2  A    between atoms: C_4  and  C_5
REMARK    3  A    between atoms: C_7  and  N_8
REMARK    4  A    between atoms: C_10  and  C_11
REMARK    5  A    between atoms: C_11  and  O_13
REMARK                            x       y       z     vdW  Elec       q    Type
REMARK                         _______ _______ _______ _____ _____    ______ ____
ROOT
ATOM      1  N   UNL     1       5.019   4.646  18.052  0.00  0.00    +0.000 N 
ATOM      2  C   UNL     1       4.905   4.432  16.625  0.00  0.00    +0.000 C 
ATOM      3  C   UNL     1       6.294   4.006  16.180  0.00  0.00    +0.000 C 
ATOM      4  C   UNL     1       7.210   4.672  17.188  0.00  0.00    +0.000 C 
ATOM      5  C   UNL     1       6.360   4.813  18.422  0.00  0.00    +0.000 C 
ATOM      6  O   UNL     1       6.848   5.044  19.517  0.00  0.00    +0.000 OA
ENDROOT
BRANCH   1  13
ATOM      7  C   UNL     1       1.783   7.790  20.166  0.00  0.00    +0.000 C 
ATOM      8  C   UNL     1       2.290   6.392  19.961  0.00  0.00    +0.000 A 
ATOM      9  C   UNL     1       1.673   5.310  20.594  0.00  0.00    +0.000 A 
ATOM     10  C   UNL     1       2.141   4.013  20.384  0.00  0.00    +0.000 A 
ATOM     11  C   UNL     1       1.531   2.837  21.089  0.00  0.00    +0.000 C 
ATOM     12  C   UNL     1       3.225   3.804  19.515  0.00  0.00    +0.000 A 
ATOM     13  C   UNL     1       3.883   4.866  18.883  0.00  0.00    +0.000 A 
ATOM     14  C   UNL     1       3.396   6.161  19.124  0.00  0.00    +0.000 A 
ENDBRANCH   1  13
BRANCH   3  15
ATOM     15  C   UNL     1       6.587   4.445  14.771  0.00  0.00    +0.000 C 
ATOM     16  O   UNL     1       6.057   3.983  13.773  0.00  0.00    +0.000 OA
BRANCH  15  17
ATOM     17  O   UNL     1       7.552   5.390  14.696  0.00  0.00    +0.000 OA
ATOM     18  H   UNL     1       7.349   6.234  15.144  0.00  0.00    +0.000 HD
ENDBRANCH  15  17
ENDBRANCH   3  15
TORSDOF 3
ENDMDL
MODEL 3
REMARK VINA RESULT:      -7.3      1.112      2.261
REMARK  Name = 
REMARK  5 active torsions:
REMARK  status: ('A' for Active; 'I' for Inactive)
REMARK    1  A    between atoms: C_1  and  C_2
REMARK    2  A    between atoms: C_4  and  C_5
REMARK    3  A    between atoms: C_7  and  N_8
REMARK    4  A    between atoms: C_10  and  C_11
REMARK    5  A    between atoms: C_11  and  O_13
REMARK                            x       y       z     vdW  Elec       q    Type
REMARK                         _______ _______ _______ _____ _____    ______ ____
ROOT
ATOM      1  N   UNL     1       5.048   4.448  17.394  0.00  0.00    +0.000 N 
ATOM      2  C   UNL     1       5.103   4.401  15.950  0.00  0.00    +0.000 C 
ATOM      3  C   UNL     1       6.543   4.041  15.624  0.00  0.00    +0.000 C 
ATOM      4  C   UNL     1       7.323   4.591  16.802  0.00  0.00    +0.000 C 
ATOM      5  C   UNL     1       6.333   4.580  17.936  0.00  0.00    +0.000 C 
ATOM      6  O   UNL     1       6.687   4.685  19.100  0.00  0.00    +0.000 OA
ENDROOT
BRANCH   1  13
ATOM      7  C   UNL     1       2.004   7.089  20.325  0.00  0.00    +0.000 C 
ATOM      8  C   UNL     1       2.310   5.827  19.573  0.00  0.00    +0.000 A 
ATOM      9  C   UNL     1       1.413   4.756  19.584  0.00  0.00    +0.000 A 
ATOM     10  C   UNL     1       1.698   3.593  18.868  0.00  0.00    +0.000 A 
ATOM     11  C   UNL     1       0.778   2.408  18.902  0.00  0.00    +0.000 C 
ATOM     12  C   UNL     1       2.885   3.517  18.122  0.00  0.00    +0.000 A 
ATOM     13  C   UNL     1       3.819   4.561  18.107  0.00  0.00    +0.000 A 
ATOM     14  C   UNL     1       3.509   5.713  18.847  0.00  0.00    +0.000 A 
ENDBRANCH   1  13
BRANCH   3  15
ATOM     15  C   UNL     1       6.987   4.644  14.318  0.00  0.00    +0.000 C 
ATOM     16  O   UNL     1       7.749   5.592  14.212  0.00  0.00    +0.000 OA
BRANCH  15  17
ATOM     17  O   UNL     1       6.416   4.061  13.239  0.00  0.00    +0.000 OA
ATOM     18  H   UNL     1       6.526   4.540  12.395  0.00  0.00    +0.000 HD
ENDBRANCH  15  17
ENDBRANCH   3  15
TORSDOF 3
ENDMDL
MODEL 4
REMARK VINA RESULT:      -7.3      2.839      6.137
REMARK  Name = 
REMARK  5 active torsions:
REMARK  status: ('A' for Active; 'I' for Inactive)
REMARK    1  A    between atoms: C_1  and  C_2
REMARK    2  A    between atoms: C_4  and  C_5
REMARK    3  A    between atoms: C_7  and  N_8
REMARK    4  A    between atoms: C_10  and  C_11
REMARK    5  A    between atoms: C_11  and  O_13
REMARK                            x       y       z     vdW  Elec       q    Type
REMARK                         _______ _______ _______ _____ _____    ______ ____
ROOT
ATOM      1  N   UNL     1       3.636   4.633  18.666  0.00  0.00    +0.000 N 
ATOM      2  C   UNL     1       3.628   3.425  19.461  0.00  0.00    +0.000 C 
ATOM      3  C   UNL     1       2.232   3.358  20.059  0.00  0.00    +0.000 C 
ATOM      4  C   UNL     1       1.813   4.813  20.146  0.00  0.00    +0.000 C 
ATOM      5  C   UNL     1       2.595   5.488  19.051  0.00  0.00    +0.000 C 
ATOM      6  O   UNL     1       2.301   6.600  18.642  0.00  0.00    +0.000 OA
ENDROOT
BRANCH   1  13
ATOM      7  C   UNL     1       7.658   7.375  17.599  0.00  0.00    +0.000 C 
ATOM      8  C   UNL     1       6.674   6.310  17.214  0.00  0.00    +0.000 A 
ATOM      9  C   UNL     1       6.783   5.648  15.988  0.00  0.00    +0.000 A 
ATOM     10  C   UNL     1       5.873   4.647  15.646  0.00  0.00    +0.000 A 
ATOM     11  C   UNL     1       5.935   3.955  14.316  0.00  0.00    +0.000 C 
ATOM     12  C   UNL     1       4.860   4.298  16.553  0.00  0.00    +0.000 A 
ATOM     13  C   UNL     1       4.705   4.955  17.780  0.00  0.00    +0.000 A 
ATOM     14  C   UNL     1       5.629   5.967  18.090  0.00  0.00    +0.000 A 
ENDBRANCH   1  13
BRANCH   3  15
ATOM     15  C   UNL     1       2.234   2.687  21.405  0.00  0.00    +0.000 C 
ATOM     16  O   UNL     1       1.274   2.632  22.158  0.00  0.00    +0.000 OA
BRANCH  15  17
ATOM     17  O   UNL     1       3.439   2.174  21.744  0.00  0.00    +0.000 OA
ATOM     18  H   UNL     1       4.208   2.743  21.549  0.00  0.00    +0.000 HD
ENDBRANCH  15  17
ENDBRANCH   3  15
TORSDOF 3
ENDMDL
MODEL 5
REMARK VINA RESULT:      -7.3      1.137      1.547
REMARK  Name = 
REMARK  5 active torsions:
REMARK  status: ('A' for Active; 'I' for Inactive)
REMARK    1  A    between atoms: C_1  and  C_2
REMARK    2  A    between atoms: C_4  and  C_5
REMARK    3  A    between atoms: C_7  and  N_8
REMARK    4  A    between atoms: C_10  and  C_11
REMARK    5  A    between atoms: C_11  and  O_13
REMARK                            x       y       z     vdW  Elec       q    Type
REMARK                         _______ _______ _______ _____ _____    ______ ____
ROOT
ATOM      1  N   UNL     1       5.243   5.049  17.350  0.00  0.00    +0.000 N 
ATOM      2  C   UNL     1       5.131   4.917  15.914  0.00  0.00    +0.000 C 
ATOM      3  C   UNL     1       6.345   4.102  15.500  0.00  0.00    +0.000 C 
ATOM      4  C   UNL     1       7.375   4.433  16.562  0.00  0.00    +0.000 C 
ATOM      5  C   UNL     1       6.554   4.793  17.772  0.00  0.00    +0.000 C 
ATOM      6  O   UNL     1       7.042   4.836  18.890  0.00  0.00    +0.000 OA
ENDROOT
BRANCH   1  13
ATOM      7  C   UNL     1       2.089   4.566  21.177  0.00  0.00    +0.000 C 
ATOM      8  C   UNL     1       2.606   5.361  20.013  0.00  0.00    +0.000 A 
ATOM      9  C   UNL     1       2.051   6.603  19.696  0.00  0.00    +0.000 A 
ATOM     10  C   UNL     1       2.551   7.341  18.623  0.00  0.00    +0.000 A 
ATOM     11  C   UNL     1       1.943   8.655  18.227  0.00  0.00    +0.000 C 
ATOM     12  C   UNL     1       3.627   6.833  17.877  0.00  0.00    +0.000 A 
ATOM     13  C   UNL     1       4.191   5.581  18.151  0.00  0.00    +0.000 A 
ATOM     14  C   UNL     1       3.659   4.856  19.230  0.00  0.00    +0.000 A 
ENDBRANCH   1  13
BRANCH   3  15
ATOM     15  C   UNL     1       6.817   4.468  14.118  0.00  0.00    +0.000 C 
ATOM     16  O   UNL     1       6.466   3.910  13.091  0.00  0.00    +0.000 OA
BRANCH  15  17
ATOM     17  O   UNL     1       7.729   5.468  14.114  0.00  0.00    +0.000 OA
ATOM     18  H   UNL     1       7.523   6.227  14.692  0.00  0.00    +0.000 HD
ENDBRANCH  15  17
ENDBRANCH   3  15
TORSDOF 3
ENDMDL
MODEL 6
REMARK VINA RESULT:      -7.3      1.133      2.501
REMARK  Name = 
REMARK  5 active torsions:
REMARK  status: ('A' for Active; 'I' for Inactive)
REMARK    1  A    between atoms: C_1  and  C_2
REMARK    2  A    between atoms: C_4  and  C_5
REMARK    3  A    between atoms: C_7  and  N_8
REMARK    4  A    between atoms: C_10  and  C_11
REMARK    5  A    between atoms: C_11  and  O_13
REMARK                            x       y       z     vdW  Elec       q    Type
REMARK                         _______ _______ _______ _____ _____    ______ ____
ROOT
ATOM      1  N   UNL     1       5.190   5.016  17.326  0.00  0.00    +0.000 N 
ATOM      2  C   UNL     1       5.105   4.898  15.887  0.00  0.00    +0.000 C 
ATOM      3  C   UNL     1       6.331   4.096  15.486  0.00  0.00    +0.000 C 
ATOM      4  C   UNL     1       7.340   4.423  16.570  0.00  0.00    +0.000 C 
ATOM      5  C   UNL     1       6.495   4.764  17.768  0.00  0.00    +0.000 C 
ATOM      6  O   UNL     1       6.962   4.799  18.895  0.00  0.00    +0.000 OA
ENDROOT
BRANCH   1  13
ATOM      7  C   UNL     1       1.961   8.679  18.316  0.00  0.00    +0.000 C 
ATOM      8  C   UNL     1       2.535   7.332  18.643  0.00  0.00    +0.000 A 
ATOM      9  C   UNL     1       2.047   6.592  19.723  0.00  0.00    +0.000 A 
ATOM     10  C   UNL     1       2.576   5.333  20.007  0.00  0.00    +0.000 A 
ATOM     11  C   UNL     1       2.107   4.536  21.190  0.00  0.00    +0.000 C 
ATOM     12  C   UNL     1       3.590   4.809  19.188  0.00  0.00    +0.000 A 
ATOM     13  C   UNL     1       4.120   5.533  18.113  0.00  0.00    +0.000 A 
ATOM     14  C   UNL     1       3.575   6.802  17.859  0.00  0.00    +0.000 A 
ENDBRANCH   1  13
BRANCH   3  15
ATOM     15  C   UNL     1       6.825   4.480  14.117  0.00  0.00    +0.000 C 
ATOM     16  O   UNL     1       6.492   3.933  13.077  0.00  0.00    +0.000 OA
BRANCH  15  17
ATOM     17  O   UNL     1       7.736   5.480  14.140  0.00  0.00    +0.000 OA
ATOM     18  H   UNL     1       8.158   5.684  13.283  0.00  0.00    +0.000 HD
ENDBRANCH  15  17
ENDBRANCH   3  15
TORSDOF 3
ENDMDL
MODEL 7
REMARK VINA RESULT:      -7.3      2.889      5.929
REMARK  Name = 
REMARK  5 active torsions:
REMARK  status: ('A' for Active; 'I' for Inactive)
REMARK    1  A    between atoms: C_1  and  C_2
REMARK    2  A    between atoms: C_4  and  C_5
REMARK    3  A    between atoms: C_7  and  N_8
REMARK    4  A    between atoms: C_10  and  C_11
REMARK    5  A    between atoms: C_11  and  O_13
REMARK                            x       y       z     vdW  Elec       q    Type
REMARK                         _______ _______ _______ _____ _____    ______ ____
ROOT
ATOM      1  N   UNL     1       3.534   4.819  18.910  0.00  0.00    +0.000 N 
ATOM      2  C   UNL     1       3.437   3.542  19.583  0.00  0.00    +0.000 C 
ATOM      3  C   UNL     1       2.076   3.556  20.257  0.00  0.00    +0.000 C 
ATOM      4  C   UNL     1       1.820   5.029  20.511  0.00  0.00    +0.000 C 
ATOM      5  C   UNL     1       2.612   5.731  19.441  0.00  0.00    +0.000 C 
ATOM      6  O   UNL     1       2.417   6.903  19.161  0.00  0.00    +0.000 OA
ENDROOT
BRANCH   1  13
ATOM      7  C   UNL     1       5.682   4.157  14.463  0.00  0.00    +0.000 C 
ATOM      8  C   UNL     1       5.680   4.795  15.822  0.00  0.00    +0.000 A 
ATOM      9  C   UNL     1       6.707   5.662  16.204  0.00  0.00    +0.000 A 
ATOM     10  C   UNL     1       6.687   6.263  17.462  0.00  0.00    +0.000 A 
ATOM     11  C   UNL     1       7.802   7.158  17.919  0.00  0.00    +0.000 C 
ATOM     12  C   UNL     1       5.617   6.003  18.334  0.00  0.00    +0.000 A 
ATOM     13  C   UNL     1       4.583   5.121  17.995  0.00  0.00    +0.000 A 
ATOM     14  C   UNL     1       4.637   4.522  16.725  0.00  0.00    +0.000 A 
ENDBRANCH   1  13
BRANCH   3  15
ATOM     15  C   UNL     1       2.075   2.752  21.529  0.00  0.00    +0.000 C 
ATOM     16  O   UNL     1       1.103   2.586  22.248  0.00  0.00    +0.000 OA
BRANCH  15  17
ATOM     17  O   UNL     1       3.292   2.253  21.845  0.00  0.00    +0.000 OA
ATOM     18  H   UNL     1       3.691   1.662  21.178  0.00  0.00    +0.000 HD
ENDBRANCH  15  17
ENDBRANCH   3  15
TORSDOF 3
ENDMDL
MODEL 8
REMARK VINA RESULT:      -7.2      1.225      1.470
REMARK  Name = 
REMARK  5 active torsions:
REMARK  status: ('A' for Active; 'I' for Inactive)
REMARK    1  A    between atoms: C_1  and  C_2
REMARK    2  A    between atoms: C_4  and  C_5
REMARK    3  A    between atoms: C_7  and  N_8
REMARK    4  A    between atoms: C_10  and  C_11
REMARK    5  A    between atoms: C_11  and  O_13
REMARK                            x       y       z     vdW  Elec       q    Type
REMARK                         _______ _______ _______ _____ _____    ______ ____
ROOT
ATOM      1  N   UNL     1       5.066   4.285  17.265  0.00  0.00    +0.000 N 
ATOM      2  C   UNL     1       5.054   4.207  15.821  0.00  0.00    +0.000 C 
ATOM      3  C   UNL     1       6.486   3.876  15.434  0.00  0.00    +0.000 C 
ATOM      4  C   UNL     1       7.306   4.473  16.562  0.00  0.00    +0.000 C 
ATOM      5  C   UNL     1       6.371   4.463  17.743  0.00  0.00    +0.000 C 
ATOM      6  O   UNL     1       6.777   4.603  18.885  0.00  0.00    +0.000 OA
ENDROOT
BRANCH   1  13
ATOM      7  C   UNL     1       0.779   2.275  18.817  0.00  0.00    +0.000 C 
ATOM      8  C   UNL     1       1.738   3.430  18.793  0.00  0.00    +0.000 A 
ATOM      9  C   UNL     1       1.457   4.604  19.497  0.00  0.00    +0.000 A 
ATOM     10  C   UNL     1       2.363   5.665  19.481  0.00  0.00    +0.000 A 
ATOM     11  C   UNL     1       2.066   6.957  20.186  0.00  0.00    +0.000 C 
ATOM     12  C   UNL     1       3.566   5.535  18.769  0.00  0.00    +0.000 A 
ATOM     13  C   UNL     1       3.870   4.383  18.033  0.00  0.00    +0.000 A 
ATOM     14  C   UNL     1       2.933   3.336  18.058  0.00  0.00    +0.000 A 
ENDBRANCH   1  13
BRANCH   3  15
ATOM     15  C   UNL     1       6.852   4.461  14.097  0.00  0.00    +0.000 C 
ATOM     16  O   UNL     1       6.555   3.973  13.018  0.00  0.00    +0.000 OA
BRANCH  15  17
ATOM     17  O   UNL     1       7.604   5.582  14.192  0.00  0.00    +0.000 OA
ATOM     18  H   UNL     1       7.113   6.424  14.138  0.00  0.00    +0.000 HD
ENDBRANCH  15  17
ENDBRANCH   3  15
TORSDOF 3
ENDMDL
MODEL 9
REMARK VINA RESULT:      -7.2      2.877      6.288
REMARK  Name = 
REMARK  5 active torsions:
REMARK  status: ('A' for Active; 'I' for Inactive)
REMARK    1  A    between atoms: C_1  and  C_2
REMARK    2  A    between atoms: C_4  and  C_5
REMARK    3  A    between atoms: C_7  and  N_8
REMARK    4  A    between atoms: C_10  and  C_11
REMARK    5  A    between atoms: C_11  and  O_13
REMARK                            x       y       z     vdW  Elec       q    Type
REMARK                         _______ _______ _______ _____ _____    ______ ____
ROOT
ATOM      1  N   UNL     1       3.849   3.827  18.188  0.00  0.00    +0.000 N 
ATOM      2  C   UNL     1       3.945   3.780  19.631  0.00  0.00    +0.000 C 
ATOM      3  C   UNL     1       2.773   2.920  20.074  0.00  0.00    +0.000 C 
ATOM      4  C   UNL     1       1.743   3.133  18.982  0.00  0.00    +0.000 C 
ATOM      5  C   UNL     1       2.561   3.473  17.765  0.00  0.00    +0.000 C 
ATOM      6  O   UNL     1       2.090   3.427  16.640  0.00  0.00    +0.000 OA
ENDROOT
BRANCH   1  13
ATOM      7  C   UNL     1       7.479   7.174  17.520  0.00  0.00    +0.000 C 
ATOM      8  C   UNL     1       6.658   6.029  17.004  0.00  0.00    +0.000 A 
ATOM      9  C   UNL     1       6.882   5.511  15.725  0.00  0.00    +0.000 A 
ATOM     10  C   UNL     1       6.125   4.435  15.261  0.00  0.00    +0.000 A 
ATOM     11  C   UNL     1       6.308   3.891  13.874  0.00  0.00    +0.000 C 
ATOM     12  C   UNL     1       5.150   3.866  16.096  0.00  0.00    +0.000 A 
ATOM     13  C   UNL     1       4.881   4.374  17.373  0.00  0.00    +0.000 A 
ATOM     14  C   UNL     1       5.652   5.465  17.808  0.00  0.00    +0.000 A 
ENDBRANCH   1  13
BRANCH   3  15
ATOM     15  C   UNL     1       2.258   3.333  21.427  0.00  0.00    +0.000 C 
ATOM     16  O   UNL     1       1.746   2.578  22.238  0.00  0.00    +0.000 OA
BRANCH  15  17
ATOM     17  O   UNL     1       2.370   4.661  21.657  0.00  0.00    +0.000 OA
ATOM     18  H   UNL     1       2.243   5.235  20.878  0.00  0.00    +0.000 HD
ENDBRANCH  15  17
ENDBRANCH   3  15
TORSDOF 3
ENDMDL
