MODEL 1
REMARK VINA RESULT:      -8.2      0.000      0.000
REMARK  Name = 
REMARK  11 active torsions:
REMARK  status: ('A' for Active; 'I' for Inactive)
REMARK    1  A    between atoms: C_1  and  C_2
REMARK    2  A    between atoms: C_2  and  C_3
REMARK    3  A    between atoms: C_4  and  C_5
REMARK    4  A    between atoms: C_5  and  C_6
REMARK    5  A    between atoms: C_6  and  C_7
REMARK    6  A    between atoms: C_7  and  C_8
REMARK    7  A    between atoms: C_9  and  C_10
REMARK    8  A    between atoms: C_10  and  N_11
REMARK    9  A    between atoms: C_13  and  C_14
REMARK   10  A    between atoms: C_14  and  N_15
REMARK   11  A    between atoms: N_18  and  C_19
REMARK                            x       y       z     vdW  Elec       q    Type
REMARK                         _______ _______ _______ _____ _____    ______ ____
ROOT
ATOM      1  N   UNL     1       4.467   4.882  19.138  0.00  0.00    +0.000 N 
ATOM      2  C   UNL     1       3.899   5.990  19.704  0.00  0.00    +0.000 A 
ATOM      3  C   UNL     1       2.549   5.753  19.885  0.00  0.00    +0.000 A 
ATOM      4  C   UNL     1       2.296   4.434  19.378  0.00  0.00    +0.000 A 
ATOM      5  C   UNL     1       1.138   3.642  19.254  0.00  0.00    +0.000 A 
ATOM      6  C   UNL     1       1.244   2.371  18.690  0.00  0.00    +0.000 A 
ATOM      7  F   UNL     1       0.139   1.625  18.549  0.00  0.00    +0.000 F 
ATOM      8  C   UNL     1       2.461   1.858  18.268  0.00  0.00    +0.000 A 
ATOM      9  C   UNL     1       3.625   2.616  18.389  0.00  0.00    +0.000 A 
ATOM     10  C   UNL     1       3.516   3.907  18.934  0.00  0.00    +0.000 A 
ENDROOT
BRANCH   1  11
ATOM     11  C   UNL     1       5.863   4.802  18.729  0.00  0.00    +0.000 C 
BRANCH  11  14
ATOM     12  C   UNL     1       6.711   5.585  16.466  0.00  0.00    +0.000 C 
ATOM     13  C   UNL     1       7.440   6.744  17.104  0.00  0.00    +0.000 C 
ATOM     14  C   UNL     1       6.018   4.718  17.235  0.00  0.00    +0.000 C 
BRANCH  12  15
ATOM     15  C   UNL     1       6.746   5.383  14.954  0.00  0.00    +0.000 C 
BRANCH  15  16
ATOM     16  C   UNL     1       6.386   3.968  14.493  0.00  0.00    +0.000 C 
BRANCH  16  20
ATOM     17  C   UNL     1       4.229   3.269  11.344  0.00  0.00    +0.000 C 
ATOM     18  C   UNL     1       5.394   3.368  12.282  0.00  0.00    +0.000 C 
ATOM     19  C   UNL     1       6.733   2.896  11.773  0.00  0.00    +0.000 C 
ATOM     20  C   UNL     1       5.239   3.858  13.530  0.00  0.00    +0.000 C 
ENDBRANCH  16  20
ENDBRANCH  15  16
ENDBRANCH  12  15
ENDBRANCH  11  14
ENDBRANCH   1  11
BRANCH   3  21
ATOM     21  C   UNL     1       1.557   6.714  20.475  0.00  0.00    +0.000 C 
BRANCH  21  22
ATOM     22  N   UNL     1       1.801   8.086  20.007  0.00  0.00    +0.000 NA
ATOM     23  C   UNL     1       0.902   9.028  20.705  0.00  0.00    +0.000 C 
ATOM     24  C   UNL     1       1.096  10.489  20.234  0.00  0.00    +0.000 C 
ATOM     25  N   UNL     1       0.989  10.698  18.776  0.00  0.00    +0.000 NA
ATOM     26  C   UNL     1      -0.395  10.632  18.315  0.00  0.00    +0.000 C 
ATOM     27  C   UNL     1       1.834   9.702  18.090  0.00  0.00    +0.000 C 
ATOM     28  C   UNL     1       1.622   8.241  18.549  0.00  0.00    +0.000 C 
ENDBRANCH  21  22
ENDBRANCH   3  21
TORSDOF 7
ENDMDL
MODEL 2
REMARK VINA RESULT:      -8.2      1.813      2.510
REMARK  Name = 
REMARK  11 active torsions:
REMARK  status: ('A' for Active; 'I' for Inactive)
REMARK    1  A    between atoms: C_1  and  C_2
REMARK    2  A    between atoms: C_2  and  C_3
REMARK    3  A    between atoms: C_4  and  C_5
REMARK    4  A    between atoms: C_5  and  C_6
REMARK    5  A    between atoms: C_6  and  C_7
REMARK    6  A    between atoms: C_7  and  C_8
REMARK    7  A    between atoms: C_9  and  C_10
REMARK    8  A    between atoms: C_10  and  N_11
REMARK    9  A    between atoms: C_13  and  C_14
REMARK   10  A    between atoms: C_14  and  N_15
REMARK   11  A    between atoms: N_18  and  C_19
REMARK                            x       y       z     vdW  Elec       q    Type
REMARK                         _______ _______ _______ _____ _____    ______ ____
ROOT
ATOM      1  N   UNL     1       4.072   7.117  17.655  0.00  0.00    +0.000 N 
ATOM      2  C   UNL     1       3.177   8.142  17.519  0.00  0.00    +0.000 A 
ATOM      3  C   UNL     1       2.146   7.951  18.421  0.00  0.00    +0.000 A 
ATOM      4  C   UNL     1       2.436   6.731  19.119  0.00  0.00    +0.000 A 
ATOM      5  C   UNL     1       1.769   5.998  20.119  0.00  0.00    +0.000 A 
ATOM      6  C   UNL     1       2.338   4.812  20.582  0.00  0.00    +0.000 A 
ATOM      7  F   UNL     1       1.693   4.099  21.517  0.00  0.00    +0.000 F 
ATOM      8  C   UNL     1       3.552   4.347  20.100  0.00  0.00    +0.000 A 
ATOM      9  C   UNL     1       4.239   5.059  19.118  0.00  0.00    +0.000 A 
ATOM     10  C   UNL     1       3.654   6.241  18.632  0.00  0.00    +0.000 A 
ENDROOT
BRANCH   1  11
ATOM     11  C   UNL     1       5.247   6.945  16.809  0.00  0.00    +0.000 C 
BRANCH  11  14
ATOM     12  C   UNL     1       6.102   4.698  15.989  0.00  0.00    +0.000 C 
ATOM     13  C   UNL     1       7.312   4.793  16.889  0.00  0.00    +0.000 C 
ATOM     14  C   UNL     1       5.181   5.685  15.989  0.00  0.00    +0.000 C 
BRANCH  12  15
ATOM     15  C   UNL     1       5.909   3.494  15.072  0.00  0.00    +0.000 C 
BRANCH  15  16
ATOM     16  C   UNL     1       6.236   3.756  13.600  0.00  0.00    +0.000 C 
BRANCH  16  20
ATOM     17  C   UNL     1       3.629   3.293  10.763  0.00  0.00    +0.000 C 
ATOM     18  C   UNL     1       4.812   3.088  11.661  0.00  0.00    +0.000 C 
ATOM     19  C   UNL     1       5.701   1.905  11.375  0.00  0.00    +0.000 C 
ATOM     20  C   UNL     1       5.060   3.935  12.683  0.00  0.00    +0.000 C 
ENDBRANCH  16  20
ENDBRANCH  15  16
ENDBRANCH  12  15
ENDBRANCH  11  14
ENDBRANCH   1  11
BRANCH   3  21
ATOM     21  C   UNL     1       0.954   8.847  18.597  0.00  0.00    +0.000 C 
BRANCH  21  22
ATOM     22  N   UNL     1       1.094   9.695  19.790  0.00  0.00    +0.000 NA
ATOM     23  C   UNL     1      -0.019   9.443  20.727  0.00  0.00    +0.000 C 
ATOM     24  C   UNL     1       0.062  10.328  21.994  0.00  0.00    +0.000 C 
ATOM     25  N   UNL     1       0.171  11.779  21.740  0.00  0.00    +0.000 NA
ATOM     26  C   UNL     1      -1.100  12.353  21.304  0.00  0.00    +0.000 C 
ATOM     27  C   UNL     1       1.236  12.009  20.746  0.00  0.00    +0.000 C 
ATOM     28  C   UNL     1       1.139  11.137  19.473  0.00  0.00    +0.000 C 
ENDBRANCH  21  22
ENDBRANCH   3  21
TORSDOF 7
ENDMDL
MODEL 3
REMARK VINA RESULT:      -8.2      1.377      1.780
REMARK  Name = 
REMARK  11 active torsions:
REMARK  status: ('A' for Active; 'I' for Inactive)
REMARK    1  A    between atoms: C_1  and  C_2
REMARK    2  A    between atoms: C_2  and  C_3
REMARK    3  A    between atoms: C_4  and  C_5
REMARK    4  A    between atoms: C_5  and  C_6
REMARK    5  A    between atoms: C_6  and  C_7
REMARK    6  A    between atoms: C_7  and  C_8
REMARK    7  A    between atoms: C_9  and  C_10
REMARK    8  A    between atoms: C_10  and  N_11
REMARK    9  A    between atoms: C_13  and  C_14
REMARK   10  A    between atoms: C_14  and  N_15
REMARK   11  A    between atoms: N_18  and  C_19
REMARK                            x       y       z     vdW  Elec       q    Type
REMARK                         _______ _______ _______ _____ _____    ______ ____
ROOT
ATOM      1  N   UNL     1       4.875   5.891  18.343  0.00  0.00    +0.000 N 
ATOM      2  C   UNL     1       4.175   6.986  17.917  0.00  0.00    +0.000 A 
ATOM      3  C   UNL     1       2.849   6.832  18.279  0.00  0.00    +0.000 A 
ATOM      4  C   UNL     1       2.752   5.561  18.940  0.00  0.00    +0.000 A 
ATOM      5  C   UNL     1       1.686   4.834  19.503  0.00  0.00    +0.000 A 
ATOM      6  C   UNL     1       1.943   3.588  20.074  0.00  0.00    +0.000 A 
ATOM      7  F   UNL     1       0.926   2.883  20.589  0.00  0.00    +0.000 F 
ATOM      8  C   UNL     1       3.223   3.056  20.120  0.00  0.00    +0.000 A 
ATOM      9  C   UNL     1       4.299   3.759  19.579  0.00  0.00    +0.000 A 
ATOM     10  C   UNL     1       4.037   5.004  18.981  0.00  0.00    +0.000 A 
ENDROOT
BRANCH   1  11
ATOM     11  C   UNL     1       6.289   5.670  18.066  0.00  0.00    +0.000 C 
BRANCH  11  14
ATOM     12  C   UNL     1       6.307   4.740  15.703  0.00  0.00    +0.000 C 
ATOM     13  C   UNL     1       5.589   3.491  16.153  0.00  0.00    +0.000 C 
ATOM     14  C   UNL     1       6.597   5.712  16.594  0.00  0.00    +0.000 C 
BRANCH  12  15
ATOM     15  C   UNL     1       6.716   4.918  14.244  0.00  0.00    +0.000 C 
BRANCH  15  16
ATOM     16  C   UNL     1       6.361   3.738  13.335  0.00  0.00    +0.000 C 
BRANCH  16  20
ATOM     17  C   UNL     1       3.515   3.172  10.758  0.00  0.00    +0.000 C 
ATOM     18  C   UNL     1       4.768   2.995  11.563  0.00  0.00    +0.000 C 
ATOM     19  C   UNL     1       5.614   1.783  11.265  0.00  0.00    +0.000 C 
ATOM     20  C   UNL     1       5.113   3.889  12.512  0.00  0.00    +0.000 C 
ENDBRANCH  16  20
ENDBRANCH  15  16
ENDBRANCH  12  15
ENDBRANCH  11  14
ENDBRANCH   1  11
BRANCH   3  21
ATOM     21  C   UNL     1       1.741   7.806  17.999  0.00  0.00    +0.000 C 
BRANCH  21  22
ATOM     22  N   UNL     1       1.813   8.969  18.896  0.00  0.00    +0.000 NA
ATOM     23  C   UNL     1       1.059   8.699  20.138  0.00  0.00    +0.000 C 
ATOM     24  C   UNL     1       1.077   9.900  21.113  0.00  0.00    +0.000 C 
ATOM     25  N   UNL     1       0.630  11.184  20.536  0.00  0.00    +0.000 NA
ATOM     26  C   UNL     1      -0.820  11.227  20.359  0.00  0.00    +0.000 C 
ATOM     27  C   UNL     1       1.335  11.404  19.259  0.00  0.00    +0.000 C 
ATOM     28  C   UNL     1       1.297  10.208  18.280  0.00  0.00    +0.000 C 
ENDBRANCH  21  22
ENDBRANCH   3  21
TORSDOF 7
ENDMDL
MODEL 4
REMARK VINA RESULT:      -8.1      2.411      4.821
REMARK  Name = 
REMARK  11 active torsions:
REMARK  status: ('A' for Active; 'I' for Inactive)
REMARK    1  A    between atoms: C_1  and  C_2
REMARK    2  A    between atoms: C_2  and  C_3
REMARK    3  A    between atoms: C_4  and  C_5
REMARK    4  A    between atoms: C_5  and  C_6
REMARK    5  A    between atoms: C_6  and  C_7
REMARK    6  A    between atoms: C_7  and  C_8
REMARK    7  A    between atoms: C_9  and  C_10
REMARK    8  A    between atoms: C_10  and  N_11
REMARK    9  A    between atoms: C_13  and  C_14
REMARK   10  A    between atoms: C_14  and  N_15
REMARK   11  A    between atoms: N_18  and  C_19
REMARK                            x       y       z     vdW  Elec       q    Type
REMARK                         _______ _______ _______ _____ _____    ______ ____
ROOT
ATOM      1  N   UNL     1       4.293   5.494  17.857  0.00  0.00    +0.000 N 
ATOM      2  C   UNL     1       3.851   6.538  18.622  0.00  0.00    +0.000 A 
ATOM      3  C   UNL     1       2.681   6.160  19.255  0.00  0.00    +0.000 A 
ATOM      4  C   UNL     1       2.401   4.819  18.825  0.00  0.00    +0.000 A 
ATOM      5  C   UNL     1       1.360   3.908  19.087  0.00  0.00    +0.000 A 
ATOM      6  C   UNL     1       1.389   2.653  18.480  0.00  0.00    +0.000 A 
ATOM      7  F   UNL     1       0.387   1.793  18.708  0.00  0.00    +0.000 F 
ATOM      8  C   UNL     1       2.427   2.270  17.643  0.00  0.00    +0.000 A 
ATOM      9  C   UNL     1       3.477   3.148  17.375  0.00  0.00    +0.000 A 
ATOM     10  C   UNL     1       3.435   4.423  17.966  0.00  0.00    +0.000 A 
ENDROOT
BRANCH   1  11
ATOM     11  C   UNL     1       5.458   5.561  16.985  0.00  0.00    +0.000 C 
BRANCH  11  14
ATOM     12  C   UNL     1       7.159   7.319  17.667  0.00  0.00    +0.000 C 
ATOM     13  C   UNL     1       7.873   6.331  18.558  0.00  0.00    +0.000 C 
ATOM     14  C   UNL     1       6.077   6.932  16.959  0.00  0.00    +0.000 C 
BRANCH  12  15
ATOM     15  C   UNL     1       7.648   8.760  17.559  0.00  0.00    +0.000 C 
BRANCH  15  16
ATOM     16  C   UNL     1       8.695   9.158  18.602  0.00  0.00    +0.000 C 
BRANCH  16  20
ATOM     17  C   UNL     1      10.284  12.649  19.195  0.00  0.00    +0.000 C 
ATOM     18  C   UNL     1       9.620  11.324  19.429  0.00  0.00    +0.000 C 
ATOM     19  C   UNL     1       9.266  10.971  20.850  0.00  0.00    +0.000 C 
ATOM     20  C   UNL     1       9.357  10.491  18.400  0.00  0.00    +0.000 C 
ENDBRANCH  16  20
ENDBRANCH  15  16
ENDBRANCH  12  15
ENDBRANCH  11  14
ENDBRANCH   1  11
BRANCH   3  21
ATOM     21  C   UNL     1       1.867   7.013  20.185  0.00  0.00    +0.000 C 
BRANCH  21  22
ATOM     22  N   UNL     1       1.879   8.422  19.764  0.00  0.00    +0.000 NA
ATOM     23  C   UNL     1       0.925   9.202  20.578  0.00  0.00    +0.000 C 
ATOM     24  C   UNL     1       0.874  10.692  20.162  0.00  0.00    +0.000 C 
ATOM     25  N   UNL     1       0.611  10.935  18.729  0.00  0.00    +0.000 NA
ATOM     26  C   UNL     1      -0.787  10.693  18.382  0.00  0.00    +0.000 C 
ATOM     27  C   UNL     1       1.520  10.093  17.929  0.00  0.00    +0.000 C 
ATOM     28  C   UNL     1       1.551   8.601  18.335  0.00  0.00    +0.000 C 
ENDBRANCH  21  22
ENDBRANCH   3  21
TORSDOF 7
ENDMDL
MODEL 5
REMARK VINA RESULT:      -8.1      2.927      5.396
REMARK  Name = 
REMARK  11 active torsions:
REMARK  status: ('A' for Active; 'I' for Inactive)
REMARK    1  A    between atoms: C_1  and  C_2
REMARK    2  A    between atoms: C_2  and  C_3
REMARK    3  A    between atoms: C_4  and  C_5
REMARK    4  A    between atoms: C_5  and  C_6
REMARK    5  A    between atoms: C_6  and  C_7
REMARK    6  A    between atoms: C_7  and  C_8
REMARK    7  A    between atoms: C_9  and  C_10
REMARK    8  A    between atoms: C_10  and  N_11
REMARK    9  A    between atoms: C_13  and  C_14
REMARK   10  A    between atoms: C_14  and  N_15
REMARK   11  A    between atoms: N_18  and  C_19
REMARK                            x       y       z     vdW  Elec       q    Type
REMARK                         _______ _______ _______ _____ _____    ______ ____
ROOT
ATOM      1  N   UNL     1       4.576   6.118  17.446  0.00  0.00    +0.000 N 
ATOM      2  C   UNL     1       3.862   7.276  17.581  0.00  0.00    +0.000 A 
ATOM      3  C   UNL     1       2.560   6.958  17.923  0.00  0.00    +0.000 A 
ATOM      4  C   UNL     1       2.492   5.525  17.974  0.00  0.00    +0.000 A 
ATOM      5  C   UNL     1       1.457   4.606  18.233  0.00  0.00    +0.000 A 
ATOM      6  C   UNL     1       1.736   3.241  18.191  0.00  0.00    +0.000 A 
ATOM      7  F   UNL     1       0.747   2.364  18.413  0.00  0.00    +0.000 F 
ATOM      8  C   UNL     1       3.010   2.764  17.921  0.00  0.00    +0.000 A 
ATOM      9  C   UNL     1       4.057   3.651  17.671  0.00  0.00    +0.000 A 
ATOM     10  C   UNL     1       3.771   5.027  17.689  0.00  0.00    +0.000 A 
ENDROOT
BRANCH   1  11
ATOM     11  C   UNL     1       5.966   6.064  17.012  0.00  0.00    +0.000 C 
BRANCH  11  14
ATOM     12  C   UNL     1       7.640   7.764  17.884  0.00  0.00    +0.000 C 
ATOM     13  C   UNL     1       8.213   6.754  18.850  0.00  0.00    +0.000 C 
ATOM     14  C   UNL     1       6.632   7.412  17.058  0.00  0.00    +0.000 C 
BRANCH  12  15
ATOM     15  C   UNL     1       8.189   9.187  17.832  0.00  0.00    +0.000 C 
BRANCH  15  16
ATOM     16  C   UNL     1       8.973   9.613  19.076  0.00  0.00    +0.000 C 
BRANCH  16  20
ATOM     17  C   UNL     1      11.234  12.719  19.617  0.00  0.00    +0.000 C 
ATOM     18  C   UNL     1      10.228  11.630  19.840  0.00  0.00    +0.000 C 
ATOM     19  C   UNL     1       9.523  11.604  21.173  0.00  0.00    +0.000 C 
ATOM     20  C   UNL     1       9.974  10.716  18.881  0.00  0.00    +0.000 C 
ENDBRANCH  16  20
ENDBRANCH  15  16
ENDBRANCH  12  15
ENDBRANCH  11  14
ENDBRANCH   1  11
BRANCH   3  21
ATOM     21  C   UNL     1       1.448   7.937  18.163  0.00  0.00    +0.000 C 
BRANCH  21  22
ATOM     22  N   UNL     1       1.712   8.766  19.348  0.00  0.00    +0.000 NA
ATOM     23  C   UNL     1       1.417   8.003  20.578  0.00  0.00    +0.000 C 
ATOM     24  C   UNL     1       1.652   8.835  21.861  0.00  0.00    +0.000 C 
ATOM     25  N   UNL     1       0.946  10.132  21.906  0.00  0.00    +0.000 NA
ATOM     26  C   UNL     1      -0.482   9.967  22.161  0.00  0.00    +0.000 C 
ATOM     27  C   UNL     1       1.190  10.850  20.641  0.00  0.00    +0.000 C 
ATOM     28  C   UNL     1       0.933  10.021  19.362  0.00  0.00    +0.000 C 
ENDBRANCH  21  22
ENDBRANCH   3  21
TORSDOF 7
ENDMDL
MODEL 6
REMARK VINA RESULT:      -8.0      1.529      2.215
REMARK  Name = 
REMARK  11 active torsions:
REMARK  status: ('A' for Active; 'I' for Inactive)
REMARK    1  A    between atoms: C_1  and  C_2
REMARK    2  A    between atoms: C_2  and  C_3
REMARK    3  A    between atoms: C_4  and  C_5
REMARK    4  A    between atoms: C_5  and  C_6
REMARK    5  A    between atoms: C_6  and  C_7
REMARK    6  A    between atoms: C_7  and  C_8
REMARK    7  A    between atoms: C_9  and  C_10
REMARK    8  A    between atoms: C_10  and  N_11
REMARK    9  A    between atoms: C_13  and  C_14
REMARK   10  A    between atoms: C_14  and  N_15
REMARK   11  A    between atoms: N_18  and  C_19
REMARK                            x       y       z     vdW  Elec       q    Type
REMARK                         _______ _______ _______ _____ _____    ______ ____
ROOT
ATOM      1  N   UNL     1       4.446   6.632  17.750  0.00  0.00    +0.000 N 
ATOM      2  C   UNL     1       3.661   7.737  17.936  0.00  0.00    +0.000 A 
ATOM      3  C   UNL     1       2.367   7.323  18.193  0.00  0.00    +0.000 A 
ATOM      4  C   UNL     1       2.379   5.889  18.136  0.00  0.00    +0.000 A 
ATOM      5  C   UNL     1       1.388   4.899  18.279  0.00  0.00    +0.000 A 
ATOM      6  C   UNL     1       1.747   3.558  18.149  0.00  0.00    +0.000 A 
ATOM      7  F   UNL     1       0.802   2.614  18.261  0.00  0.00    +0.000 F 
ATOM      8  C   UNL     1       3.057   3.172  17.904  0.00  0.00    +0.000 A 
ATOM      9  C   UNL     1       4.060   4.131  17.769  0.00  0.00    +0.000 A 
ATOM     10  C   UNL     1       3.695   5.485  17.874  0.00  0.00    +0.000 A 
ENDROOT
BRANCH   1  11
ATOM     11  C   UNL     1       5.854   6.687  17.378  0.00  0.00    +0.000 C 
BRANCH  11  14
ATOM     12  C   UNL     1       6.828   5.214  15.552  0.00  0.00    +0.000 C 
ATOM     13  C   UNL     1       7.487   4.322  16.578  0.00  0.00    +0.000 C 
ATOM     14  C   UNL     1       6.085   6.268  15.952  0.00  0.00    +0.000 C 
BRANCH  12  15
ATOM     15  C   UNL     1       6.996   4.939  14.061  0.00  0.00    +0.000 C 
BRANCH  15  16
ATOM     16  C   UNL     1       5.854   4.139  13.429  0.00  0.00    +0.000 C 
BRANCH  16  20
ATOM     17  C   UNL     1       5.924   1.158  10.946  0.00  0.00    +0.000 C 
ATOM     18  C   UNL     1       5.501   2.398  11.675  0.00  0.00    +0.000 C 
ATOM     19  C   UNL     1       4.217   3.054  11.236  0.00  0.00    +0.000 C 
ATOM     20  C   UNL     1       6.250   2.898  12.681  0.00  0.00    +0.000 C 
ENDBRANCH  16  20
ENDBRANCH  15  16
ENDBRANCH  12  15
ENDBRANCH  11  14
ENDBRANCH   1  11
BRANCH   3  21
ATOM     21  C   UNL     1       1.191   8.220  18.452  0.00  0.00    +0.000 C 
BRANCH  21  22
ATOM     22  N   UNL     1       1.412   9.061  19.638  0.00  0.00    +0.000 NA
ATOM     23  C   UNL     1       1.359   8.238  20.863  0.00  0.00    +0.000 C 
ATOM     24  C   UNL     1       1.559   9.076  22.148  0.00  0.00    +0.000 C 
ATOM     25  N   UNL     1       0.650  10.230  22.293  0.00  0.00    +0.000 NA
ATOM     26  C   UNL     1      -0.702   9.817  22.659  0.00  0.00    +0.000 C 
ATOM     27  C   UNL     1       0.656  11.002  21.035  0.00  0.00    +0.000 C 
ATOM     28  C   UNL     1       0.434  10.163  19.755  0.00  0.00    +0.000 C 
ENDBRANCH  21  22
ENDBRANCH   3  21
TORSDOF 7
ENDMDL
MODEL 7
REMARK VINA RESULT:      -7.8      1.462      1.892
REMARK  Name = 
REMARK  11 active torsions:
REMARK  status: ('A' for Active; 'I' for Inactive)
REMARK    1  A    between atoms: C_1  and  C_2
REMARK    2  A    between atoms: C_2  and  C_3
REMARK    3  A    between atoms: C_4  and  C_5
REMARK    4  A    between atoms: C_5  and  C_6
REMARK    5  A    between atoms: C_6  and  C_7
REMARK    6  A    between atoms: C_7  and  C_8
REMARK    7  A    between atoms: C_9  and  C_10
REMARK    8  A    between atoms: C_10  and  N_11
REMARK    9  A    between atoms: C_13  and  C_14
REMARK   10  A    between atoms: C_14  and  N_15
REMARK   11  A    between atoms: N_18  and  C_19
REMARK                            x       y       z     vdW  Elec       q    Type
REMARK                         _______ _______ _______ _____ _____    ______ ____
ROOT
ATOM      1  N   UNL     1       4.392   5.144  18.916  0.00  0.00    +0.000 N 
ATOM      2  C   UNL     1       3.736   6.285  18.545  0.00  0.00    +0.000 A 
ATOM      3  C   UNL     1       2.473   6.274  19.109  0.00  0.00    +0.000 A 
ATOM      4  C   UNL     1       2.366   5.044  19.842  0.00  0.00    +0.000 A 
ATOM      5  C   UNL     1       1.339   4.445  20.596  0.00  0.00    +0.000 A 
ATOM      6  C   UNL     1       1.568   3.202  21.185  0.00  0.00    +0.000 A 
ATOM      7  F   UNL     1       0.585   2.618  21.883  0.00  0.00    +0.000 F 
ATOM      8  C   UNL     1       2.787   2.550  21.065  0.00  0.00    +0.000 A 
ATOM      9  C   UNL     1       3.825   3.126  20.333  0.00  0.00    +0.000 A 
ATOM     10  C   UNL     1       3.586   4.367  19.718  0.00  0.00    +0.000 A 
ENDROOT
BRANCH   1  11
ATOM     11  C   UNL     1       5.720   4.778  18.441  0.00  0.00    +0.000 C 
BRANCH  11  14
ATOM     12  C   UNL     1       6.504   5.605  16.171  0.00  0.00    +0.000 C 
ATOM     13  C   UNL     1       7.321   6.699  16.815  0.00  0.00    +0.000 C 
ATOM     14  C   UNL     1       5.802   4.745  16.939  0.00  0.00    +0.000 C 
BRANCH  12  15
ATOM     15  C   UNL     1       6.459   5.460  14.653  0.00  0.00    +0.000 C 
BRANCH  15  16
ATOM     16  C   UNL     1       5.629   4.275  14.151  0.00  0.00    +0.000 C 
BRANCH  16  20
ATOM     17  C   UNL     1       6.474   1.949  11.163  0.00  0.00    +0.000 C 
ATOM     18  C   UNL     1       5.752   2.894  12.075  0.00  0.00    +0.000 C 
ATOM     19  C   UNL     1       4.371   3.334  11.662  0.00  0.00    +0.000 C 
ATOM     20  C   UNL     1       6.326   3.328  13.217  0.00  0.00    +0.000 C 
ENDBRANCH  16  20
ENDBRANCH  15  16
ENDBRANCH  12  15
ENDBRANCH  11  14
ENDBRANCH   1  11
BRANCH   3  21
ATOM     21  C   UNL     1       1.428   7.340  18.949  0.00  0.00    +0.000 C 
BRANCH  21  22
ATOM     22  N   UNL     1       1.648   8.449  19.888  0.00  0.00    +0.000 NA
ATOM     23  C   UNL     1       1.240   8.050  21.251  0.00  0.00    +0.000 C 
ATOM     24  C   UNL     1       1.425   9.190  22.281  0.00  0.00    +0.000 C 
ATOM     25  N   UNL     1       0.773  10.467  21.928  0.00  0.00    +0.000 NA
ATOM     26  C   UNL     1      -0.675  10.410  22.110  0.00  0.00    +0.000 C 
ATOM     27  C   UNL     1       1.130  10.815  20.539  0.00  0.00    +0.000 C 
ATOM     28  C   UNL     1       0.923   9.680  19.510  0.00  0.00    +0.000 C 
ENDBRANCH  21  22
ENDBRANCH   3  21
TORSDOF 7
ENDMDL
MODEL 8
REMARK VINA RESULT:      -7.8      2.315      4.990
REMARK  Name = 
REMARK  11 active torsions:
REMARK  status: ('A' for Active; 'I' for Inactive)
REMARK    1  A    between atoms: C_1  and  C_2
REMARK    2  A    between atoms: C_2  and  C_3
REMARK    3  A    between atoms: C_4  and  C_5
REMARK    4  A    between atoms: C_5  and  C_6
REMARK    5  A    between atoms: C_6  and  C_7
REMARK    6  A    between atoms: C_7  and  C_8
REMARK    7  A    between atoms: C_9  and  C_10
REMARK    8  A    between atoms: C_10  and  N_11
REMARK    9  A    between atoms: C_13  and  C_14
REMARK   10  A    between atoms: C_14  and  N_15
REMARK   11  A    between atoms: N_18  and  C_19
REMARK                            x       y       z     vdW  Elec       q    Type
REMARK                         _______ _______ _______ _____ _____    ______ ____
ROOT
ATOM      1  N   UNL     1       3.858   6.885  17.999  0.00  0.00    +0.000 N 
ATOM      2  C   UNL     1       3.780   5.863  18.904  0.00  0.00    +0.000 A 
ATOM      3  C   UNL     1       2.768   6.143  19.804  0.00  0.00    +0.000 A 
ATOM      4  C   UNL     1       2.226   7.417  19.422  0.00  0.00    +0.000 A 
ATOM      5  C   UNL     1       1.214   8.243  19.947  0.00  0.00    +0.000 A 
ATOM      6  C   UNL     1       0.938   9.458  19.321  0.00  0.00    +0.000 A 
ATOM      7  F   UNL     1      -0.008  10.257  19.833  0.00  0.00    +0.000 F 
ATOM      8  C   UNL     1       1.619   9.864  18.183  0.00  0.00    +0.000 A 
ATOM      9  C   UNL     1       2.619   9.061  17.635  0.00  0.00    +0.000 A 
ATOM     10  C   UNL     1       2.915   7.848  18.280  0.00  0.00    +0.000 A 
ENDROOT
BRANCH   1  11
ATOM     11  C   UNL     1       4.866   6.968  16.950  0.00  0.00    +0.000 C 
BRANCH  11  14
ATOM     12  C   UNL     1       5.947   4.815  16.144  0.00  0.00    +0.000 C 
ATOM     13  C   UNL     1       7.120   5.017  17.074  0.00  0.00    +0.000 C 
ATOM     14  C   UNL     1       4.938   5.713  16.124  0.00  0.00    +0.000 C 
BRANCH  12  15
ATOM     15  C   UNL     1       5.889   3.604  15.219  0.00  0.00    +0.000 C 
BRANCH  15  16
ATOM     16  C   UNL     1       6.230   3.903  13.756  0.00  0.00    +0.000 C 
BRANCH  16  20
ATOM     17  C   UNL     1       3.725   3.235  10.869  0.00  0.00    +0.000 C 
ATOM     18  C   UNL     1       4.897   3.120  11.796  0.00  0.00    +0.000 C 
ATOM     19  C   UNL     1       5.867   1.993  11.546  0.00  0.00    +0.000 C 
ATOM     20  C   UNL     1       5.066   3.993  12.811  0.00  0.00    +0.000 C 
ENDBRANCH  16  20
ENDBRANCH  15  16
ENDBRANCH  12  15
ENDBRANCH  11  14
ENDBRANCH   1  11
BRANCH   3  21
ATOM     21  C   UNL     1       2.354   5.281  20.960  0.00  0.00    +0.000 C 
BRANCH  21  22
ATOM     22  N   UNL     1       2.089   3.900  20.529  0.00  0.00    +0.000 NA
ATOM     23  C   UNL     1       3.354   3.231  20.163  0.00  0.00    +0.000 C 
ATOM     24  C   UNL     1       3.134   1.779  19.675  0.00  0.00    +0.000 C 
ATOM     25  N   UNL     1       2.161   1.627  18.574  0.00  0.00    +0.000 NA
ATOM     26  C   UNL     1       2.709   2.074  17.296  0.00  0.00    +0.000 C 
ATOM     27  C   UNL     1       0.931   2.363  18.922  0.00  0.00    +0.000 C 
ATOM     28  C   UNL     1       1.154   3.820  19.389  0.00  0.00    +0.000 C 
ENDBRANCH  21  22
ENDBRANCH   3  21
TORSDOF 7
ENDMDL
MODEL 9
REMARK VINA RESULT:      -7.8      2.263      5.041
REMARK  Name = 
REMARK  11 active torsions:
REMARK  status: ('A' for Active; 'I' for Inactive)
REMARK    1  A    between atoms: C_1  and  C_2
REMARK    2  A    between atoms: C_2  and  C_3
REMARK    3  A    between atoms: C_4  and  C_5
REMARK    4  A    between atoms: C_5  and  C_6
REMARK    5  A    between atoms: C_6  and  C_7
REMARK    6  A    between atoms: C_7  and  C_8
REMARK    7  A    between atoms: C_9  and  C_10
REMARK    8  A    between atoms: C_10  and  N_11
REMARK    9  A    between atoms: C_13  and  C_14
REMARK   10  A    between atoms: C_14  and  N_15
REMARK   11  A    between atoms: N_18  and  C_19
REMARK                            x       y       z     vdW  Elec       q    Type
REMARK                         _______ _______ _______ _____ _____    ______ ____
ROOT
ATOM      1  N   UNL     1       3.296   7.244  18.072  0.00  0.00    +0.000 N 
ATOM      2  C   UNL     1       3.353   6.149  18.890  0.00  0.00    +0.000 A 
ATOM      3  C   UNL     1       2.464   6.329  19.934  0.00  0.00    +0.000 A 
ATOM      4  C   UNL     1       1.858   7.615  19.735  0.00  0.00    +0.000 A 
ATOM      5  C   UNL     1       0.913   8.369  20.456  0.00  0.00    +0.000 A 
ATOM      6  C   UNL     1       0.539   9.624  19.977  0.00  0.00    +0.000 A 
ATOM      7  F   UNL     1      -0.342  10.354  20.674  0.00  0.00    +0.000 F 
ATOM      8  C   UNL     1       1.058  10.140  18.799  0.00  0.00    +0.000 A 
ATOM      9  C   UNL     1       1.988   9.410  18.059  0.00  0.00    +0.000 A 
ATOM     10  C   UNL     1       2.384   8.156  18.555  0.00  0.00    +0.000 A 
ENDROOT
BRANCH   1  11
ATOM     11  C   UNL     1       4.156   7.439  16.912  0.00  0.00    +0.000 C 
BRANCH  11  14
ATOM     12  C   UNL     1       6.205   5.952  16.708  0.00  0.00    +0.000 C 
ATOM     13  C   UNL     1       7.068   6.993  17.381  0.00  0.00    +0.000 C 
ATOM     14  C   UNL     1       4.888   6.183  16.524  0.00  0.00    +0.000 C 
BRANCH  12  15
ATOM     15  C   UNL     1       6.808   4.636  16.228  0.00  0.00    +0.000 C 
BRANCH  15  16
ATOM     16  C   UNL     1       7.037   4.553  14.717  0.00  0.00    +0.000 C 
BRANCH  16  20
ATOM     17  C   UNL     1       4.988   2.973  11.825  0.00  0.00    +0.000 C 
ATOM     18  C   UNL     1       6.073   3.669  12.591  0.00  0.00    +0.000 C 
ATOM     19  C   UNL     1       7.277   4.135  11.813  0.00  0.00    +0.000 C 
ATOM     20  C   UNL     1       5.966   3.861  13.922  0.00  0.00    +0.000 C 
ENDBRANCH  16  20
ENDBRANCH  15  16
ENDBRANCH  12  15
ENDBRANCH  11  14
ENDBRANCH   1  11
BRANCH   3  21
ATOM     21  C   UNL     1       2.219   5.363  21.057  0.00  0.00    +0.000 C 
BRANCH  21  22
ATOM     22  N   UNL     1       2.062   3.990  20.556  0.00  0.00    +0.000 NA
ATOM     23  C   UNL     1       3.372   3.446  20.147  0.00  0.00    +0.000 C 
ATOM     24  C   UNL     1       3.266   2.007  19.585  0.00  0.00    +0.000 C 
ATOM     25  N   UNL     1       2.296   1.834  18.485  0.00  0.00    +0.000 NA
ATOM     26  C   UNL     1       2.792   2.390  17.228  0.00  0.00    +0.000 C 
ATOM     27  C   UNL     1       1.014   2.448  18.878  0.00  0.00    +0.000 C 
ATOM     28  C   UNL     1       1.123   3.892  19.419  0.00  0.00    +0.000 C 
ENDBRANCH  21  22
ENDBRANCH   3  21
TORSDOF 7
ENDMDL
