MODEL 1
REMARK VINA RESULT:      -5.9      0.000      0.000
REMARK  Name = 
REMARK  11 active torsions:
REMARK  status: ('A' for Active; 'I' for Inactive)
REMARK    1  A    between atoms: C_1  and  N_2
REMARK    2  A    between atoms: C_3  and  C_4
REMARK    3  A    between atoms: C_4  and  C_5
REMARK    4  A    between atoms: C_5  and  C_6
REMARK    5  A    between atoms: C_6  and  C_7
REMARK    6  A    between atoms: C_7  and  O_9
REMARK    7  A    between atoms: C_14  and  N_15
REMARK    8  A    between atoms: N_15  and  C_16
REMARK    9  A    between atoms: N_15  and  C_19
REMARK   10  A    between atoms: C_16  and  C_17
REMARK   11  A    between atoms: C_19  and  C_20
REMARK                            x       y       z     vdW  Elec       q    Type
REMARK                         _______ _______ _______ _____ _____    ______ ____
ROOT
ATOM      1  C   UNL     1       0.048   8.991  21.940  0.00  0.00    +0.000 C 
ATOM      2  N   UNL     1       0.554   9.294  20.603  0.00  0.00    +0.000 N 
ATOM      3  C   UNL     1       0.346  10.388  19.807  0.00  0.00    +0.000 A 
ATOM      4  N   UNL     1       0.977  10.278  18.614  0.00  0.00    +0.000 NA
ATOM      5  C   UNL     1       1.605   9.092  18.682  0.00  0.00    +0.000 A 
ATOM      6  C   UNL     1       2.414   8.511  17.719  0.00  0.00    +0.000 A 
ATOM      7  C   UNL     1       3.013   7.278  18.025  0.00  0.00    +0.000 A 
ATOM      8  C   UNL     1       2.785   6.628  19.278  0.00  0.00    +0.000 A 
ATOM      9  C   UNL     1       1.914   7.257  20.214  0.00  0.00    +0.000 A 
ATOM     10  C   UNL     1       1.360   8.496  19.877  0.00  0.00    +0.000 A 
ENDROOT
BRANCH   3  11
ATOM     11  C   UNL     1      -0.471  11.610  20.152  0.00  0.00    +0.000 C 
BRANCH  11  12
ATOM     12  C   UNL     1      -1.839  11.694  19.447  0.00  0.00    +0.000 C 
BRANCH  12  13
ATOM     13  C   UNL     1      -1.760  12.191  17.997  0.00  0.00    +0.000 C 
BRANCH  13  14
ATOM     14  C   UNL     1      -2.315  11.147  17.060  0.00  0.00    +0.000 C 
ATOM     15  O   UNL     1      -2.309   9.971  17.389  0.00  0.00    +0.000 OA
BRANCH  14  16
ATOM     16  O   UNL     1      -2.834  11.494  15.862  0.00  0.00    +0.000 OA
ATOM     17  H   UNL     1      -3.787  11.564  15.717  0.00  0.00    +0.000 HD
ENDBRANCH  14  16
ENDBRANCH  13  14
ENDBRANCH  12  13
ENDBRANCH  11  12
ENDBRANCH   3  11
BRANCH   8  18
ATOM     18  N   UNL     1       3.458   5.387  19.599  0.00  0.00    +0.000 N 
BRANCH  18  19
ATOM     19  C   UNL     1       4.890   5.205  19.334  0.00  0.00    +0.000 C 
BRANCH  19  20
ATOM     20  C   UNL     1       5.196   3.961  18.493  0.00  0.00    +0.000 C 
ATOM     21 CL   UNL     1       4.266   4.025  16.973  0.00  0.00    +0.000 Cl
ENDBRANCH  19  20
ENDBRANCH  18  19
BRANCH  18  22
ATOM     22  C   UNL     1       2.739   4.310  20.288  0.00  0.00    +0.000 C 
BRANCH  22  23
ATOM     23  C   UNL     1       1.578   3.752  19.444  0.00  0.00    +0.000 C 
ATOM     24 CL   UNL     1       1.640   1.976  19.294  0.00  0.00    +0.000 Cl
ENDBRANCH  22  23
ENDBRANCH  18  22
ENDBRANCH   8  18
TORSDOF 10
ENDMDL
MODEL 2
REMARK VINA RESULT:      -5.9      2.497      3.290
REMARK  Name = 
REMARK  11 active torsions:
REMARK  status: ('A' for Active; 'I' for Inactive)
REMARK    1  A    between atoms: C_1  and  N_2
REMARK    2  A    between atoms: C_3  and  C_4
REMARK    3  A    between atoms: C_4  and  C_5
REMARK    4  A    between atoms: C_5  and  C_6
REMARK    5  A    between atoms: C_6  and  C_7
REMARK    6  A    between atoms: C_7  and  O_9
REMARK    7  A    between atoms: C_14  and  N_15
REMARK    8  A    between atoms: N_15  and  C_16
REMARK    9  A    between atoms: N_15  and  C_19
REMARK   10  A    between atoms: C_16  and  C_17
REMARK   11  A    between atoms: C_19  and  C_20
REMARK                            x       y       z     vdW  Elec       q    Type
REMARK                         _______ _______ _______ _____ _____    ______ ____
ROOT
ATOM      1  C   UNL     1       0.720   8.462  21.516  0.00  0.00    +0.000 C 
ATOM      2  N   UNL     1       1.209   8.740  20.168  0.00  0.00    +0.000 N 
ATOM      3  C   UNL     1       0.992   9.821  19.356  0.00  0.00    +0.000 A 
ATOM      4  N   UNL     1       1.607   9.690  18.156  0.00  0.00    +0.000 NA
ATOM      5  C   UNL     1       2.235   8.505  18.237  0.00  0.00    +0.000 A 
ATOM      6  C   UNL     1       3.031   7.905  17.274  0.00  0.00    +0.000 A 
ATOM      7  C   UNL     1       3.634   6.678  17.594  0.00  0.00    +0.000 A 
ATOM      8  C   UNL     1       3.421   6.050  18.862  0.00  0.00    +0.000 A 
ATOM      9  C   UNL     1       2.563   6.696  19.798  0.00  0.00    +0.000 A 
ATOM     10  C   UNL     1       2.004   7.929  19.446  0.00  0.00    +0.000 A 
ENDROOT
BRANCH   3  11
ATOM     11  C   UNL     1       0.180  11.050  19.689  0.00  0.00    +0.000 C 
BRANCH  11  12
ATOM     12  C   UNL     1       1.012  12.305  20.020  0.00  0.00    +0.000 C 
BRANCH  12  13
ATOM     13  C   UNL     1       1.016  13.358  18.903  0.00  0.00    +0.000 C 
BRANCH  13  14
ATOM     14  C   UNL     1       2.330  13.324  18.163  0.00  0.00    +0.000 C 
ATOM     15  O   UNL     1       3.136  14.228  18.315  0.00  0.00    +0.000 OA
BRANCH  14  16
ATOM     16  O   UNL     1       2.637  12.298  17.339  0.00  0.00    +0.000 OA
ATOM     17  H   UNL     1       1.967  11.856  16.800  0.00  0.00    +0.000 HD
ENDBRANCH  14  16
ENDBRANCH  13  14
ENDBRANCH  12  13
ENDBRANCH  11  12
ENDBRANCH   3  11
BRANCH   8  18
ATOM     18  N   UNL     1       4.097   4.814  19.195  0.00  0.00    +0.000 N 
BRANCH  18  19
ATOM     19  C   UNL     1       3.425   3.761  19.967  0.00  0.00    +0.000 C 
BRANCH  19  20
ATOM     20  C   UNL     1       4.064   2.380  19.790  0.00  0.00    +0.000 C 
ATOM     21 CL   UNL     1       3.420   1.609  18.316  0.00  0.00    +0.000 Cl
ENDBRANCH  19  20
ENDBRANCH  18  19
BRANCH  18  22
ATOM     22  C   UNL     1       5.445   4.544  18.684  0.00  0.00    +0.000 C 
BRANCH  22  23
ATOM     23  C   UNL     1       6.515   5.405  19.380  0.00  0.00    +0.000 C 
ATOM     24 CL   UNL     1       7.593   6.220  18.217  0.00  0.00    +0.000 Cl
ENDBRANCH  22  23
ENDBRANCH  18  22
ENDBRANCH   8  18
TORSDOF 10
ENDMDL
MODEL 3
REMARK VINA RESULT:      -5.9      1.281      1.329
REMARK  Name = 
REMARK  11 active torsions:
REMARK  status: ('A' for Active; 'I' for Inactive)
REMARK    1  A    between atoms: C_1  and  N_2
REMARK    2  A    between atoms: C_3  and  C_4
REMARK    3  A    between atoms: C_4  and  C_5
REMARK    4  A    between atoms: C_5  and  C_6
REMARK    5  A    between atoms: C_6  and  C_7
REMARK    6  A    between atoms: C_7  and  O_9
REMARK    7  A    between atoms: C_14  and  N_15
REMARK    8  A    between atoms: N_15  and  C_16
REMARK    9  A    between atoms: N_15  and  C_19
REMARK   10  A    between atoms: C_16  and  C_17
REMARK   11  A    between atoms: C_19  and  C_20
REMARK                            x       y       z     vdW  Elec       q    Type
REMARK                         _______ _______ _______ _____ _____    ______ ____
ROOT
ATOM      1  C   UNL     1       0.645   8.325  21.617  0.00  0.00    +0.000 C 
ATOM      2  N   UNL     1       1.088   8.643  20.263  0.00  0.00    +0.000 N 
ATOM      3  C   UNL     1       0.761   9.695  19.451  0.00  0.00    +0.000 A 
ATOM      4  N   UNL     1       1.370   9.619  18.244  0.00  0.00    +0.000 NA
ATOM      5  C   UNL     1       2.107   8.498  18.319  0.00  0.00    +0.000 A 
ATOM      6  C   UNL     1       2.944   7.973  17.347  0.00  0.00    +0.000 A 
ATOM      7  C   UNL     1       3.664   6.809  17.662  0.00  0.00    +0.000 A 
ATOM      8  C   UNL     1       3.527   6.168  18.934  0.00  0.00    +0.000 A 
ATOM      9  C   UNL     1       2.623   6.733  19.879  0.00  0.00    +0.000 A 
ATOM     10  C   UNL     1       1.947   7.908  19.532  0.00  0.00    +0.000 A 
ENDROOT
BRANCH   3  11
ATOM     11  C   UNL     1      -0.159  10.844  19.792  0.00  0.00    +0.000 C 
BRANCH  11  12
ATOM     12  C   UNL     1      -1.041  11.336  18.627  0.00  0.00    +0.000 C 
BRANCH  12  13
ATOM     13  C   UNL     1      -2.056  10.294  18.136  0.00  0.00    +0.000 C 
BRANCH  13  14
ATOM     14  C   UNL     1      -2.359  10.515  16.675  0.00  0.00    +0.000 C 
ATOM     15  O   UNL     1      -2.680   9.570  15.971  0.00  0.00    +0.000 OA
BRANCH  14  16
ATOM     16  O   UNL     1      -2.293  11.750  16.130  0.00  0.00    +0.000 OA
ATOM     17  H   UNL     1      -3.069  12.182  15.747  0.00  0.00    +0.000 HD
ENDBRANCH  14  16
ENDBRANCH  13  14
ENDBRANCH  12  13
ENDBRANCH  11  12
ENDBRANCH   3  11
BRANCH   8  18
ATOM     18  N   UNL     1       4.320   5.002  19.261  0.00  0.00    +0.000 N 
BRANCH  18  19
ATOM     19  C   UNL     1       5.784   5.070  19.333  0.00  0.00    +0.000 C 
BRANCH  19  20
ATOM     20  C   UNL     1       6.473   4.671  18.024  0.00  0.00    +0.000 C 
ATOM     21 CL   UNL     1       7.354   6.074  17.362  0.00  0.00    +0.000 Cl
ENDBRANCH  19  20
ENDBRANCH  18  19
BRANCH  18  22
ATOM     22  C   UNL     1       3.668   3.739  19.625  0.00  0.00    +0.000 C 
BRANCH  22  23
ATOM     23  C   UNL     1       2.577   3.335  18.615  0.00  0.00    +0.000 C 
ATOM     24 CL   UNL     1       0.981   3.133  19.385  0.00  0.00    +0.000 Cl
ENDBRANCH  22  23
ENDBRANCH  18  22
ENDBRANCH   8  18
TORSDOF 10
ENDMDL
MODEL 4
REMARK VINA RESULT:      -5.9      4.769      7.785
REMARK  Name = 
REMARK  11 active torsions:
REMARK  status: ('A' for Active; 'I' for Inactive)
REMARK    1  A    between atoms: C_1  and  N_2
REMARK    2  A    between atoms: C_3  and  C_4
REMARK    3  A    between atoms: C_4  and  C_5
REMARK    4  A    between atoms: C_5  and  C_6
REMARK    5  A    between atoms: C_6  and  C_7
REMARK    6  A    between atoms: C_7  and  O_9
REMARK    7  A    between atoms: C_14  and  N_15
REMARK    8  A    between atoms: N_15  and  C_16
REMARK    9  A    between atoms: N_15  and  C_19
REMARK   10  A    between atoms: C_16  and  C_17
REMARK   11  A    between atoms: C_19  and  C_20
REMARK                            x       y       z     vdW  Elec       q    Type
REMARK                         _______ _______ _______ _____ _____    ______ ____
ROOT
ATOM      1  C   UNL     1       2.908   4.589  20.403  0.00  0.00    +0.000 C 
ATOM      2  N   UNL     1       3.139   5.509  19.292  0.00  0.00    +0.000 N 
ATOM      3  C   UNL     1       3.888   5.352  18.157  0.00  0.00    +0.000 A 
ATOM      4  N   UNL     1       3.869   6.457  17.375  0.00  0.00    +0.000 NA
ATOM      5  C   UNL     1       3.073   7.313  18.037  0.00  0.00    +0.000 A 
ATOM      6  C   UNL     1       2.706   8.593  17.651  0.00  0.00    +0.000 A 
ATOM      7  C   UNL     1       1.816   9.297  18.479  0.00  0.00    +0.000 A 
ATOM      8  C   UNL     1       1.318   8.727  19.693  0.00  0.00    +0.000 A 
ATOM      9  C   UNL     1       1.760   7.423  20.057  0.00  0.00    +0.000 A 
ATOM     10  C   UNL     1       2.626   6.749  19.189  0.00  0.00    +0.000 A 
ENDROOT
BRANCH   3  11
ATOM     11  C   UNL     1       4.665   4.121  17.754  0.00  0.00    +0.000 C 
BRANCH  11  12
ATOM     12  C   UNL     1       5.036   4.050  16.260  0.00  0.00    +0.000 C 
BRANCH  12  13
ATOM     13  C   UNL     1       6.547   4.081  15.994  0.00  0.00    +0.000 C 
BRANCH  13  14
ATOM     14  C   UNL     1       6.813   4.454  14.557  0.00  0.00    +0.000 C 
ATOM     15  O   UNL     1       6.262   3.839  13.657  0.00  0.00    +0.000 OA
BRANCH  14  16
ATOM     16  O   UNL     1       7.647   5.470  14.245  0.00  0.00    +0.000 OA
ATOM     17  H   UNL     1       7.696   6.274  14.779  0.00  0.00    +0.000 HD
ENDBRANCH  14  16
ENDBRANCH  13  14
ENDBRANCH  12  13
ENDBRANCH  11  12
ENDBRANCH   3  11
BRANCH   8  18
ATOM     18  N   UNL     1       0.356   9.445  20.503  0.00  0.00    +0.000 N 
BRANCH  18  19
ATOM     19  C   UNL     1      -0.294   8.811  21.656  0.00  0.00    +0.000 C 
BRANCH  19  20
ATOM     20  C   UNL     1      -0.004   9.523  22.981  0.00  0.00    +0.000 C 
ATOM     21 CL   UNL     1      -1.279  10.728  23.302  0.00  0.00    +0.000 Cl
ENDBRANCH  19  20
ENDBRANCH  18  19
BRANCH  18  22
ATOM     22  C   UNL     1       0.080  10.862  20.246  0.00  0.00    +0.000 C 
BRANCH  22  23
ATOM     23  C   UNL     1      -1.280  11.075  19.557  0.00  0.00    +0.000 C 
ATOM     24 CL   UNL     1      -2.243  12.359  20.335  0.00  0.00    +0.000 Cl
ENDBRANCH  22  23
ENDBRANCH  18  22
ENDBRANCH   8  18
TORSDOF 10
ENDMDL
MODEL 5
REMARK VINA RESULT:      -5.8      4.639      7.651
REMARK  Name = 
REMARK  11 active torsions:
REMARK  status: ('A' for Active; 'I' for Inactive)
REMARK    1  A    between atoms: C_1  and  N_2
REMARK    2  A    between atoms: C_3  and  C_4
REMARK    3  A    between atoms: C_4  and  C_5
REMARK    4  A    between atoms: C_5  and  C_6
REMARK    5  A    between atoms: C_6  and  C_7
REMARK    6  A    between atoms: C_7  and  O_9
REMARK    7  A    between atoms: C_14  and  N_15
REMARK    8  A    between atoms: N_15  and  C_16
REMARK    9  A    between atoms: N_15  and  C_19
REMARK   10  A    between atoms: C_16  and  C_17
REMARK   11  A    between atoms: C_19  and  C_20
REMARK                            x       y       z     vdW  Elec       q    Type
REMARK                         _______ _______ _______ _____ _____    ______ ____
ROOT
ATOM      1  C   UNL     1       2.306   5.075  20.987  0.00  0.00    +0.000 C 
ATOM      2  N   UNL     1       2.547   5.801  19.742  0.00  0.00    +0.000 N 
ATOM      3  C   UNL     1       3.153   5.392  18.585  0.00  0.00    +0.000 A 
ATOM      4  N   UNL     1       3.203   6.379  17.659  0.00  0.00    +0.000 NA
ATOM      5  C   UNL     1       2.596   7.419  18.253  0.00  0.00    +0.000 A 
ATOM      6  C   UNL     1       2.364   8.677  17.720  0.00  0.00    +0.000 A 
ATOM      7  C   UNL     1       1.660   9.602  18.508  0.00  0.00    +0.000 A 
ATOM      8  C   UNL     1       1.213   9.272  19.826  0.00  0.00    +0.000 A 
ATOM      9  C   UNL     1       1.513   7.976  20.335  0.00  0.00    +0.000 A 
ATOM     10  C   UNL     1       2.193   7.078  19.505  0.00  0.00    +0.000 A 
ENDROOT
BRANCH   3  11
ATOM     11  C   UNL     1       3.718   4.021  18.300  0.00  0.00    +0.000 C 
BRANCH  11  12
ATOM     12  C   UNL     1       5.049   4.018  17.522  0.00  0.00    +0.000 C 
BRANCH  12  13
ATOM     13  C   UNL     1       6.162   4.834  18.194  0.00  0.00    +0.000 C 
BRANCH  13  14
ATOM     14  C   UNL     1       7.313   5.027  17.238  0.00  0.00    +0.000 C 
ATOM     15  O   UNL     1       8.186   4.176  17.159  0.00  0.00    +0.000 OA
BRANCH  14  16
ATOM     16  O   UNL     1       7.391   6.125  16.455  0.00  0.00    +0.000 OA
ATOM     17  H   UNL     1       8.059   6.809  16.597  0.00  0.00    +0.000 HD
ENDBRANCH  14  16
ENDBRANCH  13  14
ENDBRANCH  12  13
ENDBRANCH  11  12
ENDBRANCH   3  11
BRANCH   8  18
ATOM     18  N   UNL     1       0.439  10.219  20.601  0.00  0.00    +0.000 N 
BRANCH  18  19
ATOM     19  C   UNL     1       0.646  11.666  20.466  0.00  0.00    +0.000 C 
BRANCH  19  20
ATOM     20  C   UNL     1      -0.615  12.421  20.036  0.00  0.00    +0.000 C 
ATOM     21 CL   UNL     1      -1.054  11.951  18.373  0.00  0.00    +0.000 Cl
ENDBRANCH  19  20
ENDBRANCH  18  19
BRANCH  18  22
ATOM     22  C   UNL     1      -0.644   9.754  21.474  0.00  0.00    +0.000 C 
BRANCH  22  23
ATOM     23  C   UNL     1      -0.517  10.307  22.905  0.00  0.00    +0.000 C 
ATOM     24 CL   UNL     1      -1.845  11.421  23.324  0.00  0.00    +0.000 Cl
ENDBRANCH  22  23
ENDBRANCH  18  22
ENDBRANCH   8  18
TORSDOF 10
ENDMDL
MODEL 6
REMARK VINA RESULT:      -5.8      4.745      7.833
REMARK  Name = 
REMARK  11 active torsions:
REMARK  status: ('A' for Active; 'I' for Inactive)
REMARK    1  A    between atoms: C_1  and  N_2
REMARK    2  A    between atoms: C_3  and  C_4
REMARK    3  A    between atoms: C_4  and  C_5
REMARK    4  A    between atoms: C_5  and  C_6
REMARK    5  A    between atoms: C_6  and  C_7
REMARK    6  A    between atoms: C_7  and  O_9
REMARK    7  A    between atoms: C_14  and  N_15
REMARK    8  A    between atoms: N_15  and  C_16
REMARK    9  A    between atoms: N_15  and  C_19
REMARK   10  A    between atoms: C_16  and  C_17
REMARK   11  A    between atoms: C_19  and  C_20
REMARK                            x       y       z     vdW  Elec       q    Type
REMARK                         _______ _______ _______ _____ _____    ______ ____
ROOT
ATOM      1  C   UNL     1       2.533   5.186  20.809  0.00  0.00    +0.000 C 
ATOM      2  N   UNL     1       2.788   5.994  19.619  0.00  0.00    +0.000 N 
ATOM      3  C   UNL     1       3.535   5.715  18.507  0.00  0.00    +0.000 A 
ATOM      4  N   UNL     1       3.544   6.743  17.626  0.00  0.00    +0.000 NA
ATOM      5  C   UNL     1       2.768   7.675  18.202  0.00  0.00    +0.000 A 
ATOM      6  C   UNL     1       2.432   8.922  17.698  0.00  0.00    +0.000 A 
ATOM      7  C   UNL     1       1.557   9.720  18.453  0.00  0.00    +0.000 A 
ATOM      8  C   UNL     1       1.043   9.277  19.713  0.00  0.00    +0.000 A 
ATOM      9  C   UNL     1       1.453   8.002  20.197  0.00  0.00    +0.000 A 
ATOM     10  C   UNL     1       2.305   7.231  19.399  0.00  0.00    +0.000 A 
ENDROOT
BRANCH   3  11
ATOM     11  C   UNL     1       4.284   4.434  18.222  0.00  0.00    +0.000 C 
BRANCH  11  12
ATOM     12  C   UNL     1       5.660   4.322  18.909  0.00  0.00    +0.000 C 
BRANCH  12  13
ATOM     13  C   UNL     1       6.796   5.004  18.136  0.00  0.00    +0.000 C 
BRANCH  13  14
ATOM     14  C   UNL     1       7.648   5.818  19.078  0.00  0.00    +0.000 C 
ATOM     15  O   UNL     1       8.134   6.873  18.700  0.00  0.00    +0.000 OA
BRANCH  14  16
ATOM     16  O   UNL     1       7.875   5.405  20.344  0.00  0.00    +0.000 OA
ATOM     17  H   UNL     1       8.208   4.518  20.541  0.00  0.00    +0.000 HD
ENDBRANCH  14  16
ENDBRANCH  13  14
ENDBRANCH  12  13
ENDBRANCH  11  12
ENDBRANCH   3  11
BRANCH   8  18
ATOM     18  N   UNL     1       0.097  10.089  20.450  0.00  0.00    +0.000 N 
BRANCH  18  19
ATOM     19  C   UNL     1       0.401  10.579  21.799  0.00  0.00    +0.000 C 
BRANCH  19  20
ATOM     20  C   UNL     1      -0.544  10.026  22.870  0.00  0.00    +0.000 C 
ATOM     21 CL   UNL     1      -1.769  11.257  23.278  0.00  0.00    +0.000 Cl
ENDBRANCH  19  20
ENDBRANCH  18  19
BRANCH  18  22
ATOM     22  C   UNL     1      -1.155  10.523  19.822  0.00  0.00    +0.000 C 
BRANCH  22  23
ATOM     23  C   UNL     1      -1.156  12.030  19.505  0.00  0.00    +0.000 C 
ATOM     24 CL   UNL     1      -1.317  12.356  17.759  0.00  0.00    +0.000 Cl
ENDBRANCH  22  23
ENDBRANCH  18  22
ENDBRANCH   8  18
TORSDOF 10
ENDMDL
MODEL 7
REMARK VINA RESULT:      -5.8      4.946      6.731
REMARK  Name = 
REMARK  11 active torsions:
REMARK  status: ('A' for Active; 'I' for Inactive)
REMARK    1  A    between atoms: C_1  and  N_2
REMARK    2  A    between atoms: C_3  and  C_4
REMARK    3  A    between atoms: C_4  and  C_5
REMARK    4  A    between atoms: C_5  and  C_6
REMARK    5  A    between atoms: C_6  and  C_7
REMARK    6  A    between atoms: C_7  and  O_9
REMARK    7  A    between atoms: C_14  and  N_15
REMARK    8  A    between atoms: N_15  and  C_16
REMARK    9  A    between atoms: N_15  and  C_19
REMARK   10  A    between atoms: C_16  and  C_17
REMARK   11  A    between atoms: C_19  and  C_20
REMARK                            x       y       z     vdW  Elec       q    Type
REMARK                         _______ _______ _______ _____ _____    ______ ____
ROOT
ATOM      1  C   UNL     1       4.594   2.576  20.174  0.00  0.00    +0.000 C 
ATOM      2  N   UNL     1       3.907   3.841  19.925  0.00  0.00    +0.000 N 
ATOM      3  C   UNL     1       2.801   4.378  20.526  0.00  0.00    +0.000 A 
ATOM      4  N   UNL     1       2.457   5.572  19.989  0.00  0.00    +0.000 NA
ATOM      5  C   UNL     1       3.386   5.786  19.042  0.00  0.00    +0.000 A 
ATOM      6  C   UNL     1       3.500   6.887  18.207  0.00  0.00    +0.000 A 
ATOM      7  C   UNL     1       4.588   6.925  17.320  0.00  0.00    +0.000 A 
ATOM      8  C   UNL     1       5.539   5.857  17.259  0.00  0.00    +0.000 A 
ATOM      9  C   UNL     1       5.348   4.735  18.115  0.00  0.00    +0.000 A 
ATOM     10  C   UNL     1       4.265   4.752  19.001  0.00  0.00    +0.000 A 
ENDROOT
BRANCH   3  11
ATOM     11  C   UNL     1       2.009   3.772  21.660  0.00  0.00    +0.000 C 
BRANCH  11  12
ATOM     12  C   UNL     1       1.099   2.594  21.259  0.00  0.00    +0.000 C 
BRANCH  12  13
ATOM     13  C   UNL     1       0.283   2.847  19.984  0.00  0.00    +0.000 C 
BRANCH  13  14
ATOM     14  C   UNL     1       1.086   2.456  18.769  0.00  0.00    +0.000 C 
ATOM     15  O   UNL     1       1.105   3.188  17.791  0.00  0.00    +0.000 OA
BRANCH  14  16
ATOM     16  O   UNL     1       1.798   1.308  18.746  0.00  0.00    +0.000 OA
ATOM     17  H   UNL     1       1.374   0.444  18.650  0.00  0.00    +0.000 HD
ENDBRANCH  14  16
ENDBRANCH  13  14
ENDBRANCH  12  13
ENDBRANCH  11  12
ENDBRANCH   3  11
BRANCH   8  18
ATOM     18  N   UNL     1       6.685   5.941  16.379  0.00  0.00    +0.000 N 
BRANCH  18  19
ATOM     19  C   UNL     1       7.689   7.001  16.531  0.00  0.00    +0.000 C 
BRANCH  19  20
ATOM     20  C   UNL     1       7.931   7.399  17.990  0.00  0.00    +0.000 C 
ATOM     21 CL   UNL     1       8.216   9.157  18.089  0.00  0.00    +0.000 Cl
ENDBRANCH  19  20
ENDBRANCH  18  19
BRANCH  18  22
ATOM     22  C   UNL     1       6.922   4.905  15.368  0.00  0.00    +0.000 C 
BRANCH  22  23
ATOM     23  C   UNL     1       5.644   4.555  14.582  0.00  0.00    +0.000 C 
ATOM     24 CL   UNL     1       5.995   3.663  13.078  0.00  0.00    +0.000 Cl
ENDBRANCH  22  23
ENDBRANCH  18  22
ENDBRANCH   8  18
TORSDOF 10
ENDMDL
MODEL 8
REMARK VINA RESULT:      -5.8      1.504      2.959
REMARK  Name = 
REMARK  11 active torsions:
REMARK  status: ('A' for Active; 'I' for Inactive)
REMARK    1  A    between atoms: C_1  and  N_2
REMARK    2  A    between atoms: C_3  and  C_4
REMARK    3  A    between atoms: C_4  and  C_5
REMARK    4  A    between atoms: C_5  and  C_6
REMARK    5  A    between atoms: C_6  and  C_7
REMARK    6  A    between atoms: C_7  and  O_9
REMARK    7  A    between atoms: C_14  and  N_15
REMARK    8  A    between atoms: N_15  and  C_16
REMARK    9  A    between atoms: N_15  and  C_19
REMARK   10  A    between atoms: C_16  and  C_17
REMARK   11  A    between atoms: C_19  and  C_20
REMARK                            x       y       z     vdW  Elec       q    Type
REMARK                         _______ _______ _______ _____ _____    ______ ____
ROOT
ATOM      1  C   UNL     1       1.978  10.011  17.897  0.00  0.00    +0.000 C 
ATOM      2  N   UNL     1       1.686   9.150  19.040  0.00  0.00    +0.000 N 
ATOM      3  C   UNL     1       1.039   9.430  20.213  0.00  0.00    +0.000 A 
ATOM      4  N   UNL     1       0.992   8.358  21.039  0.00  0.00    +0.000 NA
ATOM      5  C   UNL     1       1.610   7.385  20.350  0.00  0.00    +0.000 A 
ATOM      6  C   UNL     1       1.813   6.072  20.743  0.00  0.00    +0.000 A 
ATOM      7  C   UNL     1       2.444   5.206  19.834  0.00  0.00    +0.000 A 
ATOM      8  C   UNL     1       2.885   5.663  18.552  0.00  0.00    +0.000 A 
ATOM      9  C   UNL     1       2.682   7.033  18.218  0.00  0.00    +0.000 A 
ATOM     10  C   UNL     1       2.027   7.852  19.144  0.00  0.00    +0.000 A 
ENDROOT
BRANCH   3  11
ATOM     11  C   UNL     1       0.422  10.751  20.609  0.00  0.00    +0.000 C 
BRANCH  11  12
ATOM     12  C   UNL     1      -0.990  11.001  20.045  0.00  0.00    +0.000 C 
BRANCH  12  13
ATOM     13  C   UNL     1      -1.011  11.906  18.805  0.00  0.00    +0.000 C 
BRANCH  13  14
ATOM     14  C   UNL     1      -1.821  11.262  17.707  0.00  0.00    +0.000 C 
ATOM     15  O   UNL     1      -1.517  10.152  17.299  0.00  0.00    +0.000 OA
BRANCH  14  16
ATOM     16  O   UNL     1      -2.890  11.890  17.172  0.00  0.00    +0.000 OA
ATOM     17  H   UNL     1      -3.593  11.407  16.716  0.00  0.00    +0.000 HD
ENDBRANCH  14  16
ENDBRANCH  13  14
ENDBRANCH  12  13
ENDBRANCH  11  12
ENDBRANCH   3  11
BRANCH   8  18
ATOM     18  N   UNL     1       3.481   4.743  17.607  0.00  0.00    +0.000 N 
BRANCH  18  19
ATOM     19  C   UNL     1       2.764   3.546  17.151  0.00  0.00    +0.000 C 
BRANCH  19  20
ATOM     20  C   UNL     1       3.188   2.271  17.887  0.00  0.00    +0.000 C 
ATOM     21 CL   UNL     1       1.916   1.798  19.044  0.00  0.00    +0.000 Cl
ENDBRANCH  19  20
ENDBRANCH  18  19
BRANCH  18  22
ATOM     22  C   UNL     1       4.786   5.039  17.006  0.00  0.00    +0.000 C 
BRANCH  22  23
ATOM     23  C   UNL     1       5.939   4.897  18.017  0.00  0.00    +0.000 C 
ATOM     24 CL   UNL     1       7.485   4.483  17.230  0.00  0.00    +0.000 Cl
ENDBRANCH  22  23
ENDBRANCH  18  22
ENDBRANCH   8  18
TORSDOF 10
ENDMDL
MODEL 9
REMARK VINA RESULT:      -5.8      3.530      4.738
REMARK  Name = 
REMARK  11 active torsions:
REMARK  status: ('A' for Active; 'I' for Inactive)
REMARK    1  A    between atoms: C_1  and  N_2
REMARK    2  A    between atoms: C_3  and  C_4
REMARK    3  A    between atoms: C_4  and  C_5
REMARK    4  A    between atoms: C_5  and  C_6
REMARK    5  A    between atoms: C_6  and  C_7
REMARK    6  A    between atoms: C_7  and  O_9
REMARK    7  A    between atoms: C_14  and  N_15
REMARK    8  A    between atoms: N_15  and  C_16
REMARK    9  A    between atoms: N_15  and  C_19
REMARK   10  A    between atoms: C_16  and  C_17
REMARK   11  A    between atoms: C_19  and  C_20
REMARK                            x       y       z     vdW  Elec       q    Type
REMARK                         _______ _______ _______ _____ _____    ______ ____
ROOT
ATOM      1  C   UNL     1       2.418   4.562  20.965  0.00  0.00    +0.000 C 
ATOM      2  N   UNL     1       2.509   5.747  20.117  0.00  0.00    +0.000 N 
ATOM      3  C   UNL     1       1.833   6.936  20.186  0.00  0.00    +0.000 A 
ATOM      4  N   UNL     1       2.187   7.783  19.190  0.00  0.00    +0.000 NA
ATOM      5  C   UNL     1       3.117   7.105  18.498  0.00  0.00    +0.000 A 
ATOM      6  C   UNL     1       3.820   7.537  17.384  0.00  0.00    +0.000 A 
ATOM      7  C   UNL     1       4.790   6.676  16.847  0.00  0.00    +0.000 A 
ATOM      8  C   UNL     1       5.037   5.386  17.413  0.00  0.00    +0.000 A 
ATOM      9  C   UNL     1       4.258   4.981  18.535  0.00  0.00    +0.000 A 
ATOM     10  C   UNL     1       3.320   5.882  19.052  0.00  0.00    +0.000 A 
ENDROOT
BRANCH   3  11
ATOM     11  C   UNL     1       0.807   7.330  21.222  0.00  0.00    +0.000 C 
BRANCH  11  12
ATOM     12  C   UNL     1       0.898   8.793  21.699  0.00  0.00    +0.000 C 
BRANCH  12  13
ATOM     13  C   UNL     1      -0.333   9.266  22.485  0.00  0.00    +0.000 C 
BRANCH  13  14
ATOM     14  C   UNL     1      -0.350  10.772  22.565  0.00  0.00    +0.000 C 
ATOM     15  O   UNL     1       0.407  11.426  21.865  0.00  0.00    +0.000 OA
BRANCH  14  16
ATOM     16  O   UNL     1      -1.202  11.415  23.393  0.00  0.00    +0.000 OA
ATOM     17  H   UNL     1      -2.161  11.371  23.277  0.00  0.00    +0.000 HD
ENDBRANCH  14  16
ENDBRANCH  13  14
ENDBRANCH  12  13
ENDBRANCH  11  12
ENDBRANCH   3  11
BRANCH   8  18
ATOM     18  N   UNL     1       6.082   4.535  16.882  0.00  0.00    +0.000 N 
BRANCH  18  19
ATOM     19  C   UNL     1       5.822   3.608  15.774  0.00  0.00    +0.000 C 
BRANCH  19  20
ATOM     20  C   UNL     1       5.604   4.315  14.432  0.00  0.00    +0.000 C 
ATOM     21 CL   UNL     1       7.162   4.932  13.823  0.00  0.00    +0.000 Cl
ENDBRANCH  19  20
ENDBRANCH  18  19
BRANCH  18  22
ATOM     22  C   UNL     1       7.457   4.650  17.379  0.00  0.00    +0.000 C 
BRANCH  22  23
ATOM     23  C   UNL     1       7.542   5.492  18.666  0.00  0.00    +0.000 C 
ATOM     24 CL   UNL     1       8.049   7.172  18.346  0.00  0.00    +0.000 Cl
ENDBRANCH  22  23
ENDBRANCH  18  22
ENDBRANCH   8  18
TORSDOF 10
ENDMDL
