MODEL 1
REMARK VINA RESULT:      -8.6      0.000      0.000
REMARK  Name = 
REMARK  6 active torsions:
REMARK  status: ('A' for Active; 'I' for Inactive)
REMARK    1  A    between atoms: C_1  and  C_2
REMARK    2  A    between atoms: C_5  and  N_6
REMARK    3  A    between atoms: C_7  and  C_9
REMARK    4  A    between atoms: C_14  and  N_15
REMARK    5  A    between atoms: C_24  and  S_25
REMARK    6  A    between atoms: S_25  and  C_28
REMARK                            x       y       z     vdW  Elec       q    Type
REMARK                         _______ _______ _______ _____ _____    ______ ____
ROOT
ATOM      1  N   UNL     1       2.870   6.608  17.962  0.00  0.00    +0.000 N 
ATOM      2  C   UNL     1       4.194   6.183  18.049  0.00  0.00    +0.000 C 
ATOM      3  O   UNL     1       4.941   6.427  18.989  0.00  0.00    +0.000 OA
ATOM      4  H   UNL     1       2.384   6.533  17.078  0.00  0.00    +0.000 HD
ENDROOT
BRANCH   1   9
ATOM      5  C   UNL     1       0.457   9.638  22.186  0.00  0.00    +0.000 C 
ATOM      6  C   UNL     1       1.052   8.924  21.007  0.00  0.00    +0.000 A 
ATOM      7  C   UNL     1       1.337   7.558  21.202  0.00  0.00    +0.000 A 
ATOM      8  C   UNL     1       1.919   6.790  20.206  0.00  0.00    +0.000 A 
ATOM      9  C   UNL     1       2.233   7.351  18.973  0.00  0.00    +0.000 A 
ATOM     10  C   UNL     1       1.914   8.692  18.732  0.00  0.00    +0.000 A 
ATOM     11  C   UNL     1       1.364   9.493  19.754  0.00  0.00    +0.000 A 
BRANCH  11  12
ATOM     12  S   UNL     1       0.959  11.181  19.289  0.00  0.00    +0.000 S 
ATOM     13  O   UNL     1       1.282  12.000  20.451  0.00  0.00    +0.000 OA
ATOM     14  O   UNL     1       1.593  11.477  18.025  0.00  0.00    +0.000 OA
BRANCH  12  15
ATOM     15  C   UNL     1      -0.817  11.270  19.067  0.00  0.00    +0.000 C 
ATOM     16  C   UNL     1      -1.163  12.219  17.913  0.00  0.00    +0.000 C 
ATOM     17  C   UNL     1      -2.386  11.652  17.214  0.00  0.00    +0.000 C 
ATOM     18  C   UNL     1      -2.495  10.195  17.622  0.00  0.00    +0.000 C 
ATOM     19  C   UNL     1      -1.460   9.938  18.711  0.00  0.00    +0.000 C 
ENDBRANCH  12  15
ENDBRANCH  11  12
ENDBRANCH   1   9
BRANCH   2  20
ATOM     20  C   UNL     1       4.738   5.469  16.864  0.00  0.00    +0.000 A 
ATOM     21  C   UNL     1       5.491   6.227  15.947  0.00  0.00    +0.000 A 
ATOM     22  C   UNL     1       6.208   5.589  14.951  0.00  0.00    +0.000 A 
ATOM     23  C   UNL     1       6.166   4.213  14.923  0.00  0.00    +0.000 A 
ATOM     24  N   UNL     1       5.425   3.461  15.770  0.00  0.00    +0.000 NA
ATOM     25  C   UNL     1       4.684   4.063  16.740  0.00  0.00    +0.000 A 
BRANCH  25  26
ATOM     26  N   UNL     1       3.919   3.226  17.528  0.00  0.00    +0.000 N 
ATOM     27  C   UNL     1       4.350   2.753  18.846  0.00  0.00    +0.000 C 
ATOM     28  C   UNL     1       3.486   3.374  19.944  0.00  0.00    +0.000 C 
ATOM     29  C   UNL     1       2.018   3.128  19.691  0.00  0.00    +0.000 C 
ATOM     30  C   UNL     1       1.574   3.538  18.296  0.00  0.00    +0.000 C 
ATOM     31  C   UNL     1       2.506   2.980  17.208  0.00  0.00    +0.000 C 
ATOM     32  C   UNL     1       1.335   1.971  20.389  0.00  0.00    +0.000 C 
ATOM     33  C   UNL     1       1.071   3.378  20.844  0.00  0.00    +0.000 C 
ENDBRANCH  25  26
ENDBRANCH   2  20
TORSDOF 5
ENDMDL
MODEL 2
REMARK VINA RESULT:      -8.1      1.479      2.015
REMARK  Name = 
REMARK  6 active torsions:
REMARK  status: ('A' for Active; 'I' for Inactive)
REMARK    1  A    between atoms: C_1  and  C_2
REMARK    2  A    between atoms: C_5  and  N_6
REMARK    3  A    between atoms: C_7  and  C_9
REMARK    4  A    between atoms: C_14  and  N_15
REMARK    5  A    between atoms: C_24  and  S_25
REMARK    6  A    between atoms: S_25  and  C_28
REMARK                            x       y       z     vdW  Elec       q    Type
REMARK                         _______ _______ _______ _____ _____    ______ ____
ROOT
ATOM      1  N   UNL     1       2.894   6.604  17.837  0.00  0.00    +0.000 N 
ATOM      2  C   UNL     1       4.235   6.236  17.916  0.00  0.00    +0.000 C 
ATOM      3  O   UNL     1       4.996   6.576  18.813  0.00  0.00    +0.000 OA
ATOM      4  H   UNL     1       2.388   6.447  16.975  0.00  0.00    +0.000 HD
ENDROOT
BRANCH   1   9
ATOM      5  C   UNL     1       0.473   9.832  21.906  0.00  0.00    +0.000 C 
ATOM      6  C   UNL     1       1.071   9.064  20.764  0.00  0.00    +0.000 A 
ATOM      7  C   UNL     1       1.344   7.706  21.021  0.00  0.00    +0.000 A 
ATOM      8  C   UNL     1       1.927   6.891  20.063  0.00  0.00    +0.000 A 
ATOM      9  C   UNL     1       2.255   7.395  18.810  0.00  0.00    +0.000 A 
ATOM     10  C   UNL     1       1.948   8.727  18.508  0.00  0.00    +0.000 A 
ATOM     11  C   UNL     1       1.396   9.575  19.490  0.00  0.00    +0.000 A 
BRANCH  11  12
ATOM     12  S   UNL     1       1.008  11.244  18.949  0.00  0.00    +0.000 S 
ATOM     13  O   UNL     1       2.109  11.647  18.084  0.00  0.00    +0.000 OA
ATOM     14  O   UNL     1      -0.338  11.258  18.422  0.00  0.00    +0.000 OA
BRANCH  12  15
ATOM     15  C   UNL     1       1.062  12.307  20.391  0.00  0.00    +0.000 C 
ATOM     16  C   UNL     1       2.249  13.274  20.297  0.00  0.00    +0.000 C 
ATOM     17  C   UNL     1       1.813  14.585  20.925  0.00  0.00    +0.000 C 
ATOM     18  C   UNL     1       0.297  14.573  20.974  0.00  0.00    +0.000 C 
ATOM     19  C   UNL     1      -0.170  13.183  20.557  0.00  0.00    +0.000 C 
ENDBRANCH  12  15
ENDBRANCH  11  12
ENDBRANCH   1   9
BRANCH   2  20
ATOM     20  C   UNL     1       4.775   5.458  16.769  0.00  0.00    +0.000 A 
ATOM     21  C   UNL     1       5.499   6.169  15.794  0.00  0.00    +0.000 A 
ATOM     22  C   UNL     1       6.214   5.483  14.829  0.00  0.00    +0.000 A 
ATOM     23  C   UNL     1       6.197   4.106  14.890  0.00  0.00    +0.000 A 
ATOM     24  N   UNL     1       5.484   3.397  15.795  0.00  0.00    +0.000 NA
ATOM     25  C   UNL     1       4.746   4.046  16.736  0.00  0.00    +0.000 A 
BRANCH  25  26
ATOM     26  N   UNL     1       4.009   3.248  17.589  0.00  0.00    +0.000 N 
ATOM     27  C   UNL     1       4.436   2.928  18.953  0.00  0.00    +0.000 C 
ATOM     28  C   UNL     1       3.515   3.602  19.971  0.00  0.00    +0.000 C 
ATOM     29  C   UNL     1       2.068   3.252  19.718  0.00  0.00    +0.000 C 
ATOM     30  C   UNL     1       1.634   3.501  18.282  0.00  0.00    +0.000 C 
ATOM     31  C   UNL     1       2.619   2.894  17.270  0.00  0.00    +0.000 C 
ATOM     32  C   UNL     1       1.433   2.131  20.513  0.00  0.00    +0.000 C 
ATOM     33  C   UNL     1       1.084   3.559  20.825  0.00  0.00    +0.000 C 
ENDBRANCH  25  26
ENDBRANCH   2  20
TORSDOF 5
ENDMDL
MODEL 3
REMARK VINA RESULT:      -8.0      3.345      8.837
REMARK  Name = 
REMARK  6 active torsions:
REMARK  status: ('A' for Active; 'I' for Inactive)
REMARK    1  A    between atoms: C_1  and  C_2
REMARK    2  A    between atoms: C_5  and  N_6
REMARK    3  A    between atoms: C_7  and  C_9
REMARK    4  A    between atoms: C_14  and  N_15
REMARK    5  A    between atoms: C_24  and  S_25
REMARK    6  A    between atoms: S_25  and  C_28
REMARK                            x       y       z     vdW  Elec       q    Type
REMARK                         _______ _______ _______ _____ _____    ______ ____
ROOT
ATOM      1  N   UNL     1       1.729   8.322  17.984  0.00  0.00    +0.000 N 
ATOM      2  C   UNL     1       1.156   9.172  18.927  0.00  0.00    +0.000 C 
ATOM      3  O   UNL     1       1.306   9.067  20.138  0.00  0.00    +0.000 OA
ATOM      4  H   UNL     1       1.405   8.354  17.027  0.00  0.00    +0.000 HD
ENDROOT
BRANCH   1   9
ATOM      5  C   UNL     1       5.061   3.839  19.271  0.00  0.00    +0.000 C 
ATOM      6  C   UNL     1       4.283   5.068  18.898  0.00  0.00    +0.000 A 
ATOM      7  C   UNL     1       3.011   5.186  19.494  0.00  0.00    +0.000 A 
ATOM      8  C   UNL     1       2.176   6.255  19.211  0.00  0.00    +0.000 A 
ATOM      9  C   UNL     1       2.577   7.252  18.329  0.00  0.00    +0.000 A 
ATOM     10  C   UNL     1       3.855   7.188  17.762  0.00  0.00    +0.000 A 
ATOM     11  C   UNL     1       4.694   6.082  18.009  0.00  0.00    +0.000 A 
BRANCH  11  12
ATOM     12  S   UNL     1       6.324   6.157  17.256  0.00  0.00    +0.000 S 
ATOM     13  O   UNL     1       6.328   7.363  16.438  0.00  0.00    +0.000 OA
ATOM     14  O   UNL     1       7.319   6.012  18.294  0.00  0.00    +0.000 OA
BRANCH  12  15
ATOM     15  C   UNL     1       6.467   4.766  16.135  0.00  0.00    +0.000 C 
ATOM     16  C   UNL     1       5.114   4.473  15.474  0.00  0.00    +0.000 C 
ATOM     17  C   UNL     1       5.397   4.008  14.057  0.00  0.00    +0.000 C 
ATOM     18  C   UNL     1       6.810   4.445  13.719  0.00  0.00    +0.000 C 
ATOM     19  C   UNL     1       7.443   4.996  14.991  0.00  0.00    +0.000 C 
ENDBRANCH  12  15
ENDBRANCH  11  12
ENDBRANCH   1   9
BRANCH   2  20
ATOM     20  C   UNL     1       0.227  10.208  18.402  0.00  0.00    +0.000 A 
ATOM     21  C   UNL     1      -0.981   9.761  17.834  0.00  0.00    +0.000 A 
ATOM     22  C   UNL     1      -1.980  10.669  17.534  0.00  0.00    +0.000 A 
ATOM     23  C   UNL     1      -1.744  11.992  17.837  0.00  0.00    +0.000 A 
ATOM     24  N   UNL     1      -0.581  12.454  18.353  0.00  0.00    +0.000 NA
ATOM     25  C   UNL     1       0.431  11.588  18.628  0.00  0.00    +0.000 A 
BRANCH  25  26
ATOM     26  N   UNL     1       1.600  12.148  19.105  0.00  0.00    +0.000 N 
ATOM     27  C   UNL     1       2.699  12.569  18.232  0.00  0.00    +0.000 C 
ATOM     28  C   UNL     1       2.829  14.092  18.236  0.00  0.00    +0.000 C 
ATOM     29  C   UNL     1       2.966  14.627  19.641  0.00  0.00    +0.000 C 
ATOM     30  C   UNL     1       1.878  14.131  20.580  0.00  0.00    +0.000 C 
ATOM     31  C   UNL     1       1.698  12.607  20.497  0.00  0.00    +0.000 C 
ATOM     32  C   UNL     1       4.348  14.927  20.183  0.00  0.00    +0.000 C 
ATOM     33  C   UNL     1       3.439  16.057  19.789  0.00  0.00    +0.000 C 
ENDBRANCH  25  26
ENDBRANCH   2  20
TORSDOF 5
ENDMDL
MODEL 4
REMARK VINA RESULT:      -8.0      3.692      8.923
REMARK  Name = 
REMARK  6 active torsions:
REMARK  status: ('A' for Active; 'I' for Inactive)
REMARK    1  A    between atoms: C_1  and  C_2
REMARK    2  A    between atoms: C_5  and  N_6
REMARK    3  A    between atoms: C_7  and  C_9
REMARK    4  A    between atoms: C_14  and  N_15
REMARK    5  A    between atoms: C_24  and  S_25
REMARK    6  A    between atoms: S_25  and  C_28
REMARK                            x       y       z     vdW  Elec       q    Type
REMARK                         _______ _______ _______ _____ _____    ______ ____
ROOT
ATOM      1  N   UNL     1       1.699   8.589  17.985  0.00  0.00    +0.000 N 
ATOM      2  C   UNL     1       1.129   9.376  18.983  0.00  0.00    +0.000 C 
ATOM      3  O   UNL     1       1.277   9.187  20.184  0.00  0.00    +0.000 OA
ATOM      4  H   UNL     1       1.377   8.690  17.031  0.00  0.00    +0.000 HD
ENDROOT
BRANCH   1   9
ATOM      5  C   UNL     1       4.959   4.001  19.063  0.00  0.00    +0.000 C 
ATOM      6  C   UNL     1       4.180   5.232  18.699  0.00  0.00    +0.000 A 
ATOM      7  C   UNL     1       3.272   5.687  19.675  0.00  0.00    +0.000 A 
ATOM      8  C   UNL     1       2.467   6.794  19.455  0.00  0.00    +0.000 A 
ATOM      9  C   UNL     1       2.540   7.494  18.255  0.00  0.00    +0.000 A 
ATOM     10  C   UNL     1       3.470   7.096  17.288  0.00  0.00    +0.000 A 
ATOM     11  C   UNL     1       4.261   5.945  17.485  0.00  0.00    +0.000 A 
BRANCH  11  12
ATOM     12  S   UNL     1       5.445   5.580  16.183  0.00  0.00    +0.000 S 
ATOM     13  O   UNL     1       5.355   4.143  15.958  0.00  0.00    +0.000 OA
ATOM     14  O   UNL     1       5.206   6.478  15.077  0.00  0.00    +0.000 OA
BRANCH  12  15
ATOM     15  C   UNL     1       7.082   5.905  16.834  0.00  0.00    +0.000 C 
ATOM     16  C   UNL     1       7.140   7.304  17.460  0.00  0.00    +0.000 C 
ATOM     17  C   UNL     1       8.069   7.225  18.658  0.00  0.00    +0.000 C 
ATOM     18  C   UNL     1       8.198   5.758  19.024  0.00  0.00    +0.000 C 
ATOM     19  C   UNL     1       7.508   4.945  17.935  0.00  0.00    +0.000 C 
ENDBRANCH  12  15
ENDBRANCH  11  12
ENDBRANCH   1   9
BRANCH   2  20
ATOM     20  C   UNL     1       0.207  10.451  18.531  0.00  0.00    +0.000 A 
ATOM     21  C   UNL     1      -1.051  10.055  18.039  0.00  0.00    +0.000 A 
ATOM     22  C   UNL     1      -2.034  11.002  17.815  0.00  0.00    +0.000 A 
ATOM     23  C   UNL     1      -1.729  12.312  18.113  0.00  0.00    +0.000 A 
ATOM     24  N   UNL     1      -0.518  12.726  18.554  0.00  0.00    +0.000 NA
ATOM     25  C   UNL     1       0.477  11.820  18.755  0.00  0.00    +0.000 A 
BRANCH  25  26
ATOM     26  N   UNL     1       1.695  12.332  19.158  0.00  0.00    +0.000 N 
ATOM     27  C   UNL     1       2.759  12.696  18.219  0.00  0.00    +0.000 C 
ATOM     28  C   UNL     1       2.955  14.212  18.199  0.00  0.00    +0.000 C 
ATOM     29  C   UNL     1       3.196  14.752  19.589  0.00  0.00    +0.000 C 
ATOM     30  C   UNL     1       2.143  14.312  20.594  0.00  0.00    +0.000 C 
ATOM     31  C   UNL     1       1.892  12.797  20.537  0.00  0.00    +0.000 C 
ATOM     32  C   UNL     1       4.619  14.995  20.048  0.00  0.00    +0.000 C 
ATOM     33  C   UNL     1       3.739  16.161  19.694  0.00  0.00    +0.000 C 
ENDBRANCH  25  26
ENDBRANCH   2  20
TORSDOF 5
ENDMDL
MODEL 5
REMARK VINA RESULT:      -8.0      1.494      2.045
REMARK  Name = 
REMARK  6 active torsions:
REMARK  status: ('A' for Active; 'I' for Inactive)
REMARK    1  A    between atoms: C_1  and  C_2
REMARK    2  A    between atoms: C_5  and  N_6
REMARK    3  A    between atoms: C_7  and  C_9
REMARK    4  A    between atoms: C_14  and  N_15
REMARK    5  A    between atoms: C_24  and  S_25
REMARK    6  A    between atoms: S_25  and  C_28
REMARK                            x       y       z     vdW  Elec       q    Type
REMARK                         _______ _______ _______ _____ _____    ______ ____
ROOT
ATOM      1  N   UNL     1       2.733   6.717  17.977  0.00  0.00    +0.000 N 
ATOM      2  C   UNL     1       4.067   6.316  18.031  0.00  0.00    +0.000 C 
ATOM      3  O   UNL     1       4.836   6.587  18.944  0.00  0.00    +0.000 OA
ATOM      4  H   UNL     1       2.223   6.621  17.110  0.00  0.00    +0.000 HD
ENDROOT
BRANCH   1   9
ATOM      5  C   UNL     1       0.399   9.799  22.208  0.00  0.00    +0.000 C 
ATOM      6  C   UNL     1       0.952   9.056  21.026  0.00  0.00    +0.000 A 
ATOM      7  C   UNL     1       1.486   7.783  21.303  0.00  0.00    +0.000 A 
ATOM      8  C   UNL     1       2.057   7.005  20.309  0.00  0.00    +0.000 A 
ATOM      9  C   UNL     1       2.114   7.463  18.997  0.00  0.00    +0.000 A 
ATOM     10  C   UNL     1       1.544   8.702  18.682  0.00  0.00    +0.000 A 
ATOM     11  C   UNL     1       1.001   9.519  19.695  0.00  0.00    +0.000 A 
BRANCH  11  12
ATOM     12  S   UNL     1       0.261  11.060  19.140  0.00  0.00    +0.000 S 
ATOM     13  O   UNL     1       0.128  10.938  17.694  0.00  0.00    +0.000 OA
ATOM     14  O   UNL     1      -0.920  11.317  19.932  0.00  0.00    +0.000 OA
BRANCH  12  15
ATOM     15  C   UNL     1       1.445  12.370  19.446  0.00  0.00    +0.000 C 
ATOM     16  C   UNL     1       2.419  12.494  18.268  0.00  0.00    +0.000 C 
ATOM     17  C   UNL     1       2.752  13.967  18.111  0.00  0.00    +0.000 C 
ATOM     18  C   UNL     1       1.678  14.746  18.846  0.00  0.00    +0.000 C 
ATOM     19  C   UNL     1       0.813  13.745  19.603  0.00  0.00    +0.000 C 
ENDBRANCH  12  15
ENDBRANCH  11  12
ENDBRANCH   1   9
BRANCH   2  20
ATOM     20  C   UNL     1       4.587   5.596  16.839  0.00  0.00    +0.000 A 
ATOM     21  C   UNL     1       5.280   6.357  15.879  0.00  0.00    +0.000 A 
ATOM     22  C   UNL     1       5.979   5.722  14.868  0.00  0.00    +0.000 A 
ATOM     23  C   UNL     1       5.980   4.345  14.869  0.00  0.00    +0.000 A 
ATOM     24  N   UNL     1       5.296   3.588  15.759  0.00  0.00    +0.000 NA
ATOM     25  C   UNL     1       4.574   4.186  16.745  0.00  0.00    +0.000 A 
BRANCH  25  26
ATOM     26  N   UNL     1       3.867   3.343  17.579  0.00  0.00    +0.000 N 
ATOM     27  C   UNL     1       4.357   2.922  18.894  0.00  0.00    +0.000 C 
ATOM     28  C   UNL     1       3.504   3.539  20.003  0.00  0.00    +0.000 C 
ATOM     29  C   UNL     1       2.040   3.231  19.803  0.00  0.00    +0.000 C 
ATOM     30  C   UNL     1       1.536   3.585  18.413  0.00  0.00    +0.000 C 
ATOM     31  C   UNL     1       2.455   3.034  17.311  0.00  0.00    +0.000 C 
ATOM     32  C   UNL     1       1.424   2.067  20.553  0.00  0.00    +0.000 C 
ATOM     33  C   UNL     1       1.120   3.475  20.980  0.00  0.00    +0.000 C 
ENDBRANCH  25  26
ENDBRANCH   2  20
TORSDOF 5
ENDMDL
MODEL 6
REMARK VINA RESULT:      -7.9      3.643      9.155
REMARK  Name = 
REMARK  6 active torsions:
REMARK  status: ('A' for Active; 'I' for Inactive)
REMARK    1  A    between atoms: C_1  and  C_2
REMARK    2  A    between atoms: C_5  and  N_6
REMARK    3  A    between atoms: C_7  and  C_9
REMARK    4  A    between atoms: C_14  and  N_15
REMARK    5  A    between atoms: C_24  and  S_25
REMARK    6  A    between atoms: S_25  and  C_28
REMARK                            x       y       z     vdW  Elec       q    Type
REMARK                         _______ _______ _______ _____ _____    ______ ____
ROOT
ATOM      1  N   UNL     1       0.207  10.346  19.992  0.00  0.00    +0.000 N 
ATOM      2  C   UNL     1       0.479  10.848  21.263  0.00  0.00    +0.000 C 
ATOM      3  O   UNL     1       1.487  10.591  21.909  0.00  0.00    +0.000 OA
ATOM      4  H   UNL     1      -0.723  10.447  19.609  0.00  0.00    +0.000 HD
ENDROOT
BRANCH   1   9
ATOM      5  C   UNL     1       3.958   7.013  17.222  0.00  0.00    +0.000 C 
ATOM      6  C   UNL     1       2.936   7.792  17.999  0.00  0.00    +0.000 A 
ATOM      7  C   UNL     1       2.624   9.066  17.487  0.00  0.00    +0.000 A 
ATOM      8  C   UNL     1       1.721   9.902  18.125  0.00  0.00    +0.000 A 
ATOM      9  C   UNL     1       1.089   9.498  19.296  0.00  0.00    +0.000 A 
ATOM     10  C   UNL     1       1.340   8.217  19.800  0.00  0.00    +0.000 A 
ATOM     11  C   UNL     1       2.290   7.377  19.183  0.00  0.00    +0.000 A 
BRANCH  11  12
ATOM     12  S   UNL     1       2.474   5.743  19.908  0.00  0.00    +0.000 S 
ATOM     13  O   UNL     1       3.907   5.473  19.917  0.00  0.00    +0.000 OA
ATOM     14  O   UNL     1       1.747   5.707  21.156  0.00  0.00    +0.000 OA
BRANCH  12  15
ATOM     15  C   UNL     1       1.729   4.564  18.783  0.00  0.00    +0.000 C 
ATOM     16  C   UNL     1       2.815   3.821  17.994  0.00  0.00    +0.000 C 
ATOM     17  C   UNL     1       2.325   2.399  17.785  0.00  0.00    +0.000 C 
ATOM     18  C   UNL     1       1.219   2.156  18.794  0.00  0.00    +0.000 C 
ATOM     19  C   UNL     1       0.911   3.485  19.475  0.00  0.00    +0.000 C 
ENDBRANCH  12  15
ENDBRANCH  11  12
ENDBRANCH   1   9
BRANCH   2  20
ATOM     20  C   UNL     1      -0.589  11.672  21.889  0.00  0.00    +0.000 A 
ATOM     21  C   UNL     1      -1.498  11.010  22.736  0.00  0.00    +0.000 A 
ATOM     22  C   UNL     1      -2.369  11.743  23.521  0.00  0.00    +0.000 A 
ATOM     23  C   UNL     1      -2.282  13.116  23.448  0.00  0.00    +0.000 A 
ATOM     24  N   UNL     1      -1.441  13.779  22.620  0.00  0.00    +0.000 NA
ATOM     25  C   UNL     1      -0.595  13.082  21.813  0.00  0.00    +0.000 A 
BRANCH  25  26
ATOM     26  N   UNL     1       0.193  13.834  20.964  0.00  0.00    +0.000 N 
ATOM     27  C   UNL     1       1.570  14.219  21.282  0.00  0.00    +0.000 C 
ATOM     28  C   UNL     1       2.552  13.492  20.363  0.00  0.00    +0.000 C 
ATOM     29  C   UNL     1       2.208  13.712  18.909  0.00  0.00    +0.000 C 
ATOM     30  C   UNL     1       0.757  13.397  18.582  0.00  0.00    +0.000 C 
ATOM     31  C   UNL     1      -0.213  14.062  19.570  0.00  0.00    +0.000 C 
ATOM     32  C   UNL     1       2.936  14.793  18.137  0.00  0.00    +0.000 C 
ATOM     33  C   UNL     1       3.266  13.348  17.890  0.00  0.00    +0.000 C 
ENDBRANCH  25  26
ENDBRANCH   2  20
TORSDOF 5
ENDMDL
MODEL 7
REMARK VINA RESULT:      -7.9      0.904      1.054
REMARK  Name = 
REMARK  6 active torsions:
REMARK  status: ('A' for Active; 'I' for Inactive)
REMARK    1  A    between atoms: C_1  and  C_2
REMARK    2  A    between atoms: C_5  and  N_6
REMARK    3  A    between atoms: C_7  and  C_9
REMARK    4  A    between atoms: C_14  and  N_15
REMARK    5  A    between atoms: C_24  and  S_25
REMARK    6  A    between atoms: S_25  and  C_28
REMARK                            x       y       z     vdW  Elec       q    Type
REMARK                         _______ _______ _______ _____ _____    ______ ____
ROOT
ATOM      1  N   UNL     1       2.711   6.835  18.161  0.00  0.00    +0.000 N 
ATOM      2  C   UNL     1       3.985   6.277  18.240  0.00  0.00    +0.000 C 
ATOM      3  O   UNL     1       4.691   6.298  19.241  0.00  0.00    +0.000 OA
ATOM      4  H   UNL     1       2.275   6.947  17.256  0.00  0.00    +0.000 HD
ENDROOT
BRANCH   1   9
ATOM      5  C   UNL     1       0.325   9.407  22.693  0.00  0.00    +0.000 C 
ATOM      6  C   UNL     1       0.909   8.818  21.442  0.00  0.00    +0.000 A 
ATOM      7  C   UNL     1       1.239   7.450  21.509  0.00  0.00    +0.000 A 
ATOM      8  C   UNL     1       1.815   6.790  20.435  0.00  0.00    +0.000 A 
ATOM      9  C   UNL     1       2.080   7.466  19.249  0.00  0.00    +0.000 A 
ATOM     10  C   UNL     1       1.715   8.813  19.135  0.00  0.00    +0.000 A 
ATOM     11  C   UNL     1       1.169   9.503  20.236  0.00  0.00    +0.000 A 
BRANCH  11  12
ATOM     12  S   UNL     1       0.702  11.212  19.932  0.00  0.00    +0.000 S 
ATOM     13  O   UNL     1       1.389  11.997  20.951  0.00  0.00    +0.000 OA
ATOM     14  O   UNL     1       0.937  11.514  18.539  0.00  0.00    +0.000 OA
BRANCH  12  15
ATOM     15  C   UNL     1      -1.054  11.359  20.256  0.00  0.00    +0.000 C 
ATOM     16  C   UNL     1      -1.377  12.747  20.823  0.00  0.00    +0.000 C 
ATOM     17  C   UNL     1      -2.739  13.148  20.284  0.00  0.00    +0.000 C 
ATOM     18  C   UNL     1      -3.020  12.265  19.083  0.00  0.00    +0.000 C 
ATOM     19  C   UNL     1      -1.923  11.208  19.017  0.00  0.00    +0.000 C 
ENDBRANCH  12  15
ENDBRANCH  11  12
ENDBRANCH   1   9
BRANCH   2  20
ATOM     20  C   UNL     1       4.537   5.711  16.981  0.00  0.00    +0.000 A 
ATOM     21  C   UNL     1       5.282   6.577  16.158  0.00  0.00    +0.000 A 
ATOM     22  C   UNL     1       6.006   6.067  15.097  0.00  0.00    +0.000 A 
ATOM     23  C   UNL     1       5.978   4.702  14.910  0.00  0.00    +0.000 A 
ATOM     24  N   UNL     1       5.245   3.850  15.663  0.00  0.00    +0.000 NA
ATOM     25  C   UNL     1       4.498   4.328  16.695  0.00  0.00    +0.000 A 
BRANCH  25  26
ATOM     26  N   UNL     1       3.742   3.398  17.381  0.00  0.00    +0.000 N 
ATOM     27  C   UNL     1       4.218   2.708  18.582  0.00  0.00    +0.000 C 
ATOM     28  C   UNL     1       3.432   3.169  19.809  0.00  0.00    +0.000 C 
ATOM     29  C   UNL     1       1.945   3.009  19.599  0.00  0.00    +0.000 C 
ATOM     30  C   UNL     1       1.449   3.648  18.312  0.00  0.00    +0.000 C 
ATOM     31  C   UNL     1       2.307   3.246  17.102  0.00  0.00    +0.000 C 
ATOM     32  C   UNL     1       1.254   1.774  20.140  0.00  0.00    +0.000 C 
ATOM     33  C   UNL     1       1.064   3.097  20.826  0.00  0.00    +0.000 C 
ENDBRANCH  25  26
ENDBRANCH   2  20
TORSDOF 5
ENDMDL
MODEL 8
REMARK VINA RESULT:      -7.8      0.790      1.100
REMARK  Name = 
REMARK  6 active torsions:
REMARK  status: ('A' for Active; 'I' for Inactive)
REMARK    1  A    between atoms: C_1  and  C_2
REMARK    2  A    between atoms: C_5  and  N_6
REMARK    3  A    between atoms: C_7  and  C_9
REMARK    4  A    between atoms: C_14  and  N_15
REMARK    5  A    between atoms: C_24  and  S_25
REMARK    6  A    between atoms: S_25  and  C_28
REMARK                            x       y       z     vdW  Elec       q    Type
REMARK                         _______ _______ _______ _____ _____    ______ ____
ROOT
ATOM      1  N   UNL     1       2.616   7.118  17.948  0.00  0.00    +0.000 N 
ATOM      2  C   UNL     1       3.808   6.425  18.147  0.00  0.00    +0.000 C 
ATOM      3  O   UNL     1       4.420   6.387  19.207  0.00  0.00    +0.000 OA
ATOM      4  H   UNL     1       2.278   7.261  17.005  0.00  0.00    +0.000 HD
ENDROOT
BRANCH   1   9
ATOM      5  C   UNL     1       0.153  10.106  22.173  0.00  0.00    +0.000 C 
ATOM      6  C   UNL     1       0.731   9.379  20.993  0.00  0.00    +0.000 A 
ATOM      7  C   UNL     1       1.393   8.171  21.286  0.00  0.00    +0.000 A 
ATOM      8  C   UNL     1       1.999   7.418  20.294  0.00  0.00    +0.000 A 
ATOM      9  C   UNL     1       1.965   7.836  18.968  0.00  0.00    +0.000 A 
ATOM     10  C   UNL     1       1.271   9.006  18.639  0.00  0.00    +0.000 A 
ATOM     11  C   UNL     1       0.689   9.801  19.647  0.00  0.00    +0.000 A 
BRANCH  11  12
ATOM     12  S   UNL     1      -0.213  11.247  19.077  0.00  0.00    +0.000 S 
ATOM     13  O   UNL     1      -1.109  11.611  20.168  0.00  0.00    +0.000 OA
ATOM     14  O   UNL     1       0.737  12.223  18.595  0.00  0.00    +0.000 OA
BRANCH  12  15
ATOM     15  C   UNL     1      -1.245  10.735  17.704  0.00  0.00    +0.000 C 
ATOM     16  C   UNL     1      -2.193   9.611  18.140  0.00  0.00    +0.000 C 
ATOM     17  C   UNL     1      -3.499   9.806  17.391  0.00  0.00    +0.000 C 
ATOM     18  C   UNL     1      -3.512  11.237  16.886  0.00  0.00    +0.000 C 
ATOM     19  C   UNL     1      -2.139  11.839  17.161  0.00  0.00    +0.000 C 
ENDBRANCH  12  15
ENDBRANCH  11  12
ENDBRANCH   1   9
BRANCH   2  20
ATOM     20  C   UNL     1       4.403   5.777  16.947  0.00  0.00    +0.000 A 
ATOM     21  C   UNL     1       5.119   6.603  16.060  0.00  0.00    +0.000 A 
ATOM     22  C   UNL     1       5.881   6.036  15.054  0.00  0.00    +0.000 A 
ATOM     23  C   UNL     1       5.918   4.660  14.988  0.00  0.00    +0.000 A 
ATOM     24  N   UNL     1       5.214   3.844  15.806  0.00  0.00    +0.000 NA
ATOM     25  C   UNL     1       4.431   4.374  16.784  0.00  0.00    +0.000 A 
BRANCH  25  26
ATOM     26  N   UNL     1       3.709   3.473  17.541  0.00  0.00    +0.000 N 
ATOM     27  C   UNL     1       4.242   2.830  18.744  0.00  0.00    +0.000 C 
ATOM     28  C   UNL     1       3.514   3.341  19.988  0.00  0.00    +0.000 C 
ATOM     29  C   UNL     1       2.019   3.175  19.855  0.00  0.00    +0.000 C 
ATOM     30  C   UNL     1       1.463   3.764  18.569  0.00  0.00    +0.000 C 
ATOM     31  C   UNL     1       2.262   3.313  17.336  0.00  0.00    +0.000 C 
ATOM     32  C   UNL     1       1.355   1.964  20.477  0.00  0.00    +0.000 C 
ATOM     33  C   UNL     1       1.198   3.314  21.119  0.00  0.00    +0.000 C 
ENDBRANCH  25  26
ENDBRANCH   2  20
TORSDOF 5
ENDMDL
MODEL 9
REMARK VINA RESULT:      -7.8      3.559      8.792
REMARK  Name = 
REMARK  6 active torsions:
REMARK  status: ('A' for Active; 'I' for Inactive)
REMARK    1  A    between atoms: C_1  and  C_2
REMARK    2  A    between atoms: C_5  and  N_6
REMARK    3  A    between atoms: C_7  and  C_9
REMARK    4  A    between atoms: C_14  and  N_15
REMARK    5  A    between atoms: C_24  and  S_25
REMARK    6  A    between atoms: S_25  and  C_28
REMARK                            x       y       z     vdW  Elec       q    Type
REMARK                         _______ _______ _______ _____ _____    ______ ____
ROOT
ATOM      1  N   UNL     1       1.694   8.796  17.587  0.00  0.00    +0.000 N 
ATOM      2  C   UNL     1       1.186   9.357  18.757  0.00  0.00    +0.000 C 
ATOM      3  O   UNL     1       1.484   8.993  19.887  0.00  0.00    +0.000 OA
ATOM      4  H   UNL     1       1.258   9.017  16.702  0.00  0.00    +0.000 HD
ENDROOT
BRANCH   1   9
ATOM      5  C   UNL     1       5.603   4.608  17.764  0.00  0.00    +0.000 C 
ATOM      6  C   UNL     1       4.502   5.626  17.688  0.00  0.00    +0.000 A 
ATOM      7  C   UNL     1       4.919   6.964  17.549  0.00  0.00    +0.000 A 
ATOM      8  C   UNL     1       4.006   8.006  17.500  0.00  0.00    +0.000 A 
ATOM      9  C   UNL     1       2.641   7.755  17.582  0.00  0.00    +0.000 A 
ATOM     10  C   UNL     1       2.195   6.431  17.669  0.00  0.00    +0.000 A 
ATOM     11  C   UNL     1       3.117   5.368  17.764  0.00  0.00    +0.000 A 
BRANCH  11  12
ATOM     12  S   UNL     1       2.404   3.720  17.820  0.00  0.00    +0.000 S 
ATOM     13  O   UNL     1       0.967   3.904  17.664  0.00  0.00    +0.000 OA
ATOM     14  O   UNL     1       3.108   2.880  16.878  0.00  0.00    +0.000 OA
BRANCH  12  15
ATOM     15  C   UNL     1       2.671   3.070  19.469  0.00  0.00    +0.000 C 
ATOM     16  C   UNL     1       2.883   4.217  20.465  0.00  0.00    +0.000 C 
ATOM     17  C   UNL     1       2.254   3.792  21.780  0.00  0.00    +0.000 C 
ATOM     18  C   UNL     1       1.301   2.654  21.471  0.00  0.00    +0.000 C 
ATOM     19  C   UNL     1       1.499   2.265  20.010  0.00  0.00    +0.000 C 
ENDBRANCH  12  15
ENDBRANCH  11  12
ENDBRANCH   1   9
BRANCH   2  20
ATOM     20  C   UNL     1       0.139  10.400  18.588  0.00  0.00    +0.000 A 
ATOM     21  C   UNL     1      -1.151   9.964  18.230  0.00  0.00    +0.000 A 
ATOM     22  C   UNL     1      -2.214  10.848  18.277  0.00  0.00    +0.000 A 
ATOM     23  C   UNL     1      -1.952  12.131  18.702  0.00  0.00    +0.000 A 
ATOM     24  N   UNL     1      -0.717  12.586  19.020  0.00  0.00    +0.000 NA
ATOM     25  C   UNL     1       0.353  11.748  18.953  0.00  0.00    +0.000 A 
BRANCH  25  26
ATOM     26  N   UNL     1       1.582  12.305  19.245  0.00  0.00    +0.000 N 
ATOM     27  C   UNL     1       2.566  12.655  18.218  0.00  0.00    +0.000 C 
ATOM     28  C   UNL     1       2.719  14.174  18.123  0.00  0.00    +0.000 C 
ATOM     29  C   UNL     1       3.045  14.776  19.469  0.00  0.00    +0.000 C 
ATOM     30  C   UNL     1       2.080  14.353  20.565  0.00  0.00    +0.000 C 
ATOM     31  C   UNL     1       1.866  12.831  20.587  0.00  0.00    +0.000 C 
ATOM     32  C   UNL     1       4.491  15.071  19.812  0.00  0.00    +0.000 C 
ATOM     33  C   UNL     1       3.557  16.200  19.479  0.00  0.00    +0.000 C 
ENDBRANCH  25  26
ENDBRANCH   2  20
TORSDOF 5
ENDMDL
