MODEL 1
REMARK VINA RESULT:      -7.1      0.000      0.000
REMARK  Name = 
REMARK  6 active torsions:
REMARK  status: ('A' for Active; 'I' for Inactive)
REMARK    1  A    between atoms: C_1  and  C_2
REMARK    2  A    between atoms: C_2  and  N_3
REMARK    3  A    between atoms: C_2  and  C_16
REMARK    4  A    between atoms: N_6  and  C_7
REMARK    5  A    between atoms: C_7  and  C_8
REMARK    6  A    between atoms: C_8  and  O_9
REMARK                            x       y       z     vdW  Elec       q    Type
REMARK                         _______ _______ _______ _____ _____    ______ ____
ROOT
ATOM      1  N   UNL     1       1.519   8.592  17.969  0.00  0.00    +0.000 N 
ATOM      2  C   UNL     1       2.060   7.559  18.690  0.00  0.00    +0.000 C 
ATOM      3  O   UNL     1       2.452   7.672  19.844  0.00  0.00    +0.000 OA
ATOM      4  N   UNL     1       2.131   6.401  17.956  0.00  0.00    +0.000 N 
ATOM      5  H   UNL     1       0.841   8.328  17.267  0.00  0.00    +0.000 HD
ATOM      6  H   UNL     1       2.161   6.554  16.958  0.00  0.00    +0.000 HD
ENDROOT
BRANCH   4   7
ATOM      7  C   UNL     1       2.816   5.167  18.448  0.00  0.00    +0.000 C 
ATOM      8  C   UNL     1       2.432   4.968  19.943  0.00  0.00    +0.000 C 
ATOM      9  C   UNL     1       1.047   4.366  20.201  0.00  0.00    +0.000 C 
ATOM     10  C   UNL     1       1.059   2.838  20.257  0.00  0.00    +0.000 C 
ATOM     11  C   UNL     1       1.289   2.140  18.922  0.00  0.00    +0.000 C 
ATOM     12  C   UNL     1       2.547   2.575  18.174  0.00  0.00    +0.000 C 
ATOM     13  C   UNL     1       2.414   3.966  17.552  0.00  0.00    +0.000 C 
BRANCH   7  14
ATOM     14  C   UNL     1       4.366   5.363  18.386  0.00  0.00    +0.000 C 
BRANCH  14  15
ATOM     15  O   UNL     1       4.916   5.559  19.691  0.00  0.00    +0.000 OA
ATOM     16  H   UNL     1       4.146   5.671  20.279  0.00  0.00    +0.000 HD
ENDBRANCH  14  15
ENDBRANCH   7  14
ENDBRANCH   4   7
BRANCH   1  18
ATOM     17  C   UNL     1       2.283  10.936  18.021  0.00  0.00    +0.000 C 
ATOM     18  C   UNL     1       1.322   9.894  18.594  0.00  0.00    +0.000 C 
BRANCH  18  19
ATOM     19  C   UNL     1      -0.117  10.358  18.485  0.00  0.00    +0.000 A 
ATOM     20  C   UNL     1      -0.972   9.774  17.534  0.00  0.00    +0.000 A 
ATOM     21  C   UNL     1      -2.315  10.154  17.464  0.00  0.00    +0.000 A 
ATOM     22  C   UNL     1      -2.803  11.119  18.338  0.00  0.00    +0.000 A 
ATOM     23  F   UNL     1      -4.093  11.472  18.274  0.00  0.00    +0.000 F 
ATOM     24  C   UNL     1      -1.975  11.723  19.273  0.00  0.00    +0.000 A 
ATOM     25  C   UNL     1      -0.641  11.340  19.336  0.00  0.00    +0.000 A 
ATOM     26  F   UNL     1       0.157  11.936  20.237  0.00  0.00    +0.000 F 
ENDBRANCH  18  19
ENDBRANCH   1  18
TORSDOF 5
ENDMDL
MODEL 2
REMARK VINA RESULT:      -7.0      2.036      2.726
REMARK  Name = 
REMARK  6 active torsions:
REMARK  status: ('A' for Active; 'I' for Inactive)
REMARK    1  A    between atoms: C_1  and  C_2
REMARK    2  A    between atoms: C_2  and  N_3
REMARK    3  A    between atoms: C_2  and  C_16
REMARK    4  A    between atoms: N_6  and  C_7
REMARK    5  A    between atoms: C_7  and  C_8
REMARK    6  A    between atoms: C_8  and  O_9
REMARK                            x       y       z     vdW  Elec       q    Type
REMARK                         _______ _______ _______ _____ _____    ______ ____
ROOT
ATOM      1  N   UNL     1       1.226   8.810  20.140  0.00  0.00    +0.000 N 
ATOM      2  C   UNL     1       1.959   7.867  19.467  0.00  0.00    +0.000 C 
ATOM      3  O   UNL     1       2.374   8.022  18.326  0.00  0.00    +0.000 OA
ATOM      4  N   UNL     1       2.145   6.731  20.214  0.00  0.00    +0.000 N 
ATOM      5  H   UNL     1       1.327   8.808  21.146  0.00  0.00    +0.000 HD
ATOM      6  H   UNL     1       1.438   6.589  20.921  0.00  0.00    +0.000 HD
ENDROOT
BRANCH   4   7
ATOM      7  C   UNL     1       2.777   5.492  19.664  0.00  0.00    +0.000 C 
ATOM      8  C   UNL     1       2.655   4.374  20.739  0.00  0.00    +0.000 C 
ATOM      9  C   UNL     1       1.286   3.693  20.842  0.00  0.00    +0.000 C 
ATOM     10  C   UNL     1       1.149   2.481  19.921  0.00  0.00    +0.000 C 
ATOM     11  C   UNL     1       1.055   2.801  18.434  0.00  0.00    +0.000 C 
ATOM     12  C   UNL     1       2.193   3.659  17.885  0.00  0.00    +0.000 C 
ATOM     13  C   UNL     1       2.093   5.122  18.321  0.00  0.00    +0.000 C 
BRANCH   7  14
ATOM     14  C   UNL     1       4.300   5.741  19.418  0.00  0.00    +0.000 C 
BRANCH  14  15
ATOM     15  O   UNL     1       4.550   6.122  18.063  0.00  0.00    +0.000 OA
ATOM     16  H   UNL     1       3.670   6.273  17.673  0.00  0.00    +0.000 HD
ENDBRANCH  14  15
ENDBRANCH   7  14
ENDBRANCH   4   7
BRANCH   1  18
ATOM     17  C   UNL     1       0.032   9.965  18.318  0.00  0.00    +0.000 C 
ATOM     18  C   UNL     1       0.960  10.105  19.525  0.00  0.00    +0.000 C 
BRANCH  18  19
ATOM     19  C   UNL     1       0.410  11.100  20.527  0.00  0.00    +0.000 A 
ATOM     20  C   UNL     1      -0.480  10.671  21.527  0.00  0.00    +0.000 A 
ATOM     21  C   UNL     1      -0.948  11.569  22.489  0.00  0.00    +0.000 A 
ATOM     22  C   UNL     1      -0.533  12.894  22.452  0.00  0.00    +0.000 A 
ATOM     23  F   UNL     1      -0.975  13.749  23.383  0.00  0.00    +0.000 F 
ATOM     24  C   UNL     1       0.331  13.347  21.465  0.00  0.00    +0.000 A 
ATOM     25  C   UNL     1       0.792  12.448  20.511  0.00  0.00    +0.000 A 
ATOM     26  F   UNL     1       1.619  12.896  19.553  0.00  0.00    +0.000 F 
ENDBRANCH  18  19
ENDBRANCH   1  18
TORSDOF 5
ENDMDL
MODEL 3
REMARK VINA RESULT:      -7.0      1.839      3.092
REMARK  Name = 
REMARK  6 active torsions:
REMARK  status: ('A' for Active; 'I' for Inactive)
REMARK    1  A    between atoms: C_1  and  C_2
REMARK    2  A    between atoms: C_2  and  N_3
REMARK    3  A    between atoms: C_2  and  C_16
REMARK    4  A    between atoms: N_6  and  C_7
REMARK    5  A    between atoms: C_7  and  C_8
REMARK    6  A    between atoms: C_8  and  O_9
REMARK                            x       y       z     vdW  Elec       q    Type
REMARK                         _______ _______ _______ _____ _____    ______ ____
ROOT
ATOM      1  N   UNL     1       1.432   9.052  19.295  0.00  0.00    +0.000 N 
ATOM      2  C   UNL     1       2.063   7.957  18.764  0.00  0.00    +0.000 C 
ATOM      3  O   UNL     1       2.297   7.825  17.570  0.00  0.00    +0.000 OA
ATOM      4  N   UNL     1       2.373   7.026  19.724  0.00  0.00    +0.000 N 
ATOM      5  H   UNL     1       1.685   9.285  20.245  0.00  0.00    +0.000 HD
ATOM      6  H   UNL     1       1.784   7.074  20.542  0.00  0.00    +0.000 HD
ENDROOT
BRANCH   4   7
ATOM      7  C   UNL     1       2.927   5.675  19.397  0.00  0.00    +0.000 C 
ATOM      8  C   UNL     1       2.668   4.743  20.615  0.00  0.00    +0.000 C 
ATOM      9  C   UNL     1       1.246   4.188  20.740  0.00  0.00    +0.000 C 
ATOM     10  C   UNL     1       1.052   2.864  20.000  0.00  0.00    +0.000 C 
ATOM     11  C   UNL     1       1.049   2.964  18.479  0.00  0.00    +0.000 C 
ATOM     12  C   UNL     1       2.276   3.645  17.875  0.00  0.00    +0.000 C 
ATOM     13  C   UNL     1       2.275   5.159  18.086  0.00  0.00    +0.000 C 
BRANCH   7  14
ATOM     14  C   UNL     1       4.475   5.773  19.202  0.00  0.00    +0.000 C 
BRANCH  14  15
ATOM     15  O   UNL     1       4.805   6.130  17.858  0.00  0.00    +0.000 OA
ATOM     16  H   UNL     1       5.009   7.083  17.889  0.00  0.00    +0.000 HD
ENDBRANCH  14  15
ENDBRANCH   7  14
ENDBRANCH   4   7
BRANCH   1  18
ATOM     17  C   UNL     1      -0.451  10.219  18.212  0.00  0.00    +0.000 C 
ATOM     18  C   UNL     1       1.061  10.170  18.437  0.00  0.00    +0.000 C 
BRANCH  18  19
ATOM     19  C   UNL     1       1.578  11.488  18.976  0.00  0.00    +0.000 A 
ATOM     20  C   UNL     1       2.406  12.297  18.178  0.00  0.00    +0.000 A 
ATOM     21  C   UNL     1       2.841  13.540  18.645  0.00  0.00    +0.000 A 
ATOM     22  C   UNL     1       2.455  13.974  19.907  0.00  0.00    +0.000 A 
ATOM     23  F   UNL     1       2.865  15.171  20.345  0.00  0.00    +0.000 F 
ATOM     24  C   UNL     1       1.653  13.187  20.721  0.00  0.00    +0.000 A 
ATOM     25  C   UNL     1       1.225  11.952  20.250  0.00  0.00    +0.000 A 
ATOM     26  F   UNL     1       0.457  11.191  21.048  0.00  0.00    +0.000 F 
ENDBRANCH  18  19
ENDBRANCH   1  18
TORSDOF 5
ENDMDL
MODEL 4
REMARK VINA RESULT:      -7.0      2.120      2.921
REMARK  Name = 
REMARK  6 active torsions:
REMARK  status: ('A' for Active; 'I' for Inactive)
REMARK    1  A    between atoms: C_1  and  C_2
REMARK    2  A    between atoms: C_2  and  N_3
REMARK    3  A    between atoms: C_2  and  C_16
REMARK    4  A    between atoms: N_6  and  C_7
REMARK    5  A    between atoms: C_7  and  C_8
REMARK    6  A    between atoms: C_8  and  O_9
REMARK                            x       y       z     vdW  Elec       q    Type
REMARK                         _______ _______ _______ _____ _____    ______ ____
ROOT
ATOM      1  N   UNL     1       1.373   8.963  19.499  0.00  0.00    +0.000 N 
ATOM      2  C   UNL     1       2.065   7.910  18.959  0.00  0.00    +0.000 C 
ATOM      3  O   UNL     1       2.428   7.867  17.791  0.00  0.00    +0.000 OA
ATOM      4  N   UNL     1       2.276   6.909  19.876  0.00  0.00    +0.000 N 
ATOM      5  H   UNL     1       1.521   9.125  20.486  0.00  0.00    +0.000 HD
ATOM      6  H   UNL     1       1.602   6.898  20.627  0.00  0.00    +0.000 HD
ENDROOT
BRANCH   4   7
ATOM      7  C   UNL     1       2.871   5.586  19.511  0.00  0.00    +0.000 C 
ATOM      8  C   UNL     1       2.618   4.605  20.692  0.00  0.00    +0.000 C 
ATOM      9  C   UNL     1       1.209   4.009  20.774  0.00  0.00    +0.000 C 
ATOM     10  C   UNL     1       1.063   2.707  19.985  0.00  0.00    +0.000 C 
ATOM     11  C   UNL     1       1.081   2.861  18.469  0.00  0.00    +0.000 C 
ATOM     12  C   UNL     1       2.299   3.594  17.909  0.00  0.00    +0.000 C 
ATOM     13  C   UNL     1       2.254   5.100  18.173  0.00  0.00    +0.000 C 
BRANCH   7  14
ATOM     14  C   UNL     1       4.418   5.731  19.346  0.00  0.00    +0.000 C 
BRANCH  14  15
ATOM     15  O   UNL     1       4.770   6.004  17.987  0.00  0.00    +0.000 OA
ATOM     16  H   UNL     1       4.032   5.653  17.456  0.00  0.00    +0.000 HD
ENDBRANCH  14  15
ENDBRANCH   7  14
ENDBRANCH   4   7
BRANCH   1  18
ATOM     17  C   UNL     1      -0.221   9.985  17.920  0.00  0.00    +0.000 C 
ATOM     18  C   UNL     1       1.090  10.142  18.691  0.00  0.00    +0.000 C 
BRANCH  18  19
ATOM     19  C   UNL     1       1.086  11.408  19.525  0.00  0.00    +0.000 A 
ATOM     20  C   UNL     1       0.262  11.497  20.661  0.00  0.00    +0.000 A 
ATOM     21  C   UNL     1       0.294  12.637  21.468  0.00  0.00    +0.000 A 
ATOM     22  C   UNL     1       1.143  13.687  21.141  0.00  0.00    +0.000 A 
ATOM     23  F   UNL     1       1.178  14.773  21.925  0.00  0.00    +0.000 F 
ATOM     24  C   UNL     1       1.952  13.631  20.016  0.00  0.00    +0.000 A 
ATOM     25  C   UNL     1       1.915  12.495  19.218  0.00  0.00    +0.000 A 
ATOM     26  F   UNL     1       2.694  12.452  18.125  0.00  0.00    +0.000 F 
ENDBRANCH  18  19
ENDBRANCH   1  18
TORSDOF 5
ENDMDL
MODEL 5
REMARK VINA RESULT:      -6.8      1.834      2.774
REMARK  Name = 
REMARK  6 active torsions:
REMARK  status: ('A' for Active; 'I' for Inactive)
REMARK    1  A    between atoms: C_1  and  C_2
REMARK    2  A    between atoms: C_2  and  N_3
REMARK    3  A    between atoms: C_2  and  C_16
REMARK    4  A    between atoms: N_6  and  C_7
REMARK    5  A    between atoms: C_7  and  C_8
REMARK    6  A    between atoms: C_8  and  O_9
REMARK                            x       y       z     vdW  Elec       q    Type
REMARK                         _______ _______ _______ _____ _____    ______ ____
ROOT
ATOM      1  N   UNL     1       1.405   8.859  19.762  0.00  0.00    +0.000 N 
ATOM      2  C   UNL     1       2.089   7.839  19.153  0.00  0.00    +0.000 C 
ATOM      3  O   UNL     1       2.447   7.869  17.983  0.00  0.00    +0.000 OA
ATOM      4  N   UNL     1       2.299   6.782  20.003  0.00  0.00    +0.000 N 
ATOM      5  H   UNL     1       1.557   8.958  20.757  0.00  0.00    +0.000 HD
ATOM      6  H   UNL     1       1.628   6.726  20.755  0.00  0.00    +0.000 HD
ENDROOT
BRANCH   4   7
ATOM      7  C   UNL     1       2.886   5.482  19.553  0.00  0.00    +0.000 C 
ATOM      8  C   UNL     1       2.710   4.451  20.705  0.00  0.00    +0.000 C 
ATOM      9  C   UNL     1       1.314   3.835  20.841  0.00  0.00    +0.000 C 
ATOM     10  C   UNL     1       1.136   2.564  20.009  0.00  0.00    +0.000 C 
ATOM     11  C   UNL     1       1.068   2.778  18.502  0.00  0.00    +0.000 C 
ATOM     12  C   UNL     1       2.244   3.548  17.906  0.00  0.00    +0.000 C 
ATOM     13  C   UNL     1       2.199   5.041  18.232  0.00  0.00    +0.000 C 
BRANCH   7  14
ATOM     14  C   UNL     1       4.420   5.652  19.307  0.00  0.00    +0.000 C 
BRANCH  14  15
ATOM     15  O   UNL     1       4.693   5.967  17.940  0.00  0.00    +0.000 OA
ATOM     16  H   UNL     1       5.214   6.791  17.966  0.00  0.00    +0.000 HD
ENDBRANCH  14  15
ENDBRANCH   7  14
ENDBRANCH   4   7
BRANCH   1  18
ATOM     17  C   UNL     1      -0.061   9.912  18.081  0.00  0.00    +0.000 C 
ATOM     18  C   UNL     1       1.124  10.089  19.031  0.00  0.00    +0.000 C 
BRANCH  18  19
ATOM     19  C   UNL     1       0.905  11.261  19.967  0.00  0.00    +0.000 A 
ATOM     20  C   UNL     1       1.627  12.453  19.780  0.00  0.00    +0.000 A 
ATOM     21  C   UNL     1       1.391  13.558  20.601  0.00  0.00    +0.000 A 
ATOM     22  C   UNL     1       0.440  13.473  21.611  0.00  0.00    +0.000 A 
ATOM     23  F   UNL     1       0.209  14.539  22.389  0.00  0.00    +0.000 F 
ATOM     24  C   UNL     1      -0.272  12.303  21.828  0.00  0.00    +0.000 A 
ATOM     25  C   UNL     1      -0.032  11.208  21.007  0.00  0.00    +0.000 A 
ATOM     26  F   UNL     1      -0.719  10.075  21.230  0.00  0.00    +0.000 F 
ENDBRANCH  18  19
ENDBRANCH   1  18
TORSDOF 5
ENDMDL
MODEL 6
REMARK VINA RESULT:      -6.8      3.229      7.547
REMARK  Name = 
REMARK  6 active torsions:
REMARK  status: ('A' for Active; 'I' for Inactive)
REMARK    1  A    between atoms: C_1  and  C_2
REMARK    2  A    between atoms: C_2  and  N_3
REMARK    3  A    between atoms: C_2  and  C_16
REMARK    4  A    between atoms: N_6  and  C_7
REMARK    5  A    between atoms: C_7  and  C_8
REMARK    6  A    between atoms: C_8  and  O_9
REMARK                            x       y       z     vdW  Elec       q    Type
REMARK                         _______ _______ _______ _____ _____    ______ ____
ROOT
ATOM      1  N   UNL     1       2.104   7.917  19.329  0.00  0.00    +0.000 N 
ATOM      2  C   UNL     1       1.527   9.046  18.810  0.00  0.00    +0.000 C 
ATOM      3  O   UNL     1       1.269   9.189  17.622  0.00  0.00    +0.000 OA
ATOM      4  N   UNL     1       1.298   9.997  19.774  0.00  0.00    +0.000 N 
ATOM      5  H   UNL     1       1.862   7.701  20.287  0.00  0.00    +0.000 HD
ATOM      6  H   UNL     1       1.905   9.915  20.577  0.00  0.00    +0.000 HD
ENDROOT
BRANCH   4   7
ATOM      7  C   UNL     1       0.819  11.377  19.456  0.00  0.00    +0.000 C 
ATOM      8  C   UNL     1      -0.239  11.268  18.320  0.00  0.00    +0.000 C 
ATOM      9  C   UNL     1      -1.640  10.824  18.753  0.00  0.00    +0.000 C 
ATOM     10  C   UNL     1      -2.544  11.992  19.146  0.00  0.00    +0.000 C 
ATOM     11  C   UNL     1      -2.184  12.680  20.458  0.00  0.00    +0.000 C 
ATOM     12  C   UNL     1      -0.742  13.173  20.553  0.00  0.00    +0.000 C 
ATOM     13  C   UNL     1       0.260  12.034  20.747  0.00  0.00    +0.000 C 
BRANCH   7  14
ATOM     14  C   UNL     1       2.005  12.236  18.910  0.00  0.00    +0.000 C 
BRANCH  14  15
ATOM     15  O   UNL     1       2.196  12.023  17.510  0.00  0.00    +0.000 OA
ATOM     16  H   UNL     1       3.109  11.691  17.423  0.00  0.00    +0.000 HD
ENDBRANCH  14  15
ENDBRANCH   7  14
ENDBRANCH   4   7
BRANCH   1  18
ATOM     17  C   UNL     1       3.796   6.854  17.883  0.00  0.00    +0.000 C 
ATOM     18  C   UNL     1       2.384   6.776  18.466  0.00  0.00    +0.000 C 
BRANCH  18  19
ATOM     19  C   UNL     1       2.159   5.460  19.183  0.00  0.00    +0.000 A 
ATOM     20  C   UNL     1       2.461   5.346  20.551  0.00  0.00    +0.000 A 
ATOM     21  C   UNL     1       2.204   4.155  21.234  0.00  0.00    +0.000 A 
ATOM     22  C   UNL     1       1.651   3.077  20.552  0.00  0.00    +0.000 A 
ATOM     23  F   UNL     1       1.396   1.941  21.214  0.00  0.00    +0.000 F 
ATOM     24  C   UNL     1       1.361   3.158  19.198  0.00  0.00    +0.000 A 
ATOM     25  C   UNL     1       1.620   4.346  18.526  0.00  0.00    +0.000 A 
ATOM     26  F   UNL     1       1.346   4.414  17.212  0.00  0.00    +0.000 F 
ENDBRANCH  18  19
ENDBRANCH   1  18
TORSDOF 5
ENDMDL
MODEL 7
REMARK VINA RESULT:      -6.8      3.330      7.506
REMARK  Name = 
REMARK  6 active torsions:
REMARK  status: ('A' for Active; 'I' for Inactive)
REMARK    1  A    between atoms: C_1  and  C_2
REMARK    2  A    between atoms: C_2  and  N_3
REMARK    3  A    between atoms: C_2  and  C_16
REMARK    4  A    between atoms: N_6  and  C_7
REMARK    5  A    between atoms: C_7  and  C_8
REMARK    6  A    between atoms: C_8  and  O_9
REMARK                            x       y       z     vdW  Elec       q    Type
REMARK                         _______ _______ _______ _____ _____    ______ ____
ROOT
ATOM      1  N   UNL     1       2.295   7.470  19.046  0.00  0.00    +0.000 N 
ATOM      2  C   UNL     1       1.855   8.668  18.546  0.00  0.00    +0.000 C 
ATOM      3  O   UNL     1       1.986   9.003  17.376  0.00  0.00    +0.000 OA
ATOM      4  N   UNL     1       1.275   9.448  19.516  0.00  0.00    +0.000 N 
ATOM      5  H   UNL     1       1.770   7.100  19.826  0.00  0.00    +0.000 HD
ATOM      6  H   UNL     1       1.593   9.237  20.451  0.00  0.00    +0.000 HD
ENDROOT
BRANCH   4   7
ATOM      7  C   UNL     1       0.847  10.860  19.275  0.00  0.00    +0.000 C 
ATOM      8  C   UNL     1      -0.098  10.871  18.040  0.00  0.00    +0.000 C 
ATOM      9  C   UNL     1      -1.540  10.424  18.300  0.00  0.00    +0.000 C 
ATOM     10  C   UNL     1      -2.461  11.574  18.705  0.00  0.00    +0.000 C 
ATOM     11  C   UNL     1      -2.218  12.141  20.099  0.00  0.00    +0.000 C 
ATOM     12  C   UNL     1      -0.785  12.591  20.372  0.00  0.00    +0.000 C 
ATOM     13  C   UNL     1       0.177  11.418  20.559  0.00  0.00    +0.000 C 
BRANCH   7  14
ATOM     14  C   UNL     1       2.093  11.735  18.919  0.00  0.00    +0.000 C 
BRANCH  14  15
ATOM     15  O   UNL     1       2.221  11.902  17.505  0.00  0.00    +0.000 OA
ATOM     16  H   UNL     1       2.324  12.862  17.369  0.00  0.00    +0.000 HD
ENDBRANCH  14  15
ENDBRANCH   7  14
ENDBRANCH   4   7
BRANCH   1  18
ATOM     17  C   UNL     1       4.426   6.615  18.144  0.00  0.00    +0.000 C 
ATOM     18  C   UNL     1       2.902   6.487  18.157  0.00  0.00    +0.000 C 
BRANCH  18  19
ATOM     19  C   UNL     1       2.474   5.075  18.506  0.00  0.00    +0.000 A 
ATOM     20  C   UNL     1       1.737   4.834  19.678  0.00  0.00    +0.000 A 
ATOM     21  C   UNL     1       1.289   3.546  19.979  0.00  0.00    +0.000 A 
ATOM     22  C   UNL     1       1.580   2.498  19.115  0.00  0.00    +0.000 A 
ATOM     23  F   UNL     1       1.140   1.266  19.402  0.00  0.00    +0.000 F 
ATOM     24  C   UNL     1       2.322   2.705  17.961  0.00  0.00    +0.000 A 
ATOM     25  C   UNL     1       2.764   3.990  17.668  0.00  0.00    +0.000 A 
ATOM     26  F   UNL     1       3.490   4.181  16.555  0.00  0.00    +0.000 F 
ENDBRANCH  18  19
ENDBRANCH   1  18
TORSDOF 5
ENDMDL
MODEL 8
REMARK VINA RESULT:      -6.7      2.104      2.607
REMARK  Name = 
REMARK  6 active torsions:
REMARK  status: ('A' for Active; 'I' for Inactive)
REMARK    1  A    between atoms: C_1  and  C_2
REMARK    2  A    between atoms: C_2  and  N_3
REMARK    3  A    between atoms: C_2  and  C_16
REMARK    4  A    between atoms: N_6  and  C_7
REMARK    5  A    between atoms: C_7  and  C_8
REMARK    6  A    between atoms: C_8  and  O_9
REMARK                            x       y       z     vdW  Elec       q    Type
REMARK                         _______ _______ _______ _____ _____    ______ ____
ROOT
ATOM      1  N   UNL     1       1.110   8.624  20.512  0.00  0.00    +0.000 N 
ATOM      2  C   UNL     1       1.898   7.769  19.786  0.00  0.00    +0.000 C 
ATOM      3  O   UNL     1       2.393   8.058  18.705  0.00  0.00    +0.000 OA
ATOM      4  N   UNL     1       2.040   6.551  20.404  0.00  0.00    +0.000 N 
ATOM      5  H   UNL     1       1.138   8.502  21.515  0.00  0.00    +0.000 HD
ATOM      6  H   UNL     1       1.285   6.326  21.036  0.00  0.00    +0.000 HD
ENDROOT
BRANCH   4   7
ATOM      7  C   UNL     1       2.721   5.386  19.758  0.00  0.00    +0.000 C 
ATOM      8  C   UNL     1       2.716   4.206  20.772  0.00  0.00    +0.000 C 
ATOM      9  C   UNL     1       1.397   3.435  20.892  0.00  0.00    +0.000 C 
ATOM     10  C   UNL     1       1.293   2.268  19.910  0.00  0.00    +0.000 C 
ATOM     11  C   UNL     1       1.112   2.663  18.449  0.00  0.00    +0.000 C 
ATOM     12  C   UNL     1       2.169   3.620  17.904  0.00  0.00    +0.000 C 
ATOM     13  C   UNL     1       2.000   5.048  18.426  0.00  0.00    +0.000 C 
BRANCH   7  14
ATOM     14  C   UNL     1       4.213   5.745  19.464  0.00  0.00    +0.000 C 
BRANCH  14  15
ATOM     15  O   UNL     1       4.391   6.137  18.101  0.00  0.00    +0.000 OA
ATOM     16  H   UNL     1       5.347   6.309  18.006  0.00  0.00    +0.000 HD
ENDBRANCH  14  15
ENDBRANCH   7  14
ENDBRANCH   4   7
BRANCH   1  18
ATOM     17  C   UNL     1       0.426   9.991  18.577  0.00  0.00    +0.000 C 
ATOM     18  C   UNL     1       0.878   9.983  20.038  0.00  0.00    +0.000 C 
BRANCH  18  19
ATOM     19  C   UNL     1      -0.106  10.725  20.920  0.00  0.00    +0.000 A 
ATOM     20  C   UNL     1      -0.977  11.673  20.356  0.00  0.00    +0.000 A 
ATOM     21  C   UNL     1      -1.926  12.321  21.150  0.00  0.00    +0.000 A 
ATOM     22  C   UNL     1      -2.004  12.027  22.506  0.00  0.00    +0.000 A 
ATOM     23  F   UNL     1      -2.923  12.642  23.261  0.00  0.00    +0.000 F 
ATOM     24  C   UNL     1      -1.143  11.109  23.090  0.00  0.00    +0.000 A 
ATOM     25  C   UNL     1      -0.202  10.469  22.294  0.00  0.00    +0.000 A 
ATOM     26  F   UNL     1       0.634   9.589  22.869  0.00  0.00    +0.000 F 
ENDBRANCH  18  19
ENDBRANCH   1  18
TORSDOF 5
ENDMDL
MODEL 9
REMARK VINA RESULT:      -6.7      1.220      2.474
REMARK  Name = 
REMARK  6 active torsions:
REMARK  status: ('A' for Active; 'I' for Inactive)
REMARK    1  A    between atoms: C_1  and  C_2
REMARK    2  A    between atoms: C_2  and  N_3
REMARK    3  A    between atoms: C_2  and  C_16
REMARK    4  A    between atoms: N_6  and  C_7
REMARK    5  A    between atoms: C_7  and  C_8
REMARK    6  A    between atoms: C_8  and  O_9
REMARK                            x       y       z     vdW  Elec       q    Type
REMARK                         _______ _______ _______ _____ _____    ______ ____
ROOT
ATOM      1  N   UNL     1       1.617   8.962  18.093  0.00  0.00    +0.000 N 
ATOM      2  C   UNL     1       2.041   7.895  18.843  0.00  0.00    +0.000 C 
ATOM      3  O   UNL     1       2.123   7.917  20.064  0.00  0.00    +0.000 OA
ATOM      4  N   UNL     1       2.381   6.819  18.061  0.00  0.00    +0.000 N 
ATOM      5  H   UNL     1       1.159   8.731  17.222  0.00  0.00    +0.000 HD
ATOM      6  H   UNL     1       2.647   7.069  17.120  0.00  0.00    +0.000 HD
ENDROOT
BRANCH   4   7
ATOM      7  C   UNL     1       3.016   5.582  18.612  0.00  0.00    +0.000 C 
ATOM      8  C   UNL     1       3.172   4.563  17.447  0.00  0.00    +0.000 C 
ATOM      9  C   UNL     1       4.350   4.809  16.499  0.00  0.00    +0.000 C 
ATOM     10  C   UNL     1       5.637   4.116  16.950  0.00  0.00    +0.000 C 
ATOM     11  C   UNL     1       6.299   4.715  18.184  0.00  0.00    +0.000 C 
ATOM     12  C   UNL     1       5.396   4.831  19.410  0.00  0.00    +0.000 C 
ATOM     13  C   UNL     1       4.366   5.955  19.280  0.00  0.00    +0.000 C 
BRANCH   7  14
ATOM     14  C   UNL     1       2.073   4.935  19.677  0.00  0.00    +0.000 C 
BRANCH  14  15
ATOM     15  O   UNL     1       2.490   5.262  21.005  0.00  0.00    +0.000 OA
ATOM     16  H   UNL     1       3.049   6.055  20.910  0.00  0.00    +0.000 HD
ENDBRANCH  14  15
ENDBRANCH   7  14
ENDBRANCH   4   7
BRANCH   1  18
ATOM     17  C   UNL     1       2.042  11.377  18.352  0.00  0.00    +0.000 C 
ATOM     18  C   UNL     1       1.171  10.184  18.749  0.00  0.00    +0.000 C 
BRANCH  18  19
ATOM     19  C   UNL     1      -0.294  10.463  18.481  0.00  0.00    +0.000 A 
ATOM     20  C   UNL     1      -0.972   9.749  17.478  0.00  0.00    +0.000 A 
ATOM     21  C   UNL     1      -2.336   9.958  17.262  0.00  0.00    +0.000 A 
ATOM     22  C   UNL     1      -3.023  10.881  18.041  0.00  0.00    +0.000 A 
ATOM     23  F   UNL     1      -4.333  11.070  17.838  0.00  0.00    +0.000 F 
ATOM     24  C   UNL     1      -2.372  11.612  19.025  0.00  0.00    +0.000 A 
ATOM     25  C   UNL     1      -1.016  11.399  19.234  0.00  0.00    +0.000 A 
ATOM     26  F   UNL     1      -0.391  12.117  20.182  0.00  0.00    +0.000 F 
ENDBRANCH  18  19
ENDBRANCH   1  18
TORSDOF 5
ENDMDL
