MODEL 1
REMARK VINA RESULT:      -7.5      0.000      0.000
REMARK  Name = 
REMARK  13 active torsions:
REMARK  status: ('A' for Active; 'I' for Inactive)
REMARK    1  A    between atoms: C_1  and  O_2
REMARK    2  A    between atoms: O_2  and  C_3
REMARK    3  A    between atoms: C_5  and  C_6
REMARK    4  A    between atoms: N_7  and  N_8
REMARK    5  A    between atoms: C_9  and  C_11
REMARK    6  A    between atoms: C_11  and  O_12
REMARK    7  A    between atoms: C_11  and  C_14
REMARK    8  A    between atoms: O_12  and  C_13
REMARK    9  A    between atoms: C_18  and  N_19
REMARK   10  A    between atoms: N_19  and  C_20
REMARK   11  A    between atoms: N_19  and  C_21
REMARK   12  A    between atoms: C_24  and  O_25
REMARK   13  A    between atoms: O_25  and  C_26
REMARK                            x       y       z     vdW  Elec       q    Type
REMARK                         _______ _______ _______ _____ _____    ______ ____
ROOT
ATOM      1  N   UNL     1       7.528   7.856  16.913  0.00  0.00    +0.000 N 
ATOM      2  C   UNL     1       7.261   6.665  17.598  0.00  0.00    +0.000 C 
ATOM      3  O   UNL     1       7.892   6.304  18.598  0.00  0.00    +0.000 OA
ATOM      4  H   UNL     1       7.054   8.094  16.051  0.00  0.00    +0.000 HD
ENDROOT
BRANCH   1   6
ATOM      5  C   UNL     1       8.152   9.666  18.165  0.00  0.00    +0.000 C 
ATOM      6  N   UNL     1       8.499   8.681  17.400  0.00  0.00    +0.000 NA
BRANCH   5   9
ATOM      7  C   UNL     1      11.059  12.064  18.231  0.00  0.00    +0.000 A 
ATOM      8  C   UNL     1      10.167  11.072  17.815  0.00  0.00    +0.000 A 
ATOM      9  C   UNL     1       9.187  10.594  18.684  0.00  0.00    +0.000 A 
ATOM     10  C   UNL     1       9.151  11.047  20.003  0.00  0.00    +0.000 A 
ATOM     11  C   UNL     1      10.074  12.009  20.461  0.00  0.00    +0.000 A 
ATOM     12  C   UNL     1      11.023  12.538  19.564  0.00  0.00    +0.000 A 
ATOM     13 BR   UNL     1      12.169  14.001  20.001  0.00  0.00    +0.000 Br
BRANCH   7  15
ATOM     14  C   UNL     1      11.455  13.567  16.444  0.00  0.00    +0.000 C 
ATOM     15  O   UNL     1      11.981  12.608  17.366  0.00  0.00    +0.000 OA
ENDBRANCH   7  15
BRANCH  11  16
ATOM     16  O   UNL     1       9.806  12.404  21.747  0.00  0.00    +0.000 OA
ATOM     17  C   UNL     1       8.573  12.019  22.343  0.00  0.00    +0.000 C 
ENDBRANCH  11  16
ENDBRANCH   5   9
ENDBRANCH   1   6
BRANCH   2  18
ATOM     18  C   UNL     1       6.147   5.791  16.948  0.00  0.00    +0.000 C 
BRANCH  18  19
ATOM     19  C   UNL     1       4.835   5.883  17.723  0.00  0.00    +0.000 A 
ATOM     20  C   UNL     1       4.000   6.998  17.587  0.00  0.00    +0.000 A 
ATOM     21  C   UNL     1       2.791   7.055  18.271  0.00  0.00    +0.000 A 
ATOM     22  C   UNL     1       2.407   6.001  19.111  0.00  0.00    +0.000 A 
ATOM     23  C   UNL     1       3.215   4.871  19.311  0.00  0.00    +0.000 A 
ATOM     24  C   UNL     1       4.437   4.851  18.604  0.00  0.00    +0.000 A 
BRANCH  23  25
ATOM     25  N   UNL     1       2.831   3.840  20.150  0.00  0.00    +0.000 N 
ATOM     26  C   UNL     1       1.676   3.937  21.037  0.00  0.00    +0.000 C 
ATOM     27  C   UNL     1       3.550   2.567  20.214  0.00  0.00    +0.000 C 
ENDBRANCH  23  25
ENDBRANCH  18  19
BRANCH  18  28
ATOM     28  O   UNL     1       6.468   4.400  16.837  0.00  0.00    +0.000 OA
ATOM     29  C   UNL     1       6.323   3.897  15.515  0.00  0.00    +0.000 C 
ENDBRANCH  18  28
ENDBRANCH   2  18
TORSDOF 8
ENDMDL
MODEL 2
REMARK VINA RESULT:      -7.4      0.802      1.026
REMARK  Name = 
REMARK  13 active torsions:
REMARK  status: ('A' for Active; 'I' for Inactive)
REMARK    1  A    between atoms: C_1  and  O_2
REMARK    2  A    between atoms: O_2  and  C_3
REMARK    3  A    between atoms: C_5  and  C_6
REMARK    4  A    between atoms: N_7  and  N_8
REMARK    5  A    between atoms: C_9  and  C_11
REMARK    6  A    between atoms: C_11  and  O_12
REMARK    7  A    between atoms: C_11  and  C_14
REMARK    8  A    between atoms: O_12  and  C_13
REMARK    9  A    between atoms: C_18  and  N_19
REMARK   10  A    between atoms: N_19  and  C_20
REMARK   11  A    between atoms: N_19  and  C_21
REMARK   12  A    between atoms: C_24  and  O_25
REMARK   13  A    between atoms: O_25  and  C_26
REMARK                            x       y       z     vdW  Elec       q    Type
REMARK                         _______ _______ _______ _____ _____    ______ ____
ROOT
ATOM      1  N   UNL     1       7.455   7.966  17.272  0.00  0.00    +0.000 N 
ATOM      2  C   UNL     1       7.248   6.665  17.742  0.00  0.00    +0.000 C 
ATOM      3  O   UNL     1       7.807   6.211  18.747  0.00  0.00    +0.000 OA
ATOM      4  H   UNL     1       7.050   8.291  16.404  0.00  0.00    +0.000 HD
ENDROOT
BRANCH   1   6
ATOM      5  C   UNL     1       8.303  10.050  17.686  0.00  0.00    +0.000 C 
ATOM      6  N   UNL     1       8.277   8.790  17.983  0.00  0.00    +0.000 NA
BRANCH   5   9
ATOM      7  C   UNL     1      10.945  12.651  18.366  0.00  0.00    +0.000 A 
ATOM      8  C   UNL     1      10.181  11.673  17.725  0.00  0.00    +0.000 A 
ATOM      9  C   UNL     1       9.210  10.961  18.427  0.00  0.00    +0.000 A 
ATOM     10  C   UNL     1       9.059  11.167  19.799  0.00  0.00    +0.000 A 
ATOM     11  C   UNL     1       9.853  12.112  20.479  0.00  0.00    +0.000 A 
ATOM     12  C   UNL     1      10.789  12.876  19.755  0.00  0.00    +0.000 A 
ATOM     13 BR   UNL     1      11.756  14.336  20.516  0.00  0.00    +0.000 Br
BRANCH   7  15
ATOM     14  C   UNL     1      11.572  13.582  16.280  0.00  0.00    +0.000 C 
ATOM     15  O   UNL     1      11.851  13.422  17.674  0.00  0.00    +0.000 OA
ENDBRANCH   7  15
BRANCH  11  16
ATOM     16  O   UNL     1       9.478  12.247  21.792  0.00  0.00    +0.000 OA
ATOM     17  C   UNL     1       8.268  12.930  22.096  0.00  0.00    +0.000 C 
ENDBRANCH  11  16
ENDBRANCH   5   9
ENDBRANCH   1   6
BRANCH   2  18
ATOM     18  C   UNL     1       6.306   5.805  16.846  0.00  0.00    +0.000 C 
BRANCH  18  19
ATOM     19  C   UNL     1       4.938   5.609  17.493  0.00  0.00    +0.000 A 
ATOM     20  C   UNL     1       4.054   6.685  17.640  0.00  0.00    +0.000 A 
ATOM     21  C   UNL     1       2.797   6.487  18.198  0.00  0.00    +0.000 A 
ATOM     22  C   UNL     1       2.411   5.211  18.629  0.00  0.00    +0.000 A 
ATOM     23  C   UNL     1       3.263   4.099  18.535  0.00  0.00    +0.000 A 
ATOM     24  C   UNL     1       4.533   4.340  17.968  0.00  0.00    +0.000 A 
BRANCH  23  25
ATOM     25  N   UNL     1       2.875   2.845  18.972  0.00  0.00    +0.000 N 
ATOM     26  C   UNL     1       3.470   1.615  18.461  0.00  0.00    +0.000 C 
ATOM     27  C   UNL     1       1.838   2.651  19.986  0.00  0.00    +0.000 C 
ENDBRANCH  23  25
ENDBRANCH  18  19
BRANCH  18  28
ATOM     28  O   UNL     1       6.808   4.501  16.531  0.00  0.00    +0.000 OA
ATOM     29  C   UNL     1       6.833   4.234  15.134  0.00  0.00    +0.000 C 
ENDBRANCH  18  28
ENDBRANCH   2  18
TORSDOF 8
ENDMDL
MODEL 3
REMARK VINA RESULT:      -7.1      6.254      8.851
REMARK  Name = 
REMARK  13 active torsions:
REMARK  status: ('A' for Active; 'I' for Inactive)
REMARK    1  A    between atoms: C_1  and  O_2
REMARK    2  A    between atoms: O_2  and  C_3
REMARK    3  A    between atoms: C_5  and  C_6
REMARK    4  A    between atoms: N_7  and  N_8
REMARK    5  A    between atoms: C_9  and  C_11
REMARK    6  A    between atoms: C_11  and  O_12
REMARK    7  A    between atoms: C_11  and  C_14
REMARK    8  A    between atoms: O_12  and  C_13
REMARK    9  A    between atoms: C_18  and  N_19
REMARK   10  A    between atoms: N_19  and  C_20
REMARK   11  A    between atoms: N_19  and  C_21
REMARK   12  A    between atoms: C_24  and  O_25
REMARK   13  A    between atoms: O_25  and  C_26
REMARK                            x       y       z     vdW  Elec       q    Type
REMARK                         _______ _______ _______ _____ _____    ______ ____
ROOT
ATOM      1  N   UNL     1       1.656   7.432  21.184  0.00  0.00    +0.000 N 
ATOM      2  C   UNL     1       2.224   6.842  20.049  0.00  0.00    +0.000 C 
ATOM      3  O   UNL     1       2.289   7.410  18.952  0.00  0.00    +0.000 OA
ATOM      4  H   UNL     1       1.540   6.922  22.049  0.00  0.00    +0.000 HD
ENDROOT
BRANCH   1   6
ATOM      5  C   UNL     1       0.093   9.023  21.695  0.00  0.00    +0.000 C 
ATOM      6  N   UNL     1       1.194   8.712  21.088  0.00  0.00    +0.000 NA
BRANCH   5   9
ATOM      7  C   UNL     1      -1.082  12.262  20.167  0.00  0.00    +0.000 A 
ATOM      8  C   UNL     1      -0.445  11.030  20.338  0.00  0.00    +0.000 A 
ATOM      9  C   UNL     1      -0.443  10.402  21.582  0.00  0.00    +0.000 A 
ATOM     10  C   UNL     1      -1.009  11.046  22.683  0.00  0.00    +0.000 A 
ATOM     11  C   UNL     1      -1.612  12.313  22.547  0.00  0.00    +0.000 A 
ATOM     12  C   UNL     1      -1.669  12.917  21.276  0.00  0.00    +0.000 A 
ATOM     13 BR   UNL     1      -2.653  14.515  20.924  0.00  0.00    +0.000 Br
BRANCH   7  15
ATOM     14  C   UNL     1      -1.652  12.019  17.881  0.00  0.00    +0.000 C 
ATOM     15  O   UNL     1      -1.166  12.861  18.931  0.00  0.00    +0.000 OA
ENDBRANCH   7  15
BRANCH  11  16
ATOM     16  O   UNL     1      -2.204  12.726  23.713  0.00  0.00    +0.000 OA
ATOM     17  C   UNL     1      -3.579  12.432  23.929  0.00  0.00    +0.000 C 
ENDBRANCH  11  16
ENDBRANCH   5   9
ENDBRANCH   1   6
BRANCH   2  18
ATOM     18  C   UNL     1       2.702   5.375  20.263  0.00  0.00    +0.000 C 
BRANCH  18  19
ATOM     19  C   UNL     1       3.269   4.774  18.979  0.00  0.00    +0.000 A 
ATOM     20  C   UNL     1       2.458   4.020  18.123  0.00  0.00    +0.000 A 
ATOM     21  C   UNL     1       2.976   3.508  16.939  0.00  0.00    +0.000 A 
ATOM     22  C   UNL     1       4.317   3.733  16.602  0.00  0.00    +0.000 A 
ATOM     23  C   UNL     1       5.187   4.455  17.434  0.00  0.00    +0.000 A 
ATOM     24  C   UNL     1       4.627   4.955  18.629  0.00  0.00    +0.000 A 
BRANCH  23  25
ATOM     25  N   UNL     1       6.513   4.663  17.096  0.00  0.00    +0.000 N 
ATOM     26  C   UNL     1       7.531   5.008  18.082  0.00  0.00    +0.000 C 
ATOM     27  C   UNL     1       7.002   4.549  15.722  0.00  0.00    +0.000 C 
ENDBRANCH  23  25
ENDBRANCH  18  19
BRANCH  18  28
ATOM     28  O   UNL     1       1.688   4.479  20.730  0.00  0.00    +0.000 OA
ATOM     29  C   UNL     1       2.169   3.536  21.680  0.00  0.00    +0.000 C 
ENDBRANCH  18  28
ENDBRANCH   2  18
TORSDOF 8
ENDMDL
MODEL 4
REMARK VINA RESULT:      -7.0      6.124      8.835
REMARK  Name = 
REMARK  13 active torsions:
REMARK  status: ('A' for Active; 'I' for Inactive)
REMARK    1  A    between atoms: C_1  and  O_2
REMARK    2  A    between atoms: O_2  and  C_3
REMARK    3  A    between atoms: C_5  and  C_6
REMARK    4  A    between atoms: N_7  and  N_8
REMARK    5  A    between atoms: C_9  and  C_11
REMARK    6  A    between atoms: C_11  and  O_12
REMARK    7  A    between atoms: C_11  and  C_14
REMARK    8  A    between atoms: O_12  and  C_13
REMARK    9  A    between atoms: C_18  and  N_19
REMARK   10  A    between atoms: N_19  and  C_20
REMARK   11  A    between atoms: N_19  and  C_21
REMARK   12  A    between atoms: C_24  and  O_25
REMARK   13  A    between atoms: O_25  and  C_26
REMARK                            x       y       z     vdW  Elec       q    Type
REMARK                         _______ _______ _______ _____ _____    ______ ____
ROOT
ATOM      1  N   UNL     1       1.593   7.439  21.143  0.00  0.00    +0.000 N 
ATOM      2  C   UNL     1       2.207   6.851  20.032  0.00  0.00    +0.000 C 
ATOM      3  O   UNL     1       2.322   7.421  18.940  0.00  0.00    +0.000 OA
ATOM      4  H   UNL     1       1.438   6.927  22.001  0.00  0.00    +0.000 HD
ENDROOT
BRANCH   1   6
ATOM      5  C   UNL     1       0.416   9.211  21.986  0.00  0.00    +0.000 C 
ATOM      6  N   UNL     1       1.141   8.722  21.031  0.00  0.00    +0.000 NA
BRANCH   5   9
ATOM      7  C   UNL     1      -1.393  12.403  22.849  0.00  0.00    +0.000 A 
ATOM      8  C   UNL     1      -1.001  11.062  22.838  0.00  0.00    +0.000 A 
ATOM      9  C   UNL     1      -0.110  10.593  21.874  0.00  0.00    +0.000 A 
ATOM     10  C   UNL     1       0.328  11.450  20.863  0.00  0.00    +0.000 A 
ATOM     11  C   UNL     1      -0.094  12.794  20.822  0.00  0.00    +0.000 A 
ATOM     12  C   UNL     1      -0.944  13.282  21.834  0.00  0.00    +0.000 A 
ATOM     13 BR   UNL     1      -1.398  15.127  22.015  0.00  0.00    +0.000 Br
BRANCH   7  15
ATOM     14  C   UNL     1      -3.562  12.450  23.797  0.00  0.00    +0.000 C 
ATOM     15  O   UNL     1      -2.207  12.905  23.838  0.00  0.00    +0.000 OA
ENDBRANCH   7  15
BRANCH  11  16
ATOM     16  O   UNL     1       0.531  13.497  19.823  0.00  0.00    +0.000 OA
ATOM     17  C   UNL     1      -0.159  13.717  18.599  0.00  0.00    +0.000 C 
ENDBRANCH  11  16
ENDBRANCH   5   9
ENDBRANCH   1   6
BRANCH   2  18
ATOM     18  C   UNL     1       2.670   5.381  20.262  0.00  0.00    +0.000 C 
BRANCH  18  19
ATOM     19  C   UNL     1       3.244   4.765  18.989  0.00  0.00    +0.000 A 
ATOM     20  C   UNL     1       2.439   3.998  18.138  0.00  0.00    +0.000 A 
ATOM     21  C   UNL     1       2.964   3.472  16.964  0.00  0.00    +0.000 A 
ATOM     22  C   UNL     1       4.306   3.695  16.630  0.00  0.00    +0.000 A 
ATOM     23  C   UNL     1       5.170   4.431  17.457  0.00  0.00    +0.000 A 
ATOM     24  C   UNL     1       4.604   4.944  18.643  0.00  0.00    +0.000 A 
BRANCH  23  25
ATOM     25  N   UNL     1       6.497   4.637  17.123  0.00  0.00    +0.000 N 
ATOM     26  C   UNL     1       7.519   4.946  18.116  0.00  0.00    +0.000 C 
ATOM     27  C   UNL     1       6.983   4.558  15.745  0.00  0.00    +0.000 C 
ENDBRANCH  23  25
ENDBRANCH  18  19
BRANCH  18  28
ATOM     28  O   UNL     1       1.644   4.497  20.726  0.00  0.00    +0.000 OA
ATOM     29  C   UNL     1       2.115   3.532  21.658  0.00  0.00    +0.000 C 
ENDBRANCH  18  28
ENDBRANCH   2  18
TORSDOF 8
ENDMDL
MODEL 5
REMARK VINA RESULT:      -7.0      1.159      1.745
REMARK  Name = 
REMARK  13 active torsions:
REMARK  status: ('A' for Active; 'I' for Inactive)
REMARK    1  A    between atoms: C_1  and  O_2
REMARK    2  A    between atoms: O_2  and  C_3
REMARK    3  A    between atoms: C_5  and  C_6
REMARK    4  A    between atoms: N_7  and  N_8
REMARK    5  A    between atoms: C_9  and  C_11
REMARK    6  A    between atoms: C_11  and  O_12
REMARK    7  A    between atoms: C_11  and  C_14
REMARK    8  A    between atoms: O_12  and  C_13
REMARK    9  A    between atoms: C_18  and  N_19
REMARK   10  A    between atoms: N_19  and  C_20
REMARK   11  A    between atoms: N_19  and  C_21
REMARK   12  A    between atoms: C_24  and  O_25
REMARK   13  A    between atoms: O_25  and  C_26
REMARK                            x       y       z     vdW  Elec       q    Type
REMARK                         _______ _______ _______ _____ _____    ______ ____
ROOT
ATOM      1  N   UNL     1       7.235   8.126  17.201  0.00  0.00    +0.000 N 
ATOM      2  C   UNL     1       7.265   6.774  17.560  0.00  0.00    +0.000 C 
ATOM      3  O   UNL     1       7.858   6.352  18.560  0.00  0.00    +0.000 OA
ATOM      4  H   UNL     1       6.814   8.440  16.337  0.00  0.00    +0.000 HD
ENDROOT
BRANCH   1   6
ATOM      5  C   UNL     1       8.602   9.939  17.487  0.00  0.00    +0.000 C 
ATOM      6  N   UNL     1       7.850   9.029  18.019  0.00  0.00    +0.000 NA
BRANCH   5   9
ATOM      7  C   UNL     1      10.716  12.872  18.551  0.00  0.00    +0.000 A 
ATOM      8  C   UNL     1      10.164  11.845  17.781  0.00  0.00    +0.000 A 
ATOM      9  C   UNL     1       9.303  10.913  18.358  0.00  0.00    +0.000 A 
ATOM     10  C   UNL     1       9.059  10.956  19.732  0.00  0.00    +0.000 A 
ATOM     11  C   UNL     1       9.646  11.951  20.539  0.00  0.00    +0.000 A 
ATOM     12  C   UNL     1      10.464  12.930  19.942  0.00  0.00    +0.000 A 
ATOM     13 BR   UNL     1      11.127  14.452  20.886  0.00  0.00    +0.000 Br
BRANCH   7  15
ATOM     14  C   UNL     1      10.818  14.741  17.100  0.00  0.00    +0.000 C 
ATOM     15  O   UNL     1      11.502  13.849  17.985  0.00  0.00    +0.000 OA
ENDBRANCH   7  15
BRANCH  11  16
ATOM     16  O   UNL     1       9.196  11.891  21.834  0.00  0.00    +0.000 OA
ATOM     17  C   UNL     1       8.055  12.655  22.204  0.00  0.00    +0.000 C 
ENDBRANCH  11  16
ENDBRANCH   5   9
ENDBRANCH   1   6
BRANCH   2  18
ATOM     18  C   UNL     1       6.550   5.829  16.549  0.00  0.00    +0.000 C 
BRANCH  18  19
ATOM     19  C   UNL     1       5.320   5.169  17.168  0.00  0.00    +0.000 A 
ATOM     20  C   UNL     1       5.008   3.833  16.889  0.00  0.00    +0.000 A 
ATOM     21  C   UNL     1       3.906   3.233  17.486  0.00  0.00    +0.000 A 
ATOM     22  C   UNL     1       3.094   3.964  18.363  0.00  0.00    +0.000 A 
ATOM     23  C   UNL     1       3.340   5.315  18.659  0.00  0.00    +0.000 A 
ATOM     24  C   UNL     1       4.463   5.892  18.030  0.00  0.00    +0.000 A 
BRANCH  23  25
ATOM     25  N   UNL     1       2.525   6.031  19.519  0.00  0.00    +0.000 N 
ATOM     26  C   UNL     1       2.302   7.466  19.378  0.00  0.00    +0.000 C 
ATOM     27  C   UNL     1       1.820   5.406  20.638  0.00  0.00    +0.000 C 
ENDBRANCH  23  25
ENDBRANCH  18  19
BRANCH  18  28
ATOM     28  O   UNL     1       7.370   4.777  16.030  0.00  0.00    +0.000 OA
ATOM     29  C   UNL     1       7.401   4.739  14.609  0.00  0.00    +0.000 C 
ENDBRANCH  18  28
ENDBRANCH   2  18
TORSDOF 8
ENDMDL
MODEL 6
REMARK VINA RESULT:      -6.9      6.798     10.237
REMARK  Name = 
REMARK  13 active torsions:
REMARK  status: ('A' for Active; 'I' for Inactive)
REMARK    1  A    between atoms: C_1  and  O_2
REMARK    2  A    between atoms: O_2  and  C_3
REMARK    3  A    between atoms: C_5  and  C_6
REMARK    4  A    between atoms: N_7  and  N_8
REMARK    5  A    between atoms: C_9  and  C_11
REMARK    6  A    between atoms: C_11  and  O_12
REMARK    7  A    between atoms: C_11  and  C_14
REMARK    8  A    between atoms: O_12  and  C_13
REMARK    9  A    between atoms: C_18  and  N_19
REMARK   10  A    between atoms: N_19  and  C_20
REMARK   11  A    between atoms: N_19  and  C_21
REMARK   12  A    between atoms: C_24  and  O_25
REMARK   13  A    between atoms: O_25  and  C_26
REMARK                            x       y       z     vdW  Elec       q    Type
REMARK                         _______ _______ _______ _____ _____    ______ ____
ROOT
ATOM      1  N   UNL     1       0.952   9.784  18.962  0.00  0.00    +0.000 N 
ATOM      2  C   UNL     1      -0.099  10.275  19.746  0.00  0.00    +0.000 C 
ATOM      3  O   UNL     1      -0.533   9.684  20.742  0.00  0.00    +0.000 OA
ATOM      4  H   UNL     1       1.238  10.242  18.108  0.00  0.00    +0.000 HD
ENDROOT
BRANCH   1   6
ATOM      5  C   UNL     1       2.254   7.970  18.467  0.00  0.00    +0.000 C 
ATOM      6  N   UNL     1       1.557   8.622  19.342  0.00  0.00    +0.000 NA
BRANCH   5   9
ATOM      7  C   UNL     1       2.876   4.692  20.221  0.00  0.00    +0.000 A 
ATOM      8  C   UNL     1       2.394   5.971  19.932  0.00  0.00    +0.000 A 
ATOM      9  C   UNL     1       2.898   6.689  18.849  0.00  0.00    +0.000 A 
ATOM     10  C   UNL     1       3.948   6.160  18.098  0.00  0.00    +0.000 A 
ATOM     11  C   UNL     1       4.487   4.893  18.401  0.00  0.00    +0.000 A 
ATOM     12  C   UNL     1       3.933   4.143  19.457  0.00  0.00    +0.000 A 
ATOM     13 BR   UNL     1       4.420   2.332  19.816  0.00  0.00    +0.000 Br
BRANCH   7  15
ATOM     14  C   UNL     1       1.099   3.289  20.918  0.00  0.00    +0.000 C 
ATOM     15  O   UNL     1       2.337   3.934  21.235  0.00  0.00    +0.000 OA
ENDBRANCH   7  15
BRANCH  11  16
ATOM     16  O   UNL     1       5.430   4.505  17.484  0.00  0.00    +0.000 OA
ATOM     17  C   UNL     1       5.004   4.061  16.202  0.00  0.00    +0.000 C 
ENDBRANCH  11  16
ENDBRANCH   5   9
ENDBRANCH   1   6
BRANCH   2  18
ATOM     18  C   UNL     1      -0.729  11.597  19.214  0.00  0.00    +0.000 C 
BRANCH  18  19
ATOM     19  C   UNL     1      -2.006  11.333  18.421  0.00  0.00    +0.000 A 
ATOM     20  C   UNL     1      -1.972  10.591  17.235  0.00  0.00    +0.000 A 
ATOM     21  C   UNL     1      -3.146  10.327  16.540  0.00  0.00    +0.000 A 
ATOM     22  C   UNL     1      -4.371  10.812  17.017  0.00  0.00    +0.000 A 
ATOM     23  C   UNL     1      -4.465  11.587  18.185  0.00  0.00    +0.000 A 
ATOM     24  C   UNL     1      -3.252  11.839  18.860  0.00  0.00    +0.000 A 
BRANCH  23  25
ATOM     25  N   UNL     1      -5.679  12.070  18.642  0.00  0.00    +0.000 N 
ATOM     26  C   UNL     1      -5.780  13.191  19.569  0.00  0.00    +0.000 C 
ATOM     27  C   UNL     1      -6.960  11.496  18.229  0.00  0.00    +0.000 C 
ENDBRANCH  23  25
ENDBRANCH  18  19
BRANCH  18  28
ATOM     28  O   UNL     1       0.131  12.372  18.372  0.00  0.00    +0.000 OA
ATOM     29  C   UNL     1       0.367  13.683  18.869  0.00  0.00    +0.000 C 
ENDBRANCH  18  28
ENDBRANCH   2  18
TORSDOF 8
ENDMDL
MODEL 7
REMARK VINA RESULT:      -6.9      5.892      8.112
REMARK  Name = 
REMARK  13 active torsions:
REMARK  status: ('A' for Active; 'I' for Inactive)
REMARK    1  A    between atoms: C_1  and  O_2
REMARK    2  A    between atoms: O_2  and  C_3
REMARK    3  A    between atoms: C_5  and  C_6
REMARK    4  A    between atoms: N_7  and  N_8
REMARK    5  A    between atoms: C_9  and  C_11
REMARK    6  A    between atoms: C_11  and  O_12
REMARK    7  A    between atoms: C_11  and  C_14
REMARK    8  A    between atoms: O_12  and  C_13
REMARK    9  A    between atoms: C_18  and  N_19
REMARK   10  A    between atoms: N_19  and  C_20
REMARK   11  A    between atoms: N_19  and  C_21
REMARK   12  A    between atoms: C_24  and  O_25
REMARK   13  A    between atoms: O_25  and  C_26
REMARK                            x       y       z     vdW  Elec       q    Type
REMARK                         _______ _______ _______ _____ _____    ______ ____
ROOT
ATOM      1  N   UNL     1       2.812   6.064  18.424  0.00  0.00    +0.000 N 
ATOM      2  C   UNL     1       3.225   5.013  19.251  0.00  0.00    +0.000 C 
ATOM      3  O   UNL     1       2.955   4.954  20.457  0.00  0.00    +0.000 OA
ATOM      4  H   UNL     1       3.110   6.134  17.461  0.00  0.00    +0.000 HD
ENDROOT
BRANCH   1   6
ATOM      5  C   UNL     1       2.027   8.213  18.401  0.00  0.00    +0.000 C 
ATOM      6  N   UNL     1       2.033   7.046  18.964  0.00  0.00    +0.000 NA
BRANCH   5   9
ATOM      7  C   UNL     1      -0.525  10.971  18.698  0.00  0.00    +0.000 A 
ATOM      8  C   UNL     1       0.369  10.043  18.156  0.00  0.00    +0.000 A 
ATOM      9  C   UNL     1       1.211   9.305  18.986  0.00  0.00    +0.000 A 
ATOM     10  C   UNL     1       1.220   9.554  20.359  0.00  0.00    +0.000 A 
ATOM     11  C   UNL     1       0.364  10.521  20.923  0.00  0.00    +0.000 A 
ATOM     12  C   UNL     1      -0.530  11.221  20.091  0.00  0.00    +0.000 A 
ATOM     13 BR   UNL     1      -1.888  12.383  20.762  0.00  0.00    +0.000 Br
BRANCH   7  15
ATOM     14  C   UNL     1      -2.260  10.826  17.092  0.00  0.00    +0.000 C 
ATOM     15  O   UNL     1      -1.421  11.651  17.905  0.00  0.00    +0.000 OA
ENDBRANCH   7  15
BRANCH  11  16
ATOM     16  O   UNL     1       0.443  10.538  22.293  0.00  0.00    +0.000 OA
ATOM     17  C   UNL     1      -0.151   9.477  23.031  0.00  0.00    +0.000 C 
ENDBRANCH  11  16
ENDBRANCH   5   9
ENDBRANCH   1   6
BRANCH   2  18
ATOM     18  C   UNL     1       4.122   3.956  18.540  0.00  0.00    +0.000 C 
BRANCH  18  19
ATOM     19  C   UNL     1       5.256   4.614  17.758  0.00  0.00    +0.000 A 
ATOM     20  C   UNL     1       6.148   5.488  18.390  0.00  0.00    +0.000 A 
ATOM     21  C   UNL     1       7.198   6.054  17.676  0.00  0.00    +0.000 A 
ATOM     22  C   UNL     1       7.361   5.763  16.315  0.00  0.00    +0.000 A 
ATOM     23  C   UNL     1       6.481   4.918  15.620  0.00  0.00    +0.000 A 
ATOM     24  C   UNL     1       5.425   4.367  16.376  0.00  0.00    +0.000 A 
BRANCH  23  25
ATOM     25  N   UNL     1       6.646   4.645  14.273  0.00  0.00    +0.000 N 
ATOM     26  C   UNL     1       5.765   3.744  13.539  0.00  0.00    +0.000 C 
ATOM     27  C   UNL     1       7.717   5.242  13.474  0.00  0.00    +0.000 C 
ENDBRANCH  23  25
ENDBRANCH  18  19
BRANCH  18  28
ATOM     28  O   UNL     1       3.427   3.101  17.625  0.00  0.00    +0.000 OA
ATOM     29  C   UNL     1       3.106   1.832  18.180  0.00  0.00    +0.000 C 
ENDBRANCH  18  28
ENDBRANCH   2  18
TORSDOF 8
ENDMDL
MODEL 8
REMARK VINA RESULT:      -6.9      5.111      7.788
REMARK  Name = 
REMARK  13 active torsions:
REMARK  status: ('A' for Active; 'I' for Inactive)
REMARK    1  A    between atoms: C_1  and  O_2
REMARK    2  A    between atoms: O_2  and  C_3
REMARK    3  A    between atoms: C_5  and  C_6
REMARK    4  A    between atoms: N_7  and  N_8
REMARK    5  A    between atoms: C_9  and  C_11
REMARK    6  A    between atoms: C_11  and  O_12
REMARK    7  A    between atoms: C_11  and  C_14
REMARK    8  A    between atoms: O_12  and  C_13
REMARK    9  A    between atoms: C_18  and  N_19
REMARK   10  A    between atoms: N_19  and  C_20
REMARK   11  A    between atoms: N_19  and  C_21
REMARK   12  A    between atoms: C_24  and  O_25
REMARK   13  A    between atoms: O_25  and  C_26
REMARK                            x       y       z     vdW  Elec       q    Type
REMARK                         _______ _______ _______ _____ _____    ______ ____
ROOT
ATOM      1  N   UNL     1       2.557   6.200  19.090  0.00  0.00    +0.000 N 
ATOM      2  C   UNL     1       2.444   5.017  19.829  0.00  0.00    +0.000 C 
ATOM      3  O   UNL     1       1.993   4.978  20.980  0.00  0.00    +0.000 OA
ATOM      4  H   UNL     1       3.001   6.222  18.182  0.00  0.00    +0.000 HD
ENDROOT
BRANCH   1   6
ATOM      5  C   UNL     1       1.671   8.298  18.868  0.00  0.00    +0.000 C 
ATOM      6  N   UNL     1       2.104   7.359  19.649  0.00  0.00    +0.000 NA
BRANCH   5   9
ATOM      7  C   UNL     1       0.520  10.832  21.409  0.00  0.00    +0.000 A 
ATOM      8  C   UNL     1       0.818   9.616  20.791  0.00  0.00    +0.000 A 
ATOM      9  C   UNL     1       1.200   9.578  19.451  0.00  0.00    +0.000 A 
ATOM     10  C   UNL     1       1.203  10.755  18.700  0.00  0.00    +0.000 A 
ATOM     11  C   UNL     1       0.855  11.988  19.288  0.00  0.00    +0.000 A 
ATOM     12  C   UNL     1       0.532  12.032  20.658  0.00  0.00    +0.000 A 
ATOM     13 BR   UNL     1       0.268  13.663  21.615  0.00  0.00    +0.000 Br
BRANCH   7  15
ATOM     14  C   UNL     1      -1.134  10.586  23.086  0.00  0.00    +0.000 C 
ATOM     15  O   UNL     1       0.220  10.901  22.750  0.00  0.00    +0.000 OA
ENDBRANCH   7  15
BRANCH  11  16
ATOM     16  O   UNL     1       1.027  13.036  18.420  0.00  0.00    +0.000 OA
ATOM     17  C   UNL     1       2.319  13.617  18.286  0.00  0.00    +0.000 C 
ENDBRANCH  11  16
ENDBRANCH   5   9
ENDBRANCH   1   6
BRANCH   2  18
ATOM     18  C   UNL     1       3.006   3.757  19.105  0.00  0.00    +0.000 C 
BRANCH  18  19
ATOM     19  C   UNL     1       4.178   4.107  18.192  0.00  0.00    +0.000 A 
ATOM     20  C   UNL     1       4.246   3.604  16.888  0.00  0.00    +0.000 A 
ATOM     21  C   UNL     1       5.300   3.959  16.055  0.00  0.00    +0.000 A 
ATOM     22  C   UNL     1       6.308   4.813  16.520  0.00  0.00    +0.000 A 
ATOM     23  C   UNL     1       6.311   5.326  17.827  0.00  0.00    +0.000 A 
ATOM     24  C   UNL     1       5.228   4.940  18.645  0.00  0.00    +0.000 A 
BRANCH  23  25
ATOM     25  N   UNL     1       7.318   6.161  18.279  0.00  0.00    +0.000 N 
ATOM     26  C   UNL     1       7.635   7.431  17.635  0.00  0.00    +0.000 C 
ATOM     27  C   UNL     1       8.144   5.840  19.444  0.00  0.00    +0.000 C 
ENDBRANCH  23  25
ENDBRANCH  18  19
BRANCH  18  28
ATOM     28  O   UNL     1       2.051   3.052  18.304  0.00  0.00    +0.000 OA
ATOM     29  C   UNL     1       0.914   2.620  19.039  0.00  0.00    +0.000 C 
ENDBRANCH  18  28
ENDBRANCH   2  18
TORSDOF 8
ENDMDL
MODEL 9
REMARK VINA RESULT:      -6.8      6.400     10.102
REMARK  Name = 
REMARK  13 active torsions:
REMARK  status: ('A' for Active; 'I' for Inactive)
REMARK    1  A    between atoms: C_1  and  O_2
REMARK    2  A    between atoms: O_2  and  C_3
REMARK    3  A    between atoms: C_5  and  C_6
REMARK    4  A    between atoms: N_7  and  N_8
REMARK    5  A    between atoms: C_9  and  C_11
REMARK    6  A    between atoms: C_11  and  O_12
REMARK    7  A    between atoms: C_11  and  C_14
REMARK    8  A    between atoms: O_12  and  C_13
REMARK    9  A    between atoms: C_18  and  N_19
REMARK   10  A    between atoms: N_19  and  C_20
REMARK   11  A    between atoms: N_19  and  C_21
REMARK   12  A    between atoms: C_24  and  O_25
REMARK   13  A    between atoms: O_25  and  C_26
REMARK                            x       y       z     vdW  Elec       q    Type
REMARK                         _______ _______ _______ _____ _____    ______ ____
ROOT
ATOM      1  N   UNL     1       1.127   9.435  19.450  0.00  0.00    +0.000 N 
ATOM      2  C   UNL     1       1.510  10.460  18.578  0.00  0.00    +0.000 C 
ATOM      3  O   UNL     1       2.222  10.273  17.584  0.00  0.00    +0.000 OA
ATOM      4  H   UNL     1       0.611   9.622  20.300  0.00  0.00    +0.000 HD
ENDROOT
BRANCH   1   6
ATOM      5  C   UNL     1       2.128   7.477  20.081  0.00  0.00    +0.000 C 
ATOM      6  N   UNL     1       1.518   8.160  19.165  0.00  0.00    +0.000 NA
BRANCH   5   9
ATOM      7  C   UNL     1       2.183   3.713  19.901  0.00  0.00    +0.000 A 
ATOM      8  C   UNL     1       1.868   5.017  20.289  0.00  0.00    +0.000 A 
ATOM      9  C   UNL     1       2.589   6.098  19.784  0.00  0.00    +0.000 A 
ATOM     10  C   UNL     1       3.685   5.870  18.952  0.00  0.00    +0.000 A 
ATOM     11  C   UNL     1       4.055   4.559  18.588  0.00  0.00    +0.000 A 
ATOM     12  C   UNL     1       3.286   3.473  19.048  0.00  0.00    +0.000 A 
ATOM     13 BR   UNL     1       3.547   1.681  18.443  0.00  0.00    +0.000 Br
BRANCH   7  15
ATOM     14  C   UNL     1       1.430   2.418  21.736  0.00  0.00    +0.000 C 
ATOM     15  O   UNL     1       1.434   2.638  20.323  0.00  0.00    +0.000 OA
ENDBRANCH   7  15
BRANCH  11  16
ATOM     16  O   UNL     1       5.084   4.551  17.681  0.00  0.00    +0.000 OA
ATOM     17  C   UNL     1       4.779   4.586  16.292  0.00  0.00    +0.000 C 
ENDBRANCH  11  16
ENDBRANCH   5   9
ENDBRANCH   1   6
BRANCH   2  18
ATOM     18  C   UNL     1       1.024  11.878  19.007  0.00  0.00    +0.000 C 
BRANCH  18  19
ATOM     19  C   UNL     1      -0.498  11.947  19.099  0.00  0.00    +0.000 A 
ATOM     20  C   UNL     1      -1.126  12.351  20.283  0.00  0.00    +0.000 A 
ATOM     21  C   UNL     1      -2.511  12.444  20.344  0.00  0.00    +0.000 A 
ATOM     22  C   UNL     1      -3.289  12.123  19.224  0.00  0.00    +0.000 A 
ATOM     23  C   UNL     1      -2.719  11.683  18.018  0.00  0.00    +0.000 A 
ATOM     24  C   UNL     1      -1.311  11.596  17.996  0.00  0.00    +0.000 A 
BRANCH  23  25
ATOM     25  N   UNL     1      -3.497  11.359  16.921  0.00  0.00    +0.000 N 
ATOM     26  C   UNL     1      -2.933  10.808  15.693  0.00  0.00    +0.000 C 
ATOM     27  C   UNL     1      -4.949  11.538  16.904  0.00  0.00    +0.000 C 
ENDBRANCH  23  25
ENDBRANCH  18  19
BRANCH  18  28
ATOM     28  O   UNL     1       1.437  12.938  18.139  0.00  0.00    +0.000 OA
ATOM     29  C   UNL     1       2.380  13.817  18.739  0.00  0.00    +0.000 C 
ENDBRANCH  18  28
ENDBRANCH   2  18
TORSDOF 8
ENDMDL
