MODEL 1
REMARK VINA RESULT:      -7.5      0.000      0.000
REMARK  Name = 
REMARK  7 active torsions:
REMARK  status: ('A' for Active; 'I' for Inactive)
REMARK    1  A    between atoms: C_1  and  N_2
REMARK    2  A    between atoms: N_2  and  C_3
REMARK    3  A    between atoms: C_3  and  C_4
REMARK    4  A    between atoms: C_11  and  C_13
REMARK    5  A    between atoms: C_13  and  C_14
REMARK    6  A    between atoms: C_17  and  S_18
REMARK    7  A    between atoms: S_18  and  N_21
REMARK                            x       y       z     vdW  Elec       q    Type
REMARK                         _______ _______ _______ _____ _____    ______ ____
ROOT
ATOM      1  C   UNL     1       2.405   6.654  19.435  0.00  0.00    +0.000 A 
ATOM      2  C   UNL     1       2.721   6.929  18.124  0.00  0.00    +0.000 A 
ATOM      3  C   UNL     1       2.452   8.280  17.793  0.00  0.00    +0.000 A 
ATOM      4  C   UNL     1       1.776   8.944  18.798  0.00  0.00    +0.000 A 
ATOM      5  S   UNL     1       1.570   7.956  20.176  0.00  0.00    +0.000 S 
ENDROOT
BRANCH   4   6
ATOM      6  S   UNL     1       1.093  10.581  18.844  0.00  0.00    +0.000 S 
ATOM      7  O   UNL     1       2.064  11.460  18.230  0.00  0.00    +0.000 OA
ATOM      8  O   UNL     1      -0.225  10.422  18.254  0.00  0.00    +0.000 OA
BRANCH   6   9
ATOM      9  N   UNL     1       0.896  11.059  20.465  0.00  0.00    +0.000 NA
ATOM     10  C   UNL     1      -0.455  10.880  21.074  0.00  0.00    +0.000 C 
ATOM     11  C   UNL     1      -1.431  11.966  20.616  0.00  0.00    +0.000 C 
ATOM     12  O   UNL     1      -0.928  13.275  20.917  0.00  0.00    +0.000 OA
ATOM     13  C   UNL     1       0.362  13.507  20.328  0.00  0.00    +0.000 C 
ATOM     14  C   UNL     1       1.385  12.446  20.762  0.00  0.00    +0.000 C 
ENDBRANCH   6   9
ENDBRANCH   4   6
BRANCH   1  15
ATOM     15  C   UNL     1       2.793   5.438  20.217  0.00  0.00    +0.000 C 
BRANCH  15  18
ATOM     16  C   UNL     1       3.199   2.202  18.217  0.00  0.00    +0.000 C 
ATOM     17  N   UNL     1       3.534   3.434  18.911  0.00  0.00    +0.000 N 
ATOM     18  C   UNL     1       2.473   4.146  19.478  0.00  0.00    +0.000 C 
ATOM     19  O   UNL     1       1.302   3.786  19.329  0.00  0.00    +0.000 OA
BRANCH  17  20
ATOM     20  C   UNL     1       4.934   3.613  19.307  0.00  0.00    +0.000 C 
BRANCH  20  21
ATOM     21  C   UNL     1       5.706   4.591  18.446  0.00  0.00    +0.000 A 
ATOM     22  C   UNL     1       5.399   4.802  17.090  0.00  0.00    +0.000 A 
ATOM     23  C   UNL     1       6.083   5.771  16.345  0.00  0.00    +0.000 A 
ATOM     24  C   UNL     1       7.092   6.520  16.936  0.00  0.00    +0.000 A 
ATOM     25  C   UNL     1       7.429   6.289  18.265  0.00  0.00    +0.000 A 
ATOM     26  F   UNL     1       8.403   7.008  18.836  0.00  0.00    +0.000 F 
ATOM     27  C   UNL     1       6.755   5.331  19.015  0.00  0.00    +0.000 A 
ENDBRANCH  20  21
ENDBRANCH  17  20
ENDBRANCH  15  18
ENDBRANCH   1  15
TORSDOF 6
ENDMDL
MODEL 2
REMARK VINA RESULT:      -7.5      1.364      1.761
REMARK  Name = 
REMARK  7 active torsions:
REMARK  status: ('A' for Active; 'I' for Inactive)
REMARK    1  A    between atoms: C_1  and  N_2
REMARK    2  A    between atoms: N_2  and  C_3
REMARK    3  A    between atoms: C_3  and  C_4
REMARK    4  A    between atoms: C_11  and  C_13
REMARK    5  A    between atoms: C_13  and  C_14
REMARK    6  A    between atoms: C_17  and  S_18
REMARK    7  A    between atoms: S_18  and  N_21
REMARK                            x       y       z     vdW  Elec       q    Type
REMARK                         _______ _______ _______ _____ _____    ______ ____
ROOT
ATOM      1  C   UNL     1       2.171   6.883  19.822  0.00  0.00    +0.000 A 
ATOM      2  C   UNL     1       2.334   7.387  18.553  0.00  0.00    +0.000 A 
ATOM      3  C   UNL     1       1.957   8.751  18.479  0.00  0.00    +0.000 A 
ATOM      4  C   UNL     1       1.351   9.193  19.638  0.00  0.00    +0.000 A 
ATOM      5  S   UNL     1       1.343   7.985  20.844  0.00  0.00    +0.000 S 
ENDROOT
BRANCH   4   6
ATOM      6  S   UNL     1       0.585  10.748  20.019  0.00  0.00    +0.000 S 
ATOM      7  O   UNL     1      -0.840  10.509  20.092  0.00  0.00    +0.000 OA
ATOM      8  O   UNL     1       1.310  11.211  21.191  0.00  0.00    +0.000 OA
BRANCH   6   9
ATOM      9  N   UNL     1       0.875  11.841  18.748  0.00  0.00    +0.000 NA
ATOM     10  C   UNL     1       2.152  12.614  18.784  0.00  0.00    +0.000 C 
ATOM     11  C   UNL     1       2.086  13.768  19.787  0.00  0.00    +0.000 C 
ATOM     12  O   UNL     1       0.991  14.647  19.494  0.00  0.00    +0.000 OA
ATOM     13  C   UNL     1      -0.267  13.953  19.475  0.00  0.00    +0.000 C 
ATOM     14  C   UNL     1      -0.259  12.785  18.477  0.00  0.00    +0.000 C 
ENDBRANCH   6   9
ENDBRANCH   4   6
BRANCH   1  15
ATOM     15  C   UNL     1       2.705   5.588  20.351  0.00  0.00    +0.000 C 
BRANCH  15  18
ATOM     16  C   UNL     1       2.892   2.584  17.990  0.00  0.00    +0.000 C 
ATOM     17  N   UNL     1       3.306   3.719  18.798  0.00  0.00    +0.000 N 
ATOM     18  C   UNL     1       2.301   4.399  19.492  0.00  0.00    +0.000 C 
ATOM     19  O   UNL     1       1.111   4.098  19.362  0.00  0.00    +0.000 OA
BRANCH  17  20
ATOM     20  C   UNL     1       4.729   3.804  19.141  0.00  0.00    +0.000 C 
BRANCH  20  21
ATOM     21  C   UNL     1       5.485   4.890  18.403  0.00  0.00    +0.000 A 
ATOM     22  C   UNL     1       5.035   5.420  17.181  0.00  0.00    +0.000 A 
ATOM     23  C   UNL     1       5.718   6.476  16.566  0.00  0.00    +0.000 A 
ATOM     24  C   UNL     1       6.865   6.999  17.150  0.00  0.00    +0.000 A 
ATOM     25  C   UNL     1       7.338   6.453  18.337  0.00  0.00    +0.000 A 
ATOM     26  F   UNL     1       8.445   6.952  18.900  0.00  0.00    +0.000 F 
ATOM     27  C   UNL     1       6.668   5.405  18.958  0.00  0.00    +0.000 A 
ENDBRANCH  20  21
ENDBRANCH  17  20
ENDBRANCH  15  18
ENDBRANCH   1  15
TORSDOF 6
ENDMDL
MODEL 3
REMARK VINA RESULT:      -7.4      1.195      1.516
REMARK  Name = 
REMARK  7 active torsions:
REMARK  status: ('A' for Active; 'I' for Inactive)
REMARK    1  A    between atoms: C_1  and  N_2
REMARK    2  A    between atoms: N_2  and  C_3
REMARK    3  A    between atoms: C_3  and  C_4
REMARK    4  A    between atoms: C_11  and  C_13
REMARK    5  A    between atoms: C_13  and  C_14
REMARK    6  A    between atoms: C_17  and  S_18
REMARK    7  A    between atoms: S_18  and  N_21
REMARK                            x       y       z     vdW  Elec       q    Type
REMARK                         _______ _______ _______ _____ _____    ______ ____
ROOT
ATOM      1  C   UNL     1       2.383   6.611  19.568  0.00  0.00    +0.000 A 
ATOM      2  C   UNL     1       2.703   6.827  18.248  0.00  0.00    +0.000 A 
ATOM      3  C   UNL     1       2.439   8.162  17.856  0.00  0.00    +0.000 A 
ATOM      4  C   UNL     1       1.762   8.872  18.828  0.00  0.00    +0.000 A 
ATOM      5  S   UNL     1       1.549   7.947  20.248  0.00  0.00    +0.000 S 
ENDROOT
BRANCH   4   6
ATOM      6  S   UNL     1       1.084  10.512  18.799  0.00  0.00    +0.000 S 
ATOM      7  O   UNL     1       2.078  11.369  18.192  0.00  0.00    +0.000 OA
ATOM      8  O   UNL     1      -0.214  10.337  18.168  0.00  0.00    +0.000 OA
BRANCH   6   9
ATOM      9  N   UNL     1       0.832  11.041  20.397  0.00  0.00    +0.000 NA
ATOM     10  C   UNL     1      -0.559  10.964  20.934  0.00  0.00    +0.000 C 
ATOM     11  C   UNL     1      -1.435  12.099  20.400  0.00  0.00    +0.000 C 
ATOM     12  O   UNL     1      -0.864  13.380  20.701  0.00  0.00    +0.000 OA
ATOM     13  C   UNL     1       0.468  13.513  20.179  0.00  0.00    +0.000 C 
ATOM     14  C   UNL     1       1.395  12.400  20.690  0.00  0.00    +0.000 C 
ENDBRANCH   6   9
ENDBRANCH   4   6
BRANCH   1  15
ATOM     15  C   UNL     1       2.765   5.430  20.404  0.00  0.00    +0.000 C 
BRANCH  15  18
ATOM     16  C   UNL     1       2.449   2.015  18.709  0.00  0.00    +0.000 C 
ATOM     17  N   UNL     1       3.034   3.252  19.200  0.00  0.00    +0.000 N 
ATOM     18  C   UNL     1       2.179   4.129  19.874  0.00  0.00    +0.000 C 
ATOM     19  O   UNL     1       0.971   3.899  19.979  0.00  0.00    +0.000 OA
BRANCH  17  20
ATOM     20  C   UNL     1       4.495   3.295  19.313  0.00  0.00    +0.000 C 
BRANCH  20  21
ATOM     21  C   UNL     1       5.171   4.219  18.321  0.00  0.00    +0.000 A 
ATOM     22  C   UNL     1       6.117   5.181  18.715  0.00  0.00    +0.000 A 
ATOM     23  C   UNL     1       6.778   5.965  17.762  0.00  0.00    +0.000 A 
ATOM     24  C   UNL     1       6.489   5.813  16.412  0.00  0.00    +0.000 A 
ATOM     25  C   UNL     1       5.526   4.891  16.018  0.00  0.00    +0.000 A 
ATOM     26  F   UNL     1       5.243   4.745  14.717  0.00  0.00    +0.000 F 
ATOM     27  C   UNL     1       4.863   4.106  16.955  0.00  0.00    +0.000 A 
ENDBRANCH  20  21
ENDBRANCH  17  20
ENDBRANCH  15  18
ENDBRANCH   1  15
TORSDOF 6
ENDMDL
MODEL 4
REMARK VINA RESULT:      -7.3      3.605      8.867
REMARK  Name = 
REMARK  7 active torsions:
REMARK  status: ('A' for Active; 'I' for Inactive)
REMARK    1  A    between atoms: C_1  and  N_2
REMARK    2  A    between atoms: N_2  and  C_3
REMARK    3  A    between atoms: C_3  and  C_4
REMARK    4  A    between atoms: C_11  and  C_13
REMARK    5  A    between atoms: C_13  and  C_14
REMARK    6  A    between atoms: C_17  and  S_18
REMARK    7  A    between atoms: S_18  and  N_21
REMARK                            x       y       z     vdW  Elec       q    Type
REMARK                         _______ _______ _______ _____ _____    ______ ____
ROOT
ATOM      1  C   UNL     1       1.586   8.956  18.851  0.00  0.00    +0.000 A 
ATOM      2  C   UNL     1       1.280   8.692  20.166  0.00  0.00    +0.000 A 
ATOM      3  C   UNL     1       1.903   7.504  20.621  0.00  0.00    +0.000 A 
ATOM      4  C   UNL     1       2.514   6.805  19.599  0.00  0.00    +0.000 A 
ATOM      5  S   UNL     1       2.420   7.649  18.117  0.00  0.00    +0.000 S 
ENDROOT
BRANCH   4   6
ATOM      6  S   UNL     1       3.309   5.219  19.599  0.00  0.00    +0.000 S 
ATOM      7  O   UNL     1       4.734   5.461  19.574  0.00  0.00    +0.000 OA
ATOM      8  O   UNL     1       2.703   4.530  20.727  0.00  0.00    +0.000 OA
BRANCH   6   9
ATOM      9  N   UNL     1       2.888   4.383  18.177  0.00  0.00    +0.000 NA
ATOM     10  C   UNL     1       1.482   3.896  18.058  0.00  0.00    +0.000 C 
ATOM     11  C   UNL     1       1.247   2.634  18.891  0.00  0.00    +0.000 C 
ATOM     12  O   UNL     1       2.160   1.591  18.521  0.00  0.00    +0.000 OA
ATOM     13  C   UNL     1       3.530   2.003  18.646  0.00  0.00    +0.000 C 
ATOM     14  C   UNL     1       3.823   3.266  17.821  0.00  0.00    +0.000 C 
ENDBRANCH   6   9
ENDBRANCH   4   6
BRANCH   1  15
ATOM     15  C   UNL     1       1.344  10.234  18.110  0.00  0.00    +0.000 C 
BRANCH  15  18
ATOM     16  C   UNL     1      -0.924  12.541  20.151  0.00  0.00    +0.000 C 
ATOM     17  N   UNL     1      -0.501  11.466  19.270  0.00  0.00    +0.000 N 
ATOM     18  C   UNL     1       0.871  11.354  19.025  0.00  0.00    +0.000 C 
ATOM     19  O   UNL     1       1.675  12.176  19.474  0.00  0.00    +0.000 OA
BRANCH  17  20
ATOM     20  C   UNL     1      -1.456  10.376  19.048  0.00  0.00    +0.000 C 
BRANCH  20  21
ATOM     21  C   UNL     1      -2.397  10.598  17.881  0.00  0.00    +0.000 A 
ATOM     22  C   UNL     1      -3.609  11.298  18.017  0.00  0.00    +0.000 A 
ATOM     23  C   UNL     1      -4.415  11.551  16.901  0.00  0.00    +0.000 A 
ATOM     24  C   UNL     1      -4.035  11.092  15.646  0.00  0.00    +0.000 A 
ATOM     25  C   UNL     1      -2.858  10.364  15.512  0.00  0.00    +0.000 A 
ATOM     26  F   UNL     1      -2.491   9.918  14.304  0.00  0.00    +0.000 F 
ATOM     27  C   UNL     1      -2.048  10.108  16.612  0.00  0.00    +0.000 A 
ENDBRANCH  20  21
ENDBRANCH  17  20
ENDBRANCH  15  18
ENDBRANCH   1  15
TORSDOF 6
ENDMDL
MODEL 5
REMARK VINA RESULT:      -7.3      1.348      1.592
REMARK  Name = 
REMARK  7 active torsions:
REMARK  status: ('A' for Active; 'I' for Inactive)
REMARK    1  A    between atoms: C_1  and  N_2
REMARK    2  A    between atoms: N_2  and  C_3
REMARK    3  A    between atoms: C_3  and  C_4
REMARK    4  A    between atoms: C_11  and  C_13
REMARK    5  A    between atoms: C_13  and  C_14
REMARK    6  A    between atoms: C_17  and  S_18
REMARK    7  A    between atoms: S_18  and  N_21
REMARK                            x       y       z     vdW  Elec       q    Type
REMARK                         _______ _______ _______ _____ _____    ______ ____
ROOT
ATOM      1  C   UNL     1       2.175   6.593  19.821  0.00  0.00    +0.000 A 
ATOM      2  C   UNL     1       2.401   7.106  18.565  0.00  0.00    +0.000 A 
ATOM      3  C   UNL     1       2.113   8.492  18.506  0.00  0.00    +0.000 A 
ATOM      4  C   UNL     1       1.509   8.954  19.658  0.00  0.00    +0.000 A 
ATOM      5  S   UNL     1       1.395   7.729  20.843  0.00  0.00    +0.000 S 
ENDROOT
BRANCH   4   6
ATOM      6  S   UNL     1       0.834  10.548  20.050  0.00  0.00    +0.000 S 
ATOM      7  O   UNL     1       1.222  10.847  21.411  0.00  0.00    +0.000 OA
ATOM      8  O   UNL     1       1.289  11.392  18.957  0.00  0.00    +0.000 OA
BRANCH   6   9
ATOM      9  N   UNL     1      -0.864  10.466  19.987  0.00  0.00    +0.000 NA
ATOM     10  C   UNL     1      -1.481   9.954  18.728  0.00  0.00    +0.000 C 
ATOM     11  C   UNL     1      -1.473  11.012  17.622  0.00  0.00    +0.000 C 
ATOM     12  O   UNL     1      -2.142  12.208  18.044  0.00  0.00    +0.000 OA
ATOM     13  C   UNL     1      -1.566  12.756  19.241  0.00  0.00    +0.000 C 
ATOM     14  C   UNL     1      -1.556  11.735  20.389  0.00  0.00    +0.000 C 
ENDBRANCH   6   9
ENDBRANCH   4   6
BRANCH   1  15
ATOM     15  C   UNL     1       2.614   5.258  20.339  0.00  0.00    +0.000 C 
BRANCH  15  18
ATOM     16  C   UNL     1       2.632   2.339  17.866  0.00  0.00    +0.000 C 
ATOM     17  N   UNL     1       3.105   3.434  18.697  0.00  0.00    +0.000 N 
ATOM     18  C   UNL     1       2.146   4.111  19.455  0.00  0.00    +0.000 C 
ATOM     19  O   UNL     1       0.945   3.841  19.364  0.00  0.00    +0.000 OA
BRANCH  17  20
ATOM     20  C   UNL     1       4.543   3.474  18.983  0.00  0.00    +0.000 C 
BRANCH  20  21
ATOM     21  C   UNL     1       5.296   4.561  18.243  0.00  0.00    +0.000 A 
ATOM     22  C   UNL     1       4.896   5.022  16.977  0.00  0.00    +0.000 A 
ATOM     23  C   UNL     1       5.571   6.081  16.357  0.00  0.00    +0.000 A 
ATOM     24  C   UNL     1       6.661   6.674  16.982  0.00  0.00    +0.000 A 
ATOM     25  C   UNL     1       7.087   6.196  18.215  0.00  0.00    +0.000 A 
ATOM     26  F   UNL     1       8.139   6.764  18.818  0.00  0.00    +0.000 F 
ATOM     27  C   UNL     1       6.424   5.146  18.841  0.00  0.00    +0.000 A 
ENDBRANCH  20  21
ENDBRANCH  17  20
ENDBRANCH  15  18
ENDBRANCH   1  15
TORSDOF 6
ENDMDL
MODEL 6
REMARK VINA RESULT:      -7.3      1.640      2.182
REMARK  Name = 
REMARK  7 active torsions:
REMARK  status: ('A' for Active; 'I' for Inactive)
REMARK    1  A    between atoms: C_1  and  N_2
REMARK    2  A    between atoms: N_2  and  C_3
REMARK    3  A    between atoms: C_3  and  C_4
REMARK    4  A    between atoms: C_11  and  C_13
REMARK    5  A    between atoms: C_13  and  C_14
REMARK    6  A    between atoms: C_17  and  S_18
REMARK    7  A    between atoms: S_18  and  N_21
REMARK                            x       y       z     vdW  Elec       q    Type
REMARK                         _______ _______ _______ _____ _____    ______ ____
ROOT
ATOM      1  C   UNL     1       2.200   6.819  19.773  0.00  0.00    +0.000 A 
ATOM      2  C   UNL     1       2.330   7.326  18.501  0.00  0.00    +0.000 A 
ATOM      3  C   UNL     1       1.924   8.682  18.434  0.00  0.00    +0.000 A 
ATOM      4  C   UNL     1       1.331   9.112  19.604  0.00  0.00    +0.000 A 
ATOM      5  S   UNL     1       1.369   7.904  20.810  0.00  0.00    +0.000 S 
ENDROOT
BRANCH   4   6
ATOM      6  S   UNL     1       0.541  10.651  20.000  0.00  0.00    +0.000 S 
ATOM      7  O   UNL     1      -0.879  10.389  20.078  0.00  0.00    +0.000 OA
ATOM      8  O   UNL     1       1.264  11.118  21.171  0.00  0.00    +0.000 OA
BRANCH   6   9
ATOM      9  N   UNL     1       0.807  11.758  18.734  0.00  0.00    +0.000 NA
ATOM     10  C   UNL     1       2.115  12.478  18.716  0.00  0.00    +0.000 C 
ATOM     11  C   UNL     1       2.149  13.614  19.742  0.00  0.00    +0.000 C 
ATOM     12  O   UNL     1       1.077  14.541  19.525  0.00  0.00    +0.000 OA
ATOM     13  C   UNL     1      -0.208  13.898  19.561  0.00  0.00    +0.000 C 
ATOM     14  C   UNL     1      -0.300  12.751  18.543  0.00  0.00    +0.000 C 
ENDBRANCH   6   9
ENDBRANCH   4   6
BRANCH   1  15
ATOM     15  C   UNL     1       2.769   5.535  20.291  0.00  0.00    +0.000 C 
BRANCH  15  18
ATOM     16  C   UNL     1       2.633   2.382  18.130  0.00  0.00    +0.000 C 
ATOM     17  N   UNL     1       3.162   3.537  18.834  0.00  0.00    +0.000 N 
ATOM     18  C   UNL     1       2.243   4.321  19.539  0.00  0.00    +0.000 C 
ATOM     19  O   UNL     1       1.032   4.086  19.500  0.00  0.00    +0.000 OA
BRANCH  17  20
ATOM     20  C   UNL     1       4.606   3.556  19.086  0.00  0.00    +0.000 C 
BRANCH  20  21
ATOM     21  C   UNL     1       5.349   4.670  18.376  0.00  0.00    +0.000 A 
ATOM     22  C   UNL     1       6.485   5.286  18.930  0.00  0.00    +0.000 A 
ATOM     23  C   UNL     1       7.192   6.257  18.211  0.00  0.00    +0.000 A 
ATOM     24  C   UNL     1       6.761   6.640  16.946  0.00  0.00    +0.000 A 
ATOM     25  C   UNL     1       5.616   6.064  16.410  0.00  0.00    +0.000 A 
ATOM     26  F   UNL     1       5.198   6.433  15.193  0.00  0.00    +0.000 F 
ATOM     27  C   UNL     1       4.907   5.097  17.114  0.00  0.00    +0.000 A 
ENDBRANCH  20  21
ENDBRANCH  17  20
ENDBRANCH  15  18
ENDBRANCH   1  15
TORSDOF 6
ENDMDL
MODEL 7
REMARK VINA RESULT:      -7.3      3.408      8.962
REMARK  Name = 
REMARK  7 active torsions:
REMARK  status: ('A' for Active; 'I' for Inactive)
REMARK    1  A    between atoms: C_1  and  N_2
REMARK    2  A    between atoms: N_2  and  C_3
REMARK    3  A    between atoms: C_3  and  C_4
REMARK    4  A    between atoms: C_11  and  C_13
REMARK    5  A    between atoms: C_13  and  C_14
REMARK    6  A    between atoms: C_17  and  S_18
REMARK    7  A    between atoms: S_18  and  N_21
REMARK                            x       y       z     vdW  Elec       q    Type
REMARK                         _______ _______ _______ _____ _____    ______ ____
ROOT
ATOM      1  C   UNL     1       1.194   9.261  19.510  0.00  0.00    +0.000 A 
ATOM      2  C   UNL     1       1.547   9.360  18.184  0.00  0.00    +0.000 A 
ATOM      3  C   UNL     1       2.159   8.171  17.715  0.00  0.00    +0.000 A 
ATOM      4  C   UNL     1       2.417   7.275  18.733  0.00  0.00    +0.000 A 
ATOM      5  S   UNL     1       1.817   7.835  20.231  0.00  0.00    +0.000 S 
ENDROOT
BRANCH   4   6
ATOM      6  S   UNL     1       3.273   5.720  18.713  0.00  0.00    +0.000 S 
ATOM      7  O   UNL     1       4.474   5.910  17.930  0.00  0.00    +0.000 OA
ATOM      8  O   UNL     1       3.365   5.360  20.118  0.00  0.00    +0.000 OA
BRANCH   6   9
ATOM      9  N   UNL     1       2.306   4.560  17.928  0.00  0.00    +0.000 NA
ATOM     10  C   UNL     1       1.283   3.850  18.751  0.00  0.00    +0.000 C 
ATOM     11  C   UNL     1       1.913   2.762  19.623  0.00  0.00    +0.000 C 
ATOM     12  O   UNL     1       2.643   1.818  18.827  0.00  0.00    +0.000 OA
ATOM     13  C   UNL     1       3.661   2.451  18.036  0.00  0.00    +0.000 C 
ATOM     14  C   UNL     1       3.080   3.551  17.133  0.00  0.00    +0.000 C 
ENDBRANCH   6   9
ENDBRANCH   4   6
BRANCH   1  15
ATOM     15  C   UNL     1       0.299  10.187  20.273  0.00  0.00    +0.000 C 
BRANCH  15  18
ATOM     16  C   UNL     1      -0.464  13.712  18.997  0.00  0.00    +0.000 C 
ATOM     17  N   UNL     1      -0.656  12.326  19.388  0.00  0.00    +0.000 N 
ATOM     18  C   UNL     1       0.471  11.639  19.851  0.00  0.00    +0.000 C 
ATOM     19  O   UNL     1       1.588  12.163  19.855  0.00  0.00    +0.000 OA
BRANCH  17  20
ATOM     20  C   UNL     1      -2.033  11.896  19.650  0.00  0.00    +0.000 C 
BRANCH  20  21
ATOM     21  C   UNL     1      -2.811  11.505  18.410  0.00  0.00    +0.000 A 
ATOM     22  C   UNL     1      -4.171  11.824  18.247  0.00  0.00    +0.000 A 
ATOM     23  C   UNL     1      -4.838  11.516  17.055  0.00  0.00    +0.000 A 
ATOM     24  C   UNL     1      -4.165  10.868  16.026  0.00  0.00    +0.000 A 
ATOM     25  C   UNL     1      -2.832  10.514  16.197  0.00  0.00    +0.000 A 
ATOM     26  F   UNL     1      -2.182   9.887  15.209  0.00  0.00    +0.000 F 
ATOM     27  C   UNL     1      -2.159  10.816  17.375  0.00  0.00    +0.000 A 
ENDBRANCH  20  21
ENDBRANCH  17  20
ENDBRANCH  15  18
ENDBRANCH   1  15
TORSDOF 6
ENDMDL
MODEL 8
REMARK VINA RESULT:      -7.3      2.712      4.089
REMARK  Name = 
REMARK  7 active torsions:
REMARK  status: ('A' for Active; 'I' for Inactive)
REMARK    1  A    between atoms: C_1  and  N_2
REMARK    2  A    between atoms: N_2  and  C_3
REMARK    3  A    between atoms: C_3  and  C_4
REMARK    4  A    between atoms: C_11  and  C_13
REMARK    5  A    between atoms: C_13  and  C_14
REMARK    6  A    between atoms: C_17  and  S_18
REMARK    7  A    between atoms: S_18  and  N_21
REMARK                            x       y       z     vdW  Elec       q    Type
REMARK                         _______ _______ _______ _____ _____    ______ ____
ROOT
ATOM      1  C   UNL     1       2.951   7.098  18.378  0.00  0.00    +0.000 A 
ATOM      2  C   UNL     1       2.750   6.500  19.601  0.00  0.00    +0.000 A 
ATOM      3  C   UNL     1       1.848   7.242  20.404  0.00  0.00    +0.000 A 
ATOM      4  C   UNL     1       1.532   8.466  19.848  0.00  0.00    +0.000 A 
ATOM      5  S   UNL     1       2.244   8.659  18.307  0.00  0.00    +0.000 S 
ENDROOT
BRANCH   4   6
ATOM      6  S   UNL     1       0.572   9.812  20.490  0.00  0.00    +0.000 S 
ATOM      7  O   UNL     1      -0.750   9.294  20.765  0.00  0.00    +0.000 OA
ATOM      8  O   UNL     1       1.391  10.336  21.570  0.00  0.00    +0.000 OA
BRANCH   6   9
ATOM      9  N   UNL     1       0.431  11.017  19.297  0.00  0.00    +0.000 NA
ATOM     10  C   UNL     1       0.937  12.381  19.635  0.00  0.00    +0.000 C 
ATOM     11  C   UNL     1      -0.036  13.138  20.541  0.00  0.00    +0.000 C 
ATOM     12  O   UNL     1      -1.335  13.233  19.941  0.00  0.00    +0.000 OA
ATOM     13  C   UNL     1      -1.879  11.942  19.622  0.00  0.00    +0.000 C 
ATOM     14  C   UNL     1      -0.942  11.140  18.705  0.00  0.00    +0.000 C 
ENDBRANCH   6   9
ENDBRANCH   4   6
BRANCH   1  15
ATOM     15  C   UNL     1       3.607   6.490  17.177  0.00  0.00    +0.000 C 
BRANCH  15  18
ATOM     16  C   UNL     1       6.918   4.670  17.779  0.00  0.00    +0.000 C 
ATOM     17  N   UNL     1       5.497   4.897  17.575  0.00  0.00    +0.000 N 
ATOM     18  C   UNL     1       5.089   6.222  17.399  0.00  0.00    +0.000 C 
ATOM     19  O   UNL     1       5.887   7.160  17.490  0.00  0.00    +0.000 OA
BRANCH  17  20
ATOM     20  C   UNL     1       4.693   3.739  17.172  0.00  0.00    +0.000 C 
BRANCH  20  21
ATOM     21  C   UNL     1       3.733   3.245  18.234  0.00  0.00    +0.000 A 
ATOM     22  C   UNL     1       4.120   3.075  19.575  0.00  0.00    +0.000 A 
ATOM     23  C   UNL     1       3.186   2.691  20.545  0.00  0.00    +0.000 A 
ATOM     24  C   UNL     1       1.866   2.451  20.185  0.00  0.00    +0.000 A 
ATOM     25  C   UNL     1       1.485   2.578  18.854  0.00  0.00    +0.000 A 
ATOM     26  F   UNL     1       0.214   2.344  18.504  0.00  0.00    +0.000 F 
ATOM     27  C   UNL     1       2.404   2.960  17.883  0.00  0.00    +0.000 A 
ENDBRANCH  20  21
ENDBRANCH  17  20
ENDBRANCH  15  18
ENDBRANCH   1  15
TORSDOF 6
ENDMDL
MODEL 9
REMARK VINA RESULT:      -7.2      2.487      3.905
REMARK  Name = 
REMARK  7 active torsions:
REMARK  status: ('A' for Active; 'I' for Inactive)
REMARK    1  A    between atoms: C_1  and  N_2
REMARK    2  A    between atoms: N_2  and  C_3
REMARK    3  A    between atoms: C_3  and  C_4
REMARK    4  A    between atoms: C_11  and  C_13
REMARK    5  A    between atoms: C_13  and  C_14
REMARK    6  A    between atoms: C_17  and  S_18
REMARK    7  A    between atoms: S_18  and  N_21
REMARK                            x       y       z     vdW  Elec       q    Type
REMARK                         _______ _______ _______ _____ _____    ______ ____
ROOT
ATOM      1  C   UNL     1       2.479   7.490  18.554  0.00  0.00    +0.000 A 
ATOM      2  C   UNL     1       2.330   7.080  19.859  0.00  0.00    +0.000 A 
ATOM      3  C   UNL     1       1.535   7.984  20.605  0.00  0.00    +0.000 A 
ATOM      4  C   UNL     1       1.253   9.140  19.903  0.00  0.00    +0.000 A 
ATOM      5  S   UNL     1       1.863   9.072  18.309  0.00  0.00    +0.000 S 
ENDROOT
BRANCH   4   6
ATOM      6  S   UNL     1       0.423  10.624  20.409  0.00  0.00    +0.000 S 
ATOM      7  O   UNL     1      -0.955  10.502  19.987  0.00  0.00    +0.000 OA
ATOM      8  O   UNL     1       0.748  10.737  21.821  0.00  0.00    +0.000 OA
BRANCH   6   9
ATOM      9  N   UNL     1       1.111  11.953  19.598  0.00  0.00    +0.000 NA
ATOM     10  C   UNL     1       1.874  12.939  20.419  0.00  0.00    +0.000 C 
ATOM     11  C   UNL     1       0.942  13.871  21.196  0.00  0.00    +0.000 C 
ATOM     12  O   UNL     1       0.045  14.560  20.314  0.00  0.00    +0.000 OA
ATOM     13  C   UNL     1      -0.734  13.651  19.519  0.00  0.00    +0.000 C 
ATOM     14  C   UNL     1       0.155  12.694  18.711  0.00  0.00    +0.000 C 
ENDBRANCH   6   9
ENDBRANCH   4   6
BRANCH   1  15
ATOM     15  C   UNL     1       3.010   6.680  17.412  0.00  0.00    +0.000 C 
BRANCH  15  18
ATOM     16  C   UNL     1       6.239   4.701  17.951  0.00  0.00    +0.000 C 
ATOM     17  N   UNL     1       4.825   5.000  17.801  0.00  0.00    +0.000 N 
ATOM     18  C   UNL     1       4.483   6.338  17.579  0.00  0.00    +0.000 C 
ATOM     19  O   UNL     1       5.335   7.231  17.588  0.00  0.00    +0.000 OA
BRANCH  17  20
ATOM     20  C   UNL     1       3.939   3.874  17.491  0.00  0.00    +0.000 C 
BRANCH  20  21
ATOM     21  C   UNL     1       2.873   3.612  18.536  0.00  0.00    +0.000 A 
ATOM     22  C   UNL     1       1.537   3.340  18.193  0.00  0.00    +0.000 A 
ATOM     23  C   UNL     1       0.596   3.027  19.182  0.00  0.00    +0.000 A 
ATOM     24  C   UNL     1       0.971   3.003  20.519  0.00  0.00    +0.000 A 
ATOM     25  C   UNL     1       2.281   3.311  20.868  0.00  0.00    +0.000 A 
ATOM     26  F   UNL     1       2.644   3.292  22.157  0.00  0.00    +0.000 F 
ATOM     27  C   UNL     1       3.224   3.622  19.896  0.00  0.00    +0.000 A 
ENDBRANCH  20  21
ENDBRANCH  17  20
ENDBRANCH  15  18
ENDBRANCH   1  15
TORSDOF 6
ENDMDL
