MODEL 1
REMARK VINA RESULT:      -7.3      0.000      0.000
REMARK  Name = 
REMARK  6 active torsions:
REMARK  status: ('A' for Active; 'I' for Inactive)
REMARK    1  A    between atoms: C_1  and  C_2
REMARK    2  A    between atoms: C_6  and  C_7
REMARK    3  A    between atoms: C_15  and  C_16
REMARK    4  A    between atoms: C_16  and  O_17
REMARK    5  A    between atoms: O_17  and  C_18
REMARK    6  A    between atoms: C_18  and  C_19
REMARK                            x       y       z     vdW  Elec       q    Type
REMARK                         _______ _______ _______ _____ _____    ______ ____
ROOT
ATOM      1  C   UNL     1       2.149   8.254  18.940  0.00  0.00    +0.000 C 
ATOM      2  O   UNL     1       2.774   8.782  18.019  0.00  0.00    +0.000 OA
ATOM      3  N   UNL     1       2.362   6.912  19.319  0.00  0.00    +0.000 N 
ATOM      4  C   UNL     1       1.629   6.284  20.434  0.00  0.00    +0.000 C 
ATOM      5  C   UNL     1       2.229   4.994  20.977  0.00  0.00    +0.000 C 
ATOM      6  N   UNL     1       2.835   4.205  19.939  0.00  0.00    +0.000 N 
ATOM      7  C   UNL     1       3.263   2.917  20.036  0.00  0.00    +0.000 A 
ATOM      8  N   UNL     1       3.860   2.535  18.930  0.00  0.00    +0.000 NA
ATOM      9  C   UNL     1       3.818   3.632  18.090  0.00  0.00    +0.000 A 
ATOM     10  C   UNL     1       3.169   4.684  18.710  0.00  0.00    +0.000 A 
ATOM     11  C   UNL     1       2.873   6.062  18.251  0.00  0.00    +0.000 C 
ENDROOT
BRANCH   1  17
ATOM     12  C   UNL     1       0.078   9.526  23.138  0.00  0.00    +0.000 C 
ATOM     13  C   UNL     1       0.109   9.688  21.648  0.00  0.00    +0.000 A 
ATOM     14  C   UNL     1      -0.767  10.539  20.987  0.00  0.00    +0.000 A 
ATOM     15  C   UNL     1      -0.700  10.623  19.594  0.00  0.00    +0.000 A 
ATOM     16  C   UNL     1       0.246   9.873  18.904  0.00  0.00    +0.000 A 
ATOM     17  C   UNL     1       1.108   9.077  19.639  0.00  0.00    +0.000 A 
ATOM     18  N   UNL     1       1.037   8.959  20.992  0.00  0.00    +0.000 NA
ENDBRANCH   1  17
BRANCH   9  19
ATOM     19  C   UNL     1       4.488   3.607  16.755  0.00  0.00    +0.000 C 
BRANCH  19  20
ATOM     20  O   UNL     1       5.328   4.747  16.523  0.00  0.00    +0.000 OA
BRANCH  20  21
ATOM     21  C   UNL     1       6.517   4.708  17.310  0.00  0.00    +0.000 C 
BRANCH  21  22
ATOM     22  C   UNL     1       6.643   6.008  18.043  0.00  0.00    +0.000 C 
ATOM     23  C   UNL     1       7.910   6.358  18.785  0.00  0.00    +0.000 C 
ATOM     24  C   UNL     1       7.558   7.089  17.521  0.00  0.00    +0.000 C 
ENDBRANCH  21  22
ENDBRANCH  20  21
ENDBRANCH  19  20
ENDBRANCH   9  19
TORSDOF 5
ENDMDL
MODEL 2
REMARK VINA RESULT:      -7.1      1.341      1.866
REMARK  Name = 
REMARK  6 active torsions:
REMARK  status: ('A' for Active; 'I' for Inactive)
REMARK    1  A    between atoms: C_1  and  C_2
REMARK    2  A    between atoms: C_6  and  C_7
REMARK    3  A    between atoms: C_15  and  C_16
REMARK    4  A    between atoms: C_16  and  O_17
REMARK    5  A    between atoms: O_17  and  C_18
REMARK    6  A    between atoms: C_18  and  C_19
REMARK                            x       y       z     vdW  Elec       q    Type
REMARK                         _______ _______ _______ _____ _____    ______ ____
ROOT
ATOM      1  C   UNL     1       2.211   8.268  18.944  0.00  0.00    +0.000 C 
ATOM      2  O   UNL     1       2.860   8.814  18.050  0.00  0.00    +0.000 OA
ATOM      3  N   UNL     1       2.433   6.927  19.319  0.00  0.00    +0.000 N 
ATOM      4  C   UNL     1       1.670   6.278  20.402  0.00  0.00    +0.000 C 
ATOM      5  C   UNL     1       2.271   4.993  20.956  0.00  0.00    +0.000 C 
ATOM      6  N   UNL     1       2.927   4.223  19.935  0.00  0.00    +0.000 N 
ATOM      7  C   UNL     1       3.372   2.941  20.036  0.00  0.00    +0.000 A 
ATOM      8  N   UNL     1       4.014   2.578  18.949  0.00  0.00    +0.000 NA
ATOM      9  C   UNL     1       3.985   3.681  18.117  0.00  0.00    +0.000 A 
ATOM     10  C   UNL     1       3.297   4.718  18.722  0.00  0.00    +0.000 A 
ATOM     11  C   UNL     1       2.995   6.094  18.263  0.00  0.00    +0.000 C 
ENDROOT
BRANCH   1  17
ATOM     12  C   UNL     1       0.038   9.553  23.085  0.00  0.00    +0.000 C 
ATOM     13  C   UNL     1       0.085   9.686  21.593  0.00  0.00    +0.000 A 
ATOM     14  C   UNL     1      -0.810  10.492  20.902  0.00  0.00    +0.000 A 
ATOM     15  C   UNL     1      -0.726  10.550  19.509  0.00  0.00    +0.000 A 
ATOM     16  C   UNL     1       0.255   9.820  18.848  0.00  0.00    +0.000 A 
ATOM     17  C   UNL     1       1.133   9.069  19.611  0.00  0.00    +0.000 A 
ATOM     18  N   UNL     1       1.047   8.976  20.965  0.00  0.00    +0.000 NA
ENDBRANCH   1  17
BRANCH   9  19
ATOM     19  C   UNL     1       4.702   3.678  16.808  0.00  0.00    +0.000 C 
BRANCH  19  20
ATOM     20  O   UNL     1       5.931   4.419  16.834  0.00  0.00    +0.000 OA
BRANCH  20  21
ATOM     21  C   UNL     1       6.796   4.063  15.757  0.00  0.00    +0.000 C 
BRANCH  21  22
ATOM     22  C   UNL     1       6.212   4.593  14.485  0.00  0.00    +0.000 C 
ATOM     23  C   UNL     1       7.082   4.836  13.276  0.00  0.00    +0.000 C 
ATOM     24  C   UNL     1       6.097   3.701  13.272  0.00  0.00    +0.000 C 
ENDBRANCH  21  22
ENDBRANCH  20  21
ENDBRANCH  19  20
ENDBRANCH   9  19
TORSDOF 5
ENDMDL
MODEL 3
REMARK VINA RESULT:      -7.0      2.338      3.305
REMARK  Name = 
REMARK  6 active torsions:
REMARK  status: ('A' for Active; 'I' for Inactive)
REMARK    1  A    between atoms: C_1  and  C_2
REMARK    2  A    between atoms: C_6  and  C_7
REMARK    3  A    between atoms: C_15  and  C_16
REMARK    4  A    between atoms: C_16  and  O_17
REMARK    5  A    between atoms: O_17  and  C_18
REMARK    6  A    between atoms: C_18  and  C_19
REMARK                            x       y       z     vdW  Elec       q    Type
REMARK                         _______ _______ _______ _____ _____    ______ ____
ROOT
ATOM      1  C   UNL     1       2.035   9.462  18.060  0.00  0.00    +0.000 C 
ATOM      2  O   UNL     1       2.658  10.173  17.271  0.00  0.00    +0.000 OA
ATOM      3  N   UNL     1       2.503   8.191  18.454  0.00  0.00    +0.000 N 
ATOM      4  C   UNL     1       1.768   7.347  19.415  0.00  0.00    +0.000 C 
ATOM      5  C   UNL     1       2.565   6.209  20.040  0.00  0.00    +0.000 C 
ATOM      6  N   UNL     1       3.511   5.645  19.116  0.00  0.00    +0.000 N 
ATOM      7  C   UNL     1       4.218   4.493  19.270  0.00  0.00    +0.000 A 
ATOM      8  N   UNL     1       5.068   4.325  18.282  0.00  0.00    +0.000 NA
ATOM      9  C   UNL     1       4.901   5.425  17.462  0.00  0.00    +0.000 A 
ATOM     10  C   UNL     1       3.920   6.257  17.970  0.00  0.00    +0.000 A 
ATOM     11  C   UNL     1       3.378   7.547  17.483  0.00  0.00    +0.000 C 
ENDROOT
BRANCH   1  17
ATOM     12  C   UNL     1      -2.730   9.979  17.319  0.00  0.00    +0.000 C 
ATOM     13  C   UNL     1      -1.562  10.228  18.224  0.00  0.00    +0.000 A 
ATOM     14  C   UNL     1      -1.705  10.883  19.440  0.00  0.00    +0.000 A 
ATOM     15  C   UNL     1      -0.569  11.104  20.223  0.00  0.00    +0.000 A 
ATOM     16  C   UNL     1       0.670  10.651  19.782  0.00  0.00    +0.000 A 
ATOM     17  C   UNL     1       0.723   9.974  18.575  0.00  0.00    +0.000 A 
ATOM     18  N   UNL     1      -0.366   9.777  17.786  0.00  0.00    +0.000 NA
ENDBRANCH   1  17
BRANCH   9  19
ATOM     19  C   UNL     1       5.770   5.633  16.265  0.00  0.00    +0.000 C 
BRANCH  19  20
ATOM     20  O   UNL     1       6.065   4.418  15.562  0.00  0.00    +0.000 OA
BRANCH  20  21
ATOM     21  C   UNL     1       6.480   4.661  14.219  0.00  0.00    +0.000 C 
BRANCH  21  22
ATOM     22  C   UNL     1       6.136   3.461  13.392  0.00  0.00    +0.000 C 
ATOM     23  C   UNL     1       5.139   3.559  12.264  0.00  0.00    +0.000 C 
ATOM     24  C   UNL     1       6.597   3.370  11.957  0.00  0.00    +0.000 C 
ENDBRANCH  21  22
ENDBRANCH  20  21
ENDBRANCH  19  20
ENDBRANCH   9  19
TORSDOF 5
ENDMDL
MODEL 4
REMARK VINA RESULT:      -7.0      0.748      1.505
REMARK  Name = 
REMARK  6 active torsions:
REMARK  status: ('A' for Active; 'I' for Inactive)
REMARK    1  A    between atoms: C_1  and  C_2
REMARK    2  A    between atoms: C_6  and  C_7
REMARK    3  A    between atoms: C_15  and  C_16
REMARK    4  A    between atoms: C_16  and  O_17
REMARK    5  A    between atoms: O_17  and  C_18
REMARK    6  A    between atoms: C_18  and  C_19
REMARK                            x       y       z     vdW  Elec       q    Type
REMARK                         _______ _______ _______ _____ _____    ______ ____
ROOT
ATOM      1  C   UNL     1       2.186   8.062  19.197  0.00  0.00    +0.000 C 
ATOM      2  O   UNL     1       2.762   8.648  18.279  0.00  0.00    +0.000 OA
ATOM      3  N   UNL     1       2.402   6.695  19.466  0.00  0.00    +0.000 N 
ATOM      4  C   UNL     1       1.729   5.997  20.578  0.00  0.00    +0.000 C 
ATOM      5  C   UNL     1       2.341   4.665  20.990  0.00  0.00    +0.000 C 
ATOM      6  N   UNL     1       2.871   3.946  19.863  0.00  0.00    +0.000 N 
ATOM      7  C   UNL     1       3.285   2.650  19.842  0.00  0.00    +0.000 A 
ATOM      8  N   UNL     1       3.807   2.341  18.676  0.00  0.00    +0.000 NA
ATOM      9  C   UNL     1       3.730   3.496  17.920  0.00  0.00    +0.000 A 
ATOM     10  C   UNL     1       3.136   4.508  18.652  0.00  0.00    +0.000 A 
ATOM     11  C   UNL     1       2.834   5.918  18.311  0.00  0.00    +0.000 C 
ENDROOT
BRANCH   1  17
ATOM     12  C   UNL     1      -1.483  11.234  19.256  0.00  0.00    +0.000 C 
ATOM     13  C   UNL     1      -0.554  10.367  20.051  0.00  0.00    +0.000 A 
ATOM     14  C   UNL     1      -0.616  10.308  21.437  0.00  0.00    +0.000 A 
ATOM     15  C   UNL     1       0.298   9.497  22.117  0.00  0.00    +0.000 A 
ATOM     16  C   UNL     1       1.230   8.759  21.398  0.00  0.00    +0.000 A 
ATOM     17  C   UNL     1       1.203   8.845  20.016  0.00  0.00    +0.000 A 
ATOM     18  N   UNL     1       0.343   9.651  19.339  0.00  0.00    +0.000 NA
ENDBRANCH   1  17
BRANCH   9  19
ATOM     19  C   UNL     1       4.316   3.559  16.548  0.00  0.00    +0.000 C 
BRANCH  19  20
ATOM     20  O   UNL     1       5.118   4.728  16.329  0.00  0.00    +0.000 OA
BRANCH  20  21
ATOM     21  C   UNL     1       6.493   4.501  16.635  0.00  0.00    +0.000 C 
BRANCH  21  22
ATOM     22  C   UNL     1       7.171   5.828  16.783  0.00  0.00    +0.000 C 
ATOM     23  C   UNL     1       6.419   7.027  17.306  0.00  0.00    +0.000 C 
ATOM     24  C   UNL     1       7.472   6.377  18.157  0.00  0.00    +0.000 C 
ENDBRANCH  21  22
ENDBRANCH  20  21
ENDBRANCH  19  20
ENDBRANCH   9  19
TORSDOF 5
ENDMDL
MODEL 5
REMARK VINA RESULT:      -6.9      2.183      7.603
REMARK  Name = 
REMARK  6 active torsions:
REMARK  status: ('A' for Active; 'I' for Inactive)
REMARK    1  A    between atoms: C_1  and  C_2
REMARK    2  A    between atoms: C_6  and  C_7
REMARK    3  A    between atoms: C_15  and  C_16
REMARK    4  A    between atoms: C_16  and  O_17
REMARK    5  A    between atoms: O_17  and  C_18
REMARK    6  A    between atoms: C_18  and  C_19
REMARK                            x       y       z     vdW  Elec       q    Type
REMARK                         _______ _______ _______ _____ _____    ______ ____
ROOT
ATOM      1  C   UNL     1       2.107   8.315  18.122  0.00  0.00    +0.000 C 
ATOM      2  O   UNL     1       1.961   9.069  17.159  0.00  0.00    +0.000 OA
ATOM      3  N   UNL     1       1.553   8.599  19.388  0.00  0.00    +0.000 N 
ATOM      4  C   UNL     1       1.709   7.686  20.536  0.00  0.00    +0.000 C 
ATOM      5  C   UNL     1       0.750   7.913  21.696  0.00  0.00    +0.000 C 
ATOM      6  N   UNL     1       0.450   9.307  21.881  0.00  0.00    +0.000 N 
ATOM      7  C   UNL     1      -0.187   9.874  22.941  0.00  0.00    +0.000 A 
ATOM      8  N   UNL     1      -0.386  11.157  22.742  0.00  0.00    +0.000 NA
ATOM      9  C   UNL     1       0.141  11.421  21.492  0.00  0.00    +0.000 A 
ATOM     10  C   UNL     1       0.677  10.269  20.945  0.00  0.00    +0.000 A 
ATOM     11  C   UNL     1       1.342  10.018  19.645  0.00  0.00    +0.000 C 
ENDROOT
BRANCH   1  17
ATOM     12  C   UNL     1       2.231   3.474  17.835  0.00  0.00    +0.000 C 
ATOM     13  C   UNL     1       3.001   4.759  17.787  0.00  0.00    +0.000 A 
ATOM     14  C   UNL     1       4.373   4.783  17.574  0.00  0.00    +0.000 A 
ATOM     15  C   UNL     1       5.031   6.015  17.566  0.00  0.00    +0.000 A 
ATOM     16  C   UNL     1       4.304   7.185  17.752  0.00  0.00    +0.000 A 
ATOM     17  C   UNL     1       2.934   7.080  17.922  0.00  0.00    +0.000 A 
ATOM     18  N   UNL     1       2.281   5.889  17.964  0.00  0.00    +0.000 NA
ENDBRANCH   1  17
BRANCH   9  19
ATOM     19  C   UNL     1       0.019  12.775  20.874  0.00  0.00    +0.000 C 
BRANCH  19  20
ATOM     20  O   UNL     1      -1.217  12.966  20.170  0.00  0.00    +0.000 OA
BRANCH  20  21
ATOM     21  C   UNL     1      -1.102  12.650  18.784  0.00  0.00    +0.000 C 
BRANCH  21  22
ATOM     22  C   UNL     1      -2.118  11.603  18.450  0.00  0.00    +0.000 C 
ATOM     23  C   UNL     1      -2.473  11.299  17.015  0.00  0.00    +0.000 C 
ATOM     24  C   UNL     1      -1.688  10.301  17.818  0.00  0.00    +0.000 C 
ENDBRANCH  21  22
ENDBRANCH  20  21
ENDBRANCH  19  20
ENDBRANCH   9  19
TORSDOF 5
ENDMDL
MODEL 6
REMARK VINA RESULT:      -6.9      1.628      2.405
REMARK  Name = 
REMARK  6 active torsions:
REMARK  status: ('A' for Active; 'I' for Inactive)
REMARK    1  A    between atoms: C_1  and  C_2
REMARK    2  A    between atoms: C_6  and  C_7
REMARK    3  A    between atoms: C_15  and  C_16
REMARK    4  A    between atoms: C_16  and  O_17
REMARK    5  A    between atoms: O_17  and  C_18
REMARK    6  A    between atoms: C_18  and  C_19
REMARK                            x       y       z     vdW  Elec       q    Type
REMARK                         _______ _______ _______ _____ _____    ______ ____
ROOT
ATOM      1  C   UNL     1       2.104   7.954  19.359  0.00  0.00    +0.000 C 
ATOM      2  O   UNL     1       2.655   8.510  18.407  0.00  0.00    +0.000 OA
ATOM      3  N   UNL     1       2.278   6.580  19.627  0.00  0.00    +0.000 N 
ATOM      4  C   UNL     1       1.635   5.918  20.778  0.00  0.00    +0.000 C 
ATOM      5  C   UNL     1       2.213   4.564  21.168  0.00  0.00    +0.000 C 
ATOM      6  N   UNL     1       2.654   3.817  20.022  0.00  0.00    +0.000 N 
ATOM      7  C   UNL     1       3.012   2.505  19.989  0.00  0.00    +0.000 A 
ATOM      8  N   UNL     1       3.460   2.167  18.801  0.00  0.00    +0.000 NA
ATOM      9  C   UNL     1       3.392   3.320  18.041  0.00  0.00    +0.000 A 
ATOM     10  C   UNL     1       2.879   4.360  18.794  0.00  0.00    +0.000 A 
ATOM     11  C   UNL     1       2.617   5.779  18.458  0.00  0.00    +0.000 C 
ENDROOT
BRANCH   1  17
ATOM     12  C   UNL     1      -1.423  11.276  19.581  0.00  0.00    +0.000 C 
ATOM     13  C   UNL     1      -0.491  10.375  20.334  0.00  0.00    +0.000 A 
ATOM     14  C   UNL     1      -0.484  10.326  21.722  0.00  0.00    +0.000 A 
ATOM     15  C   UNL     1       0.429   9.483  22.360  0.00  0.00    +0.000 A 
ATOM     16  C   UNL     1       1.293   8.702  21.600  0.00  0.00    +0.000 A 
ATOM     17  C   UNL     1       1.197   8.781  20.221  0.00  0.00    +0.000 A 
ATOM     18  N   UNL     1       0.338   9.618  19.583  0.00  0.00    +0.000 NA
ENDBRANCH   1  17
BRANCH   9  19
ATOM     19  C   UNL     1       3.908   3.351  16.640  0.00  0.00    +0.000 C 
BRANCH  19  20
ATOM     20  O   UNL     1       4.938   4.329  16.438  0.00  0.00    +0.000 OA
BRANCH  20  21
ATOM     21  C   UNL     1       5.998   3.834  15.623  0.00  0.00    +0.000 C 
BRANCH  21  22
ATOM     22  C   UNL     1       5.898   4.473  14.273  0.00  0.00    +0.000 C 
ATOM     23  C   UNL     1       7.046   4.404  13.297  0.00  0.00    +0.000 C 
ATOM     24  C   UNL     1       5.794   3.618  13.033  0.00  0.00    +0.000 C 
ENDBRANCH  21  22
ENDBRANCH  20  21
ENDBRANCH  19  20
ENDBRANCH   9  19
TORSDOF 5
ENDMDL
MODEL 7
REMARK VINA RESULT:      -6.9      1.717      2.526
REMARK  Name = 
REMARK  6 active torsions:
REMARK  status: ('A' for Active; 'I' for Inactive)
REMARK    1  A    between atoms: C_1  and  C_2
REMARK    2  A    between atoms: C_6  and  C_7
REMARK    3  A    between atoms: C_15  and  C_16
REMARK    4  A    between atoms: C_16  and  O_17
REMARK    5  A    between atoms: O_17  and  C_18
REMARK    6  A    between atoms: C_18  and  C_19
REMARK                            x       y       z     vdW  Elec       q    Type
REMARK                         _______ _______ _______ _____ _____    ______ ____
ROOT
ATOM      1  C   UNL     1       1.925   8.979  18.367  0.00  0.00    +0.000 C 
ATOM      2  O   UNL     1       2.609   9.426  17.446  0.00  0.00    +0.000 OA
ATOM      3  N   UNL     1       2.152   7.702  18.919  0.00  0.00    +0.000 N 
ATOM      4  C   UNL     1       1.346   7.174  20.036  0.00  0.00    +0.000 C 
ATOM      5  C   UNL     1       1.941   5.984  20.777  0.00  0.00    +0.000 C 
ATOM      6  N   UNL     1       2.665   5.110  19.895  0.00  0.00    +0.000 N 
ATOM      7  C   UNL     1       3.129   3.863  20.180  0.00  0.00    +0.000 A 
ATOM      8  N   UNL     1       3.835   3.383  19.181  0.00  0.00    +0.000 NA
ATOM      9  C   UNL     1       3.829   4.373  18.216  0.00  0.00    +0.000 A 
ATOM     10  C   UNL     1       3.089   5.459  18.650  0.00  0.00    +0.000 A 
ATOM     11  C   UNL     1       2.786   6.759  18.007  0.00  0.00    +0.000 C 
ENDROOT
BRANCH   1  17
ATOM     12  C   UNL     1      -2.614  10.565  17.722  0.00  0.00    +0.000 C 
ATOM     13  C   UNL     1      -1.377  10.595  18.568  0.00  0.00    +0.000 A 
ATOM     14  C   UNL     1      -1.302  11.356  19.727  0.00  0.00    +0.000 A 
ATOM     15  C   UNL     1      -0.110  11.358  20.455  0.00  0.00    +0.000 A 
ATOM     16  C   UNL     1       0.964  10.589  20.019  0.00  0.00    +0.000 A 
ATOM     17  C   UNL     1       0.797   9.829  18.874  0.00  0.00    +0.000 A 
ATOM     18  N   UNL     1      -0.345   9.838  18.136  0.00  0.00    +0.000 NA
ENDBRANCH   1  17
BRANCH   9  19
ATOM     19  C   UNL     1       4.614   4.225  16.955  0.00  0.00    +0.000 C 
BRANCH  19  20
ATOM     20  O   UNL     1       5.890   4.881  17.003  0.00  0.00    +0.000 OA
BRANCH  20  21
ATOM     21  C   UNL     1       6.785   4.389  16.008  0.00  0.00    +0.000 C 
BRANCH  21  22
ATOM     22  C   UNL     1       6.273   4.802  14.663  0.00  0.00    +0.000 C 
ATOM     23  C   UNL     1       7.195   4.866  13.470  0.00  0.00    +0.000 C 
ATOM     24  C   UNL     1       6.153   3.788  13.551  0.00  0.00    +0.000 C 
ENDBRANCH  21  22
ENDBRANCH  20  21
ENDBRANCH  19  20
ENDBRANCH   9  19
TORSDOF 5
ENDMDL
MODEL 8
REMARK VINA RESULT:      -6.8      1.568      2.138
REMARK  Name = 
REMARK  6 active torsions:
REMARK  status: ('A' for Active; 'I' for Inactive)
REMARK    1  A    between atoms: C_1  and  C_2
REMARK    2  A    between atoms: C_6  and  C_7
REMARK    3  A    between atoms: C_15  and  C_16
REMARK    4  A    between atoms: C_16  and  O_17
REMARK    5  A    between atoms: O_17  and  C_18
REMARK    6  A    between atoms: C_18  and  C_19
REMARK                            x       y       z     vdW  Elec       q    Type
REMARK                         _______ _______ _______ _____ _____    ______ ____
ROOT
ATOM      1  C   UNL     1       1.565   9.995  18.438  0.00  0.00    +0.000 C 
ATOM      2  O   UNL     1       2.224  10.383  17.472  0.00  0.00    +0.000 OA
ATOM      3  N   UNL     1       1.779   8.735  19.034  0.00  0.00    +0.000 N 
ATOM      4  C   UNL     1       1.004   8.277  20.203  0.00  0.00    +0.000 C 
ATOM      5  C   UNL     1       1.595   7.101  20.969  0.00  0.00    +0.000 C 
ATOM      6  N   UNL     1       2.258   6.170  20.096  0.00  0.00    +0.000 N 
ATOM      7  C   UNL     1       2.699   4.923  20.414  0.00  0.00    +0.000 A 
ATOM      8  N   UNL     1       3.350   4.382  19.410  0.00  0.00    +0.000 NA
ATOM      9  C   UNL     1       3.331   5.331  18.405  0.00  0.00    +0.000 A 
ATOM     10  C   UNL     1       2.641   6.456  18.822  0.00  0.00    +0.000 A 
ATOM     11  C   UNL     1       2.348   7.737  18.137  0.00  0.00    +0.000 C 
ENDROOT
BRANCH   1  17
ATOM     12  C   UNL     1       0.302  13.533  21.506  0.00  0.00    +0.000 C 
ATOM     13  C   UNL     1      -0.129  12.591  20.423  0.00  0.00    +0.000 A 
ATOM     14  C   UNL     1      -1.434  12.571  19.948  0.00  0.00    +0.000 A 
ATOM     15  C   UNL     1      -1.774  11.649  18.955  0.00  0.00    +0.000 A 
ATOM     16  C   UNL     1      -0.804  10.789  18.452  0.00  0.00    +0.000 A 
ATOM     17  C   UNL     1       0.483  10.897  18.953  0.00  0.00    +0.000 A 
ATOM     18  N   UNL     1       0.825  11.766  19.940  0.00  0.00    +0.000 NA
ENDBRANCH   1  17
BRANCH   9  19
ATOM     19  C   UNL     1       4.060   5.109  17.121  0.00  0.00    +0.000 C 
BRANCH  19  20
ATOM     20  O   UNL     1       5.475   5.327  17.228  0.00  0.00    +0.000 OA
BRANCH  20  21
ATOM     21  C   UNL     1       5.822   6.700  17.055  0.00  0.00    +0.000 C 
BRANCH  21  22
ATOM     22  C   UNL     1       7.307   6.834  17.190  0.00  0.00    +0.000 C 
ATOM     23  C   UNL     1       7.922   8.097  17.742  0.00  0.00    +0.000 C 
ATOM     24  C   UNL     1       7.948   6.836  18.557  0.00  0.00    +0.000 C 
ENDBRANCH  21  22
ENDBRANCH  20  21
ENDBRANCH  19  20
ENDBRANCH   9  19
TORSDOF 5
ENDMDL
MODEL 9
REMARK VINA RESULT:      -6.8      2.183      2.976
REMARK  Name = 
REMARK  6 active torsions:
REMARK  status: ('A' for Active; 'I' for Inactive)
REMARK    1  A    between atoms: C_1  and  C_2
REMARK    2  A    between atoms: C_6  and  C_7
REMARK    3  A    between atoms: C_15  and  C_16
REMARK    4  A    between atoms: C_16  and  O_17
REMARK    5  A    between atoms: O_17  and  C_18
REMARK    6  A    between atoms: C_18  and  C_19
REMARK                            x       y       z     vdW  Elec       q    Type
REMARK                         _______ _______ _______ _____ _____    ______ ____
ROOT
ATOM      1  C   UNL     1       1.875   9.771  18.238  0.00  0.00    +0.000 C 
ATOM      2  O   UNL     1       2.522  10.452  17.440  0.00  0.00    +0.000 OA
ATOM      3  N   UNL     1       2.291   8.482  18.632  0.00  0.00    +0.000 N 
ATOM      4  C   UNL     1       1.528   7.674  19.602  0.00  0.00    +0.000 C 
ATOM      5  C   UNL     1       2.279   6.504  20.223  0.00  0.00    +0.000 C 
ATOM      6  N   UNL     1       3.192   5.896  19.293  0.00  0.00    +0.000 N 
ATOM      7  C   UNL     1       3.849   4.715  19.445  0.00  0.00    +0.000 A 
ATOM      8  N   UNL     1       4.681   4.506  18.450  0.00  0.00    +0.000 NA
ATOM      9  C   UNL     1       4.556   5.610  17.627  0.00  0.00    +0.000 A 
ATOM     10  C   UNL     1       3.617   6.486  18.142  0.00  0.00    +0.000 A 
ATOM     11  C   UNL     1       3.128   7.797  17.655  0.00  0.00    +0.000 C 
ENDROOT
BRANCH   1  17
ATOM     12  C   UNL     1      -0.370  12.238  21.759  0.00  0.00    +0.000 C 
ATOM     13  C   UNL     1      -0.491  11.521  20.448  0.00  0.00    +0.000 A 
ATOM     14  C   UNL     1      -1.708  11.404  19.788  0.00  0.00    +0.000 A 
ATOM     15  C   UNL     1      -1.753  10.700  18.582  0.00  0.00    +0.000 A 
ATOM     16  C   UNL     1      -0.588  10.150  18.062  0.00  0.00    +0.000 A 
ATOM     17  C   UNL     1       0.591  10.341  18.762  0.00  0.00    +0.000 A 
ATOM     18  N   UNL     1       0.650  10.996  19.952  0.00  0.00    +0.000 NA
ENDBRANCH   1  17
BRANCH   9  19
ATOM     19  C   UNL     1       5.423   5.776  16.423  0.00  0.00    +0.000 C 
BRANCH  19  20
ATOM     20  O   UNL     1       5.505   4.592  15.618  0.00  0.00    +0.000 OA
BRANCH  20  21
ATOM     21  C   UNL     1       5.650   4.893  14.231  0.00  0.00    +0.000 C 
BRANCH  21  22
ATOM     22  C   UNL     1       5.904   3.616  13.492  0.00  0.00    +0.000 C 
ATOM     23  C   UNL     1       5.226   3.338  12.173  0.00  0.00    +0.000 C 
ATOM     24  C   UNL     1       6.700   3.625  12.209  0.00  0.00    +0.000 C 
ENDBRANCH  21  22
ENDBRANCH  20  21
ENDBRANCH  19  20
ENDBRANCH   9  19
TORSDOF 5
ENDMDL
