MODEL 1
REMARK VINA RESULT:      -8.0      0.000      0.000
REMARK  Name = 
REMARK  7 active torsions:
REMARK  status: ('A' for Active; 'I' for Inactive)
REMARK    1  A    between atoms: C_1  and  C_2
REMARK    2  A    between atoms: C_2  and  C_3
REMARK    3  A    between atoms: C_2  and  C_4
REMARK    4  A    between atoms: C_4  and  C_5
REMARK    5  A    between atoms: C_5  and  N_6
REMARK    6  A    between atoms: C_12  and  C_13
REMARK    7  A    between atoms: N_15  and  C_16
REMARK                            x       y       z     vdW  Elec       q    Type
REMARK                         _______ _______ _______ _____ _____    ______ ____
ROOT
ATOM      1  N   UNL     1       4.999   4.823  17.192  0.00  0.00    +0.000 N 
ATOM      2  C   UNL     1       4.771   6.171  16.940  0.00  0.00    +0.000 A 
ATOM      3  O   UNL     1       5.347   6.819  16.088  0.00  0.00    +0.000 OA
ATOM      4  C   UNL     1       3.757   6.832  17.774  0.00  0.00    +0.000 A 
ATOM      5  C   UNL     1       3.420   8.147  17.444  0.00  0.00    +0.000 A 
ATOM      6  C   UNL     1       2.474   8.834  18.196  0.00  0.00    +0.000 A 
ATOM      7  C   UNL     1       1.855   8.198  19.281  0.00  0.00    +0.000 A 
ATOM      8  C   UNL     1       2.203   6.865  19.595  0.00  0.00    +0.000 A 
ATOM      9  C   UNL     1       3.153   6.156  18.843  0.00  0.00    +0.000 A 
ATOM     10  N   UNL     1       3.543   4.813  19.060  0.00  0.00    +0.000 N 
ATOM     11  C   UNL     1       3.191   3.855  19.992  0.00  0.00    +0.000 A 
ATOM     12  S   UNL     1       2.170   3.858  21.295  0.00  0.00    +0.000 S 
ATOM     13  N   UNL     1       3.910   2.711  19.653  0.00  0.00    +0.000 N 
ATOM     14  N   UNL     1       4.680   2.939  18.560  0.00  0.00    +0.000 NA
ATOM     15  C   UNL     1       4.433   4.176  18.248  0.00  0.00    +0.000 A 
ATOM     16  H   UNL     1       3.908   1.817  20.133  0.00  0.00    +0.000 HD
ENDROOT
BRANCH   7  17
ATOM     17  C   UNL     1       0.841   8.944  20.106  0.00  0.00    +0.000 C 
ATOM     18  O   UNL     1       0.594   8.583  21.245  0.00  0.00    +0.000 OA
ATOM     19  N   UNL     1       0.232  10.032  19.495  0.00  0.00    +0.000 N 
ATOM     20  H   UNL     1       0.561  10.371  18.606  0.00  0.00    +0.000 HD
BRANCH  19  21
ATOM     21  C   UNL     1      -0.765  10.840  20.169  0.00  0.00    +0.000 C 
ATOM     22  C   UNL     1      -0.177  12.038  20.911  0.00  0.00    +0.000 C 
ATOM     23  C   UNL     1      -1.382  12.946  21.131  0.00  0.00    +0.000 C 
ATOM     24  C   UNL     1      -2.318  12.688  19.949  0.00  0.00    +0.000 C 
ATOM     25  C   UNL     1      -1.718  11.514  19.181  0.00  0.00    +0.000 C 
ENDBRANCH  19  21
ENDBRANCH   7  17
BRANCH   1  26
ATOM     26  C   UNL     1       5.869   4.124  16.251  0.00  0.00    +0.000 C 
BRANCH  26  27
ATOM     27  C   UNL     1       5.252   4.062  14.845  0.00  0.00    +0.000 C 
BRANCH  27  29
ATOM     28  C   UNL     1       5.557   3.465  12.428  0.00  0.00    +0.000 C 
ATOM     29  C   UNL     1       6.278   3.768  13.739  0.00  0.00    +0.000 C 
ATOM     30  C   UNL     1       7.239   4.942  13.535  0.00  0.00    +0.000 C 
ENDBRANCH  27  29
ENDBRANCH  26  27
ENDBRANCH   1  26
TORSDOF 5
ENDMDL
MODEL 2
REMARK VINA RESULT:      -7.9      1.188      1.541
REMARK  Name = 
REMARK  7 active torsions:
REMARK  status: ('A' for Active; 'I' for Inactive)
REMARK    1  A    between atoms: C_1  and  C_2
REMARK    2  A    between atoms: C_2  and  C_3
REMARK    3  A    between atoms: C_2  and  C_4
REMARK    4  A    between atoms: C_4  and  C_5
REMARK    5  A    between atoms: C_5  and  N_6
REMARK    6  A    between atoms: C_12  and  C_13
REMARK    7  A    between atoms: N_15  and  C_16
REMARK                            x       y       z     vdW  Elec       q    Type
REMARK                         _______ _______ _______ _____ _____    ______ ____
ROOT
ATOM      1  N   UNL     1       5.258   5.041  17.403  0.00  0.00    +0.000 N 
ATOM      2  C   UNL     1       5.119   6.380  17.054  0.00  0.00    +0.000 A 
ATOM      3  O   UNL     1       5.876   6.982  16.317  0.00  0.00    +0.000 OA
ATOM      4  C   UNL     1       3.966   7.091  17.627  0.00  0.00    +0.000 A 
ATOM      5  C   UNL     1       3.736   8.394  17.180  0.00  0.00    +0.000 A 
ATOM      6  C   UNL     1       2.669   9.126  17.686  0.00  0.00    +0.000 A 
ATOM      7  C   UNL     1       1.821   8.547  18.640  0.00  0.00    +0.000 A 
ATOM      8  C   UNL     1       2.065   7.225  19.075  0.00  0.00    +0.000 A 
ATOM      9  C   UNL     1       3.136   6.470  18.570  0.00  0.00    +0.000 A 
ATOM     10  N   UNL     1       3.442   5.133  18.918  0.00  0.00    +0.000 N 
ATOM     11  C   UNL     1       2.880   4.223  19.793  0.00  0.00    +0.000 A 
ATOM     12  S   UNL     1       1.607   4.296  20.849  0.00  0.00    +0.000 S 
ATOM     13  N   UNL     1       3.629   3.055  19.660  0.00  0.00    +0.000 N 
ATOM     14  N   UNL     1       4.616   3.224  18.746  0.00  0.00    +0.000 NA
ATOM     15  C   UNL     1       4.468   4.450  18.340  0.00  0.00    +0.000 A 
ATOM     16  H   UNL     1       3.505   2.184  20.165  0.00  0.00    +0.000 HD
ENDROOT
BRANCH   7  17
ATOM     17  C   UNL     1       0.672   9.342  19.201  0.00  0.00    +0.000 C 
ATOM     18  O   UNL     1      -0.171   9.811  18.454  0.00  0.00    +0.000 OA
ATOM     19  N   UNL     1       0.649   9.497  20.580  0.00  0.00    +0.000 N 
ATOM     20  H   UNL     1       1.289   8.985  21.165  0.00  0.00    +0.000 HD
BRANCH  19  21
ATOM     21  C   UNL     1      -0.395  10.240  21.258  0.00  0.00    +0.000 C 
ATOM     22  C   UNL     1      -0.580   9.835  22.718  0.00  0.00    +0.000 C 
ATOM     23  C   UNL     1      -1.357  11.004  23.315  0.00  0.00    +0.000 C 
ATOM     24  C   UNL     1      -0.924  12.239  22.523  0.00  0.00    +0.000 C 
ATOM     25  C   UNL     1      -0.053  11.725  21.379  0.00  0.00    +0.000 C 
ENDBRANCH  19  21
ENDBRANCH   7  17
BRANCH   1  26
ATOM     26  C   UNL     1       6.293   4.291  16.696  0.00  0.00    +0.000 C 
BRANCH  26  27
ATOM     27  C   UNL     1       5.728   3.570  15.462  0.00  0.00    +0.000 C 
BRANCH  27  29
ATOM     28  C   UNL     1       7.324   4.914  14.070  0.00  0.00    +0.000 C 
ATOM     29  C   UNL     1       5.903   4.363  14.157  0.00  0.00    +0.000 C 
ATOM     30  C   UNL     1       5.615   3.496  12.929  0.00  0.00    +0.000 C 
ENDBRANCH  27  29
ENDBRANCH  26  27
ENDBRANCH   1  26
TORSDOF 5
ENDMDL
MODEL 3
REMARK VINA RESULT:      -7.5      1.026      1.231
REMARK  Name = 
REMARK  7 active torsions:
REMARK  status: ('A' for Active; 'I' for Inactive)
REMARK    1  A    between atoms: C_1  and  C_2
REMARK    2  A    between atoms: C_2  and  C_3
REMARK    3  A    between atoms: C_2  and  C_4
REMARK    4  A    between atoms: C_4  and  C_5
REMARK    5  A    between atoms: C_5  and  N_6
REMARK    6  A    between atoms: C_12  and  C_13
REMARK    7  A    between atoms: N_15  and  C_16
REMARK                            x       y       z     vdW  Elec       q    Type
REMARK                         _______ _______ _______ _____ _____    ______ ____
ROOT
ATOM      1  N   UNL     1       5.062   4.578  16.594  0.00  0.00    +0.000 N 
ATOM      2  C   UNL     1       4.866   5.953  16.545  0.00  0.00    +0.000 A 
ATOM      3  O   UNL     1       5.414   6.700  15.758  0.00  0.00    +0.000 OA
ATOM      4  C   UNL     1       3.922   6.516  17.522  0.00  0.00    +0.000 A 
ATOM      5  C   UNL     1       3.611   7.873  17.398  0.00  0.00    +0.000 A 
ATOM      6  C   UNL     1       2.732   8.471  18.293  0.00  0.00    +0.000 A 
ATOM      7  C   UNL     1       2.154   7.705  19.314  0.00  0.00    +0.000 A 
ATOM      8  C   UNL     1       2.475   6.332  19.420  0.00  0.00    +0.000 A 
ATOM      9  C   UNL     1       3.357   5.712  18.521  0.00  0.00    +0.000 A 
ATOM     10  N   UNL     1       3.714   4.343  18.526  0.00  0.00    +0.000 N 
ATOM     11  C   UNL     1       3.383   3.273  19.336  0.00  0.00    +0.000 A 
ATOM     12  S   UNL     1       2.436   3.118  20.686  0.00  0.00    +0.000 S 
ATOM     13  N   UNL     1       4.044   2.170  18.799  0.00  0.00    +0.000 N 
ATOM     14  N   UNL     1       4.758   2.529  17.704  0.00  0.00    +0.000 NA
ATOM     15  C   UNL     1       4.535   3.804  17.582  0.00  0.00    +0.000 A 
ATOM     16  H   UNL     1       4.039   1.218  19.151  0.00  0.00    +0.000 HD
ENDROOT
BRANCH   7  17
ATOM     17  C   UNL     1       1.213   8.353  20.294  0.00  0.00    +0.000 C 
ATOM     18  O   UNL     1       1.008   7.836  21.380  0.00  0.00    +0.000 OA
ATOM     19  N   UNL     1       0.618   9.538  19.883  0.00  0.00    +0.000 N 
ATOM     20  H   UNL     1       0.915   9.994  19.036  0.00  0.00    +0.000 HD
BRANCH  19  21
ATOM     21  C   UNL     1      -0.311  10.270  20.721  0.00  0.00    +0.000 C 
ATOM     22  C   UNL     1      -0.373   9.753  22.156  0.00  0.00    +0.000 C 
ATOM     23  C   UNL     1      -1.020  10.903  22.920  0.00  0.00    +0.000 C 
ATOM     24  C   UNL     1      -0.598  12.178  22.188  0.00  0.00    +0.000 C 
ATOM     25  C   UNL     1       0.124  11.721  20.924  0.00  0.00    +0.000 C 
ENDBRANCH  19  21
ENDBRANCH   7  17
BRANCH   1  26
ATOM     26  C   UNL     1       5.855   3.997  15.514  0.00  0.00    +0.000 C 
BRANCH  26  27
ATOM     27  C   UNL     1       5.149   4.128  14.156  0.00  0.00    +0.000 C 
BRANCH  27  29
ATOM     28  C   UNL     1       5.060   3.319  11.784  0.00  0.00    +0.000 C 
ATOM     29  C   UNL     1       5.970   3.571  12.983  0.00  0.00    +0.000 C 
ATOM     30  C   UNL     1       7.095   4.527  12.579  0.00  0.00    +0.000 C 
ENDBRANCH  27  29
ENDBRANCH  26  27
ENDBRANCH   1  26
TORSDOF 5
ENDMDL
MODEL 4
REMARK VINA RESULT:      -7.4      1.994      8.461
REMARK  Name = 
REMARK  7 active torsions:
REMARK  status: ('A' for Active; 'I' for Inactive)
REMARK    1  A    between atoms: C_1  and  C_2
REMARK    2  A    between atoms: C_2  and  C_3
REMARK    3  A    between atoms: C_2  and  C_4
REMARK    4  A    between atoms: C_4  and  C_5
REMARK    5  A    between atoms: C_5  and  N_6
REMARK    6  A    between atoms: C_12  and  C_13
REMARK    7  A    between atoms: N_15  and  C_16
REMARK                            x       y       z     vdW  Elec       q    Type
REMARK                         _______ _______ _______ _____ _____    ______ ____
ROOT
ATOM      1  N   UNL     1       1.800   6.657  20.214  0.00  0.00    +0.000 N 
ATOM      2  C   UNL     1       2.246   7.386  19.116  0.00  0.00    +0.000 A 
ATOM      3  O   UNL     1       1.861   8.502  18.828  0.00  0.00    +0.000 OA
ATOM      4  C   UNL     1       3.255   6.737  18.265  0.00  0.00    +0.000 A 
ATOM      5  C   UNL     1       3.811   7.507  17.240  0.00  0.00    +0.000 A 
ATOM      6  C   UNL     1       4.764   6.954  16.393  0.00  0.00    +0.000 A 
ATOM      7  C   UNL     1       5.170   5.625  16.578  0.00  0.00    +0.000 A 
ATOM      8  C   UNL     1       4.601   4.864  17.625  0.00  0.00    +0.000 A 
ATOM      9  C   UNL     1       3.640   5.410  18.492  0.00  0.00    +0.000 A 
ATOM     10  N   UNL     1       3.039   4.740  19.584  0.00  0.00    +0.000 N 
ATOM     11  C   UNL     1       3.151   3.463  20.100  0.00  0.00    +0.000 A 
ATOM     12  S   UNL     1       4.022   2.128  19.652  0.00  0.00    +0.000 S 
ATOM     13  N   UNL     1       2.311   3.426  21.212  0.00  0.00    +0.000 N 
ATOM     14  N   UNL     1       1.700   4.623  21.386  0.00  0.00    +0.000 NA
ATOM     15  C   UNL     1       2.155   5.358  20.415  0.00  0.00    +0.000 A 
ATOM     16  H   UNL     1       2.135   2.636  21.823  0.00  0.00    +0.000 HD
ENDROOT
BRANCH   7  17
ATOM     17  C   UNL     1       6.191   5.019  15.653  0.00  0.00    +0.000 C 
ATOM     18  O   UNL     1       7.372   5.020  15.960  0.00  0.00    +0.000 OA
ATOM     19  N   UNL     1       5.705   4.481  14.469  0.00  0.00    +0.000 N 
ATOM     20  H   UNL     1       4.714   4.384  14.319  0.00  0.00    +0.000 HD
BRANCH  19  21
ATOM     21  C   UNL     1       6.573   3.867  13.484  0.00  0.00    +0.000 C 
ATOM     22  C   UNL     1       5.832   2.971  12.495  0.00  0.00    +0.000 C 
ATOM     23  C   UNL     1       6.820   2.823  11.342  0.00  0.00    +0.000 C 
ATOM     24  C   UNL     1       7.627   4.122  11.316  0.00  0.00    +0.000 C 
ATOM     25  C   UNL     1       7.211   4.904  12.560  0.00  0.00    +0.000 C 
ENDBRANCH  19  21
ENDBRANCH   7  17
BRANCH   1  26
ATOM     26  C   UNL     1       0.938   7.365  21.156  0.00  0.00    +0.000 C 
BRANCH  26  27
ATOM     27  C   UNL     1       1.664   8.553  21.808  0.00  0.00    +0.000 C 
BRANCH  27  29
ATOM     28  C   UNL     1      -0.218   9.954  20.922  0.00  0.00    +0.000 C 
ATOM     29  C   UNL     1       0.745   9.751  22.089  0.00  0.00    +0.000 C 
ATOM     30  C   UNL     1      -0.052   9.559  23.382  0.00  0.00    +0.000 C 
ENDBRANCH  27  29
ENDBRANCH  26  27
ENDBRANCH   1  26
TORSDOF 5
ENDMDL
MODEL 5
REMARK VINA RESULT:      -7.3      0.921      1.212
REMARK  Name = 
REMARK  7 active torsions:
REMARK  status: ('A' for Active; 'I' for Inactive)
REMARK    1  A    between atoms: C_1  and  C_2
REMARK    2  A    between atoms: C_2  and  C_3
REMARK    3  A    between atoms: C_2  and  C_4
REMARK    4  A    between atoms: C_4  and  C_5
REMARK    5  A    between atoms: C_5  and  N_6
REMARK    6  A    between atoms: C_12  and  C_13
REMARK    7  A    between atoms: N_15  and  C_16
REMARK                            x       y       z     vdW  Elec       q    Type
REMARK                         _______ _______ _______ _____ _____    ______ ____
ROOT
ATOM      1  N   UNL     1       4.625   4.510  17.262  0.00  0.00    +0.000 N 
ATOM      2  C   UNL     1       4.452   5.875  17.058  0.00  0.00    +0.000 A 
ATOM      3  O   UNL     1       5.001   6.516  16.183  0.00  0.00    +0.000 OA
ATOM      4  C   UNL     1       3.532   6.564  17.976  0.00  0.00    +0.000 A 
ATOM      5  C   UNL     1       3.243   7.903  17.701  0.00  0.00    +0.000 A 
ATOM      6  C   UNL     1       2.388   8.616  18.532  0.00  0.00    +0.000 A 
ATOM      7  C   UNL     1       1.812   7.983  19.642  0.00  0.00    +0.000 A 
ATOM      8  C   UNL     1       2.110   6.626  19.901  0.00  0.00    +0.000 A 
ATOM      9  C   UNL     1       2.968   5.890  19.067  0.00  0.00    +0.000 A 
ATOM     10  N   UNL     1       3.301   4.524  19.225  0.00  0.00    +0.000 N 
ATOM     11  C   UNL     1       2.963   3.560  20.156  0.00  0.00    +0.000 A 
ATOM     12  S   UNL     1       2.034   3.579  21.527  0.00  0.00    +0.000 S 
ATOM     13  N   UNL     1       3.597   2.390  19.741  0.00  0.00    +0.000 N 
ATOM     14  N   UNL     1       4.301   2.609  18.603  0.00  0.00    +0.000 NA
ATOM     15  C   UNL     1       4.099   3.865  18.339  0.00  0.00    +0.000 A 
ATOM     16  H   UNL     1       3.580   1.485  20.199  0.00  0.00    +0.000 HD
ENDROOT
BRANCH   7  17
ATOM     17  C   UNL     1       0.897   8.757  20.553  0.00  0.00    +0.000 C 
ATOM     18  O   UNL     1       0.049   8.174  21.209  0.00  0.00    +0.000 OA
ATOM     19  N   UNL     1       1.083  10.132  20.587  0.00  0.00    +0.000 N 
ATOM     20  H   UNL     1       1.876  10.554  20.132  0.00  0.00    +0.000 HD
BRANCH  19  21
ATOM     21  C   UNL     1       0.274  11.003  21.416  0.00  0.00    +0.000 C 
ATOM     22  C   UNL     1      -1.036  11.427  20.757  0.00  0.00    +0.000 C 
ATOM     23  C   UNL     1      -1.879  11.921  21.929  0.00  0.00    +0.000 C 
ATOM     24  C   UNL     1      -1.428  11.104  23.140  0.00  0.00    +0.000 C 
ATOM     25  C   UNL     1      -0.219  10.295  22.678  0.00  0.00    +0.000 C 
ENDBRANCH  19  21
ENDBRANCH   7  17
BRANCH   1  26
ATOM     26  C   UNL     1       5.391   3.795  16.246  0.00  0.00    +0.000 C 
BRANCH  26  27
ATOM     27  C   UNL     1       5.197   4.407  14.850  0.00  0.00    +0.000 C 
BRANCH  27  29
ATOM     28  C   UNL     1       5.500   3.475  12.542  0.00  0.00    +0.000 C 
ATOM     29  C   UNL     1       6.219   3.911  13.816  0.00  0.00    +0.000 C 
ATOM     30  C   UNL     1       7.248   4.992  13.478  0.00  0.00    +0.000 C 
ENDBRANCH  27  29
ENDBRANCH  26  27
ENDBRANCH   1  26
TORSDOF 5
ENDMDL
MODEL 6
REMARK VINA RESULT:      -7.3      4.169     10.326
REMARK  Name = 
REMARK  7 active torsions:
REMARK  status: ('A' for Active; 'I' for Inactive)
REMARK    1  A    between atoms: C_1  and  C_2
REMARK    2  A    between atoms: C_2  and  C_3
REMARK    3  A    between atoms: C_2  and  C_4
REMARK    4  A    between atoms: C_4  and  C_5
REMARK    5  A    between atoms: C_5  and  N_6
REMARK    6  A    between atoms: C_12  and  C_13
REMARK    7  A    between atoms: N_15  and  C_16
REMARK                            x       y       z     vdW  Elec       q    Type
REMARK                         _______ _______ _______ _____ _____    ______ ____
ROOT
ATOM      1  N   UNL     1      -2.062  12.491  21.460  0.00  0.00    +0.000 N 
ATOM      2  C   UNL     1      -1.085  11.911  22.260  0.00  0.00    +0.000 A 
ATOM      3  O   UNL     1      -0.790  12.294  23.375  0.00  0.00    +0.000 OA
ATOM      4  C   UNL     1      -0.376  10.753  21.695  0.00  0.00    +0.000 A 
ATOM      5  C   UNL     1       0.511  10.077  22.536  0.00  0.00    +0.000 A 
ATOM      6  C   UNL     1       1.219   8.978  22.063  0.00  0.00    +0.000 A 
ATOM      7  C   UNL     1       1.032   8.549  20.742  0.00  0.00    +0.000 A 
ATOM      8  C   UNL     1       0.125   9.241  19.908  0.00  0.00    +0.000 A 
ATOM      9  C   UNL     1      -0.601  10.349  20.372  0.00  0.00    +0.000 A 
ATOM     10  N   UNL     1      -1.552  11.085  19.625  0.00  0.00    +0.000 N 
ATOM     11  C   UNL     1      -2.019  11.000  18.327  0.00  0.00    +0.000 A 
ATOM     12  S   UNL     1      -1.657  10.010  17.050  0.00  0.00    +0.000 S 
ATOM     13  N   UNL     1      -2.980  12.001  18.201  0.00  0.00    +0.000 N 
ATOM     14  N   UNL     1      -3.110  12.685  19.365  0.00  0.00    +0.000 NA
ATOM     15  C   UNL     1      -2.258  12.116  20.166  0.00  0.00    +0.000 A 
ATOM     16  H   UNL     1      -3.519  12.237  17.375  0.00  0.00    +0.000 HD
ENDROOT
BRANCH   7  17
ATOM     17  C   UNL     1       1.809   7.369  20.222  0.00  0.00    +0.000 C 
ATOM     18  O   UNL     1       2.553   7.499  19.264  0.00  0.00    +0.000 OA
ATOM     19  N   UNL     1       1.619   6.166  20.890  0.00  0.00    +0.000 N 
ATOM     20  H   UNL     1       1.100   6.135  21.752  0.00  0.00    +0.000 HD
BRANCH  19  21
ATOM     21  C   UNL     1       2.300   4.948  20.498  0.00  0.00    +0.000 C 
ATOM     22  C   UNL     1       2.240   3.850  21.557  0.00  0.00    +0.000 C 
ATOM     23  C   UNL     1       2.592   2.587  20.778  0.00  0.00    +0.000 C 
ATOM     24  C   UNL     1       2.086   2.821  19.354  0.00  0.00    +0.000 C 
ATOM     25  C   UNL     1       1.624   4.275  19.303  0.00  0.00    +0.000 C 
ENDBRANCH  19  21
ENDBRANCH   7  17
BRANCH   1  26
ATOM     26  C   UNL     1      -2.886  13.521  22.086  0.00  0.00    +0.000 C 
BRANCH  26  27
ATOM     27  C   UNL     1      -4.289  12.996  22.429  0.00  0.00    +0.000 C 
BRANCH  27  29
ATOM     28  C   UNL     1      -4.348  12.385  24.861  0.00  0.00    +0.000 C 
ATOM     29  C   UNL     1      -4.777  13.419  23.823  0.00  0.00    +0.000 C 
ATOM     30  C   UNL     1      -4.233  14.795  24.217  0.00  0.00    +0.000 C 
ENDBRANCH  27  29
ENDBRANCH  26  27
ENDBRANCH   1  26
TORSDOF 5
ENDMDL
MODEL 7
REMARK VINA RESULT:      -7.3      3.454     10.270
REMARK  Name = 
REMARK  7 active torsions:
REMARK  status: ('A' for Active; 'I' for Inactive)
REMARK    1  A    between atoms: C_1  and  C_2
REMARK    2  A    between atoms: C_2  and  C_3
REMARK    3  A    between atoms: C_2  and  C_4
REMARK    4  A    between atoms: C_4  and  C_5
REMARK    5  A    between atoms: C_5  and  N_6
REMARK    6  A    between atoms: C_12  and  C_13
REMARK    7  A    between atoms: N_15  and  C_16
REMARK                            x       y       z     vdW  Elec       q    Type
REMARK                         _______ _______ _______ _____ _____    ______ ____
ROOT
ATOM      1  N   UNL     1      -0.715  12.499  22.279  0.00  0.00    +0.000 N 
ATOM      2  C   UNL     1      -0.635  11.145  22.587  0.00  0.00    +0.000 A 
ATOM      3  O   UNL     1      -1.130  10.632  23.570  0.00  0.00    +0.000 OA
ATOM      4  C   UNL     1       0.104  10.300  21.637  0.00  0.00    +0.000 A 
ATOM      5  C   UNL     1       0.079   8.921  21.859  0.00  0.00    +0.000 A 
ATOM      6  C   UNL     1       0.762   8.065  21.005  0.00  0.00    +0.000 A 
ATOM      7  C   UNL     1       1.470   8.591  19.915  0.00  0.00    +0.000 A 
ATOM      8  C   UNL     1       1.478   9.988  19.701  0.00  0.00    +0.000 A 
ATOM      9  C   UNL     1       0.788  10.866  20.553  0.00  0.00    +0.000 A 
ATOM     10  N   UNL     1       0.712  12.271  20.403  0.00  0.00    +0.000 N 
ATOM     11  C   UNL     1       1.247  13.165  19.496  0.00  0.00    +0.000 A 
ATOM     12  S   UNL     1       2.244  12.996  18.185  0.00  0.00    +0.000 S 
ATOM     13  N   UNL     1       0.776  14.421  19.874  0.00  0.00    +0.000 N 
ATOM     14  N   UNL     1      -0.017  14.321  20.970  0.00  0.00    +0.000 NA
ATOM     15  C   UNL     1      -0.026  13.050  21.242  0.00  0.00    +0.000 A 
ATOM     16  H   UNL     1       0.982  15.313  19.438  0.00  0.00    +0.000 HD
ENDROOT
BRANCH   7  17
ATOM     17  C   UNL     1       2.224   7.667  18.996  0.00  0.00    +0.000 C 
ATOM     18  O   UNL     1       2.659   8.081  17.934  0.00  0.00    +0.000 OA
ATOM     19  N   UNL     1       2.377   6.358  19.431  0.00  0.00    +0.000 N 
ATOM     20  H   UNL     1       2.117   6.095  20.368  0.00  0.00    +0.000 HD
BRANCH  19  21
ATOM     21  C   UNL     1       3.078   5.359  18.649  0.00  0.00    +0.000 C 
ATOM     22  C   UNL     1       3.682   4.240  19.492  0.00  0.00    +0.000 C 
ATOM     23  C   UNL     1       3.944   3.132  18.477  0.00  0.00    +0.000 C 
ATOM     24  C   UNL     1       2.868   3.291  17.402  0.00  0.00    +0.000 C 
ATOM     25  C   UNL     1       2.133   4.589  17.727  0.00  0.00    +0.000 C 
ENDBRANCH  19  21
ENDBRANCH   7  17
BRANCH   1  26
ATOM     26  C   UNL     1      -1.596  13.304  23.120  0.00  0.00    +0.000 C 
BRANCH  26  27
ATOM     27  C   UNL     1      -3.059  13.217  22.659  0.00  0.00    +0.000 C 
BRANCH  27  29
ATOM     28  C   UNL     1      -4.322  12.455  24.687  0.00  0.00    +0.000 C 
ATOM     29  C   UNL     1      -4.068  13.627  23.742  0.00  0.00    +0.000 C 
ATOM     30  C   UNL     1      -3.574  14.833  24.545  0.00  0.00    +0.000 C 
ENDBRANCH  27  29
ENDBRANCH  26  27
ENDBRANCH   1  26
TORSDOF 5
ENDMDL
MODEL 8
REMARK VINA RESULT:      -7.2      1.392      1.601
REMARK  Name = 
REMARK  7 active torsions:
REMARK  status: ('A' for Active; 'I' for Inactive)
REMARK    1  A    between atoms: C_1  and  C_2
REMARK    2  A    between atoms: C_2  and  C_3
REMARK    3  A    between atoms: C_2  and  C_4
REMARK    4  A    between atoms: C_4  and  C_5
REMARK    5  A    between atoms: C_5  and  N_6
REMARK    6  A    between atoms: C_12  and  C_13
REMARK    7  A    between atoms: N_15  and  C_16
REMARK                            x       y       z     vdW  Elec       q    Type
REMARK                         _______ _______ _______ _____ _____    ______ ____
ROOT
ATOM      1  N   UNL     1       4.844   4.594  16.646  0.00  0.00    +0.000 N 
ATOM      2  C   UNL     1       4.928   5.979  16.551  0.00  0.00    +0.000 A 
ATOM      3  O   UNL     1       5.780   6.576  15.923  0.00  0.00    +0.000 OA
ATOM      4  C   UNL     1       3.899   6.748  17.267  0.00  0.00    +0.000 A 
ATOM      5  C   UNL     1       3.888   8.131  17.071  0.00  0.00    +0.000 A 
ATOM      6  C   UNL     1       2.947   8.920  17.723  0.00  0.00    +0.000 A 
ATOM      7  C   UNL     1       2.006   8.319  18.571  0.00  0.00    +0.000 A 
ATOM      8  C   UNL     1       2.028   6.918  18.751  0.00  0.00    +0.000 A 
ATOM      9  C   UNL     1       2.969   6.106  18.096  0.00  0.00    +0.000 A 
ATOM     10  N   UNL     1       3.050   4.697  18.187  0.00  0.00    +0.000 N 
ATOM     11  C   UNL     1       2.339   3.743  18.891  0.00  0.00    +0.000 A 
ATOM     12  S   UNL     1       1.083   3.825  19.967  0.00  0.00    +0.000 S 
ATOM     13  N   UNL     1       2.890   2.515  18.532  0.00  0.00    +0.000 N 
ATOM     14  N   UNL     1       3.902   2.688  17.646  0.00  0.00    +0.000 NA
ATOM     15  C   UNL     1       3.959   3.975  17.474  0.00  0.00    +0.000 A 
ATOM     16  H   UNL     1       2.622   1.597  18.871  0.00  0.00    +0.000 HD
ENDROOT
BRANCH   7  17
ATOM     17  C   UNL     1       0.996   9.172  19.290  0.00  0.00    +0.000 C 
ATOM     18  O   UNL     1       0.537  10.165  18.750  0.00  0.00    +0.000 OA
ATOM     19  N   UNL     1       0.642   8.759  20.568  0.00  0.00    +0.000 N 
ATOM     20  H   UNL     1       0.945   7.866  20.920  0.00  0.00    +0.000 HD
BRANCH  19  21
ATOM     21  C   UNL     1      -0.317   9.484  21.378  0.00  0.00    +0.000 C 
ATOM     22  C   UNL     1      -0.105   9.303  22.879  0.00  0.00    +0.000 C 
ATOM     23  C   UNL     1      -0.887  10.462  23.489  0.00  0.00    +0.000 C 
ATOM     24  C   UNL     1      -0.826  11.592  22.461  0.00  0.00    +0.000 C 
ATOM     25  C   UNL     1      -0.173  10.997  21.216  0.00  0.00    +0.000 C 
ENDBRANCH  19  21
ENDBRANCH   7  17
BRANCH   1  26
ATOM     26  C   UNL     1       5.751   3.830  15.794  0.00  0.00    +0.000 C 
BRANCH  26  27
ATOM     27  C   UNL     1       5.352   3.921  14.313  0.00  0.00    +0.000 C 
BRANCH  27  29
ATOM     28  C   UNL     1       5.942   3.071  12.028  0.00  0.00    +0.000 C 
ATOM     29  C   UNL     1       6.502   3.595  13.348  0.00  0.00    +0.000 C 
ATOM     30  C   UNL     1       7.378   4.822  13.080  0.00  0.00    +0.000 C 
ENDBRANCH  27  29
ENDBRANCH  26  27
ENDBRANCH   1  26
TORSDOF 5
ENDMDL
MODEL 9
REMARK VINA RESULT:      -7.2      3.632     10.501
REMARK  Name = 
REMARK  7 active torsions:
REMARK  status: ('A' for Active; 'I' for Inactive)
REMARK    1  A    between atoms: C_1  and  C_2
REMARK    2  A    between atoms: C_2  and  C_3
REMARK    3  A    between atoms: C_2  and  C_4
REMARK    4  A    between atoms: C_4  and  C_5
REMARK    5  A    between atoms: C_5  and  N_6
REMARK    6  A    between atoms: C_12  and  C_13
REMARK    7  A    between atoms: N_15  and  C_16
REMARK                            x       y       z     vdW  Elec       q    Type
REMARK                         _______ _______ _______ _____ _____    ______ ____
ROOT
ATOM      1  N   UNL     1      -2.970  12.706  20.735  0.00  0.00    +0.000 N 
ATOM      2  C   UNL     1      -1.729  12.405  21.286  0.00  0.00    +0.000 A 
ATOM      3  O   UNL     1      -1.312  12.858  22.333  0.00  0.00    +0.000 OA
ATOM      4  C   UNL     1      -0.887  11.466  20.529  0.00  0.00    +0.000 A 
ATOM      5  C   UNL     1       0.301  11.049  21.133  0.00  0.00    +0.000 A 
ATOM      6  C   UNL     1       1.148  10.169  20.470  0.00  0.00    +0.000 A 
ATOM      7  C   UNL     1       0.800   9.697  19.197  0.00  0.00    +0.000 A 
ATOM      8  C   UNL     1      -0.409  10.125  18.604  0.00  0.00    +0.000 A 
ATOM      9  C   UNL     1      -1.278  11.010  19.263  0.00  0.00    +0.000 A 
ATOM     10  N   UNL     1      -2.521  11.469  18.767  0.00  0.00    +0.000 N 
ATOM     11  C   UNL     1      -3.217  11.257  17.592  0.00  0.00    +0.000 A 
ATOM     12  S   UNL     1      -2.895  10.388  16.220  0.00  0.00    +0.000 S 
ATOM     13  N   UNL     1      -4.406  11.975  17.718  0.00  0.00    +0.000 N 
ATOM     14  N   UNL     1      -4.454  12.609  18.916  0.00  0.00    +0.000 NA
ATOM     15  C   UNL     1      -3.335  12.285  19.493  0.00  0.00    +0.000 A 
ATOM     16  H   UNL     1      -5.150  12.057  17.034  0.00  0.00    +0.000 HD
ENDROOT
BRANCH   7  17
ATOM     17  C   UNL     1       1.723   8.756  18.470  0.00  0.00    +0.000 C 
ATOM     18  O   UNL     1       2.133   9.039  17.356  0.00  0.00    +0.000 OA
ATOM     19  N   UNL     1       2.055   7.584  19.137  0.00  0.00    +0.000 N 
ATOM     20  H   UNL     1       1.800   7.453  20.102  0.00  0.00    +0.000 HD
BRANCH  19  21
ATOM     21  C   UNL     1       2.931   6.585  18.557  0.00  0.00    +0.000 C 
ATOM     22  C   UNL     1       3.759   5.828  19.591  0.00  0.00    +0.000 C 
ATOM     23  C   UNL     1       4.222   4.587  18.835  0.00  0.00    +0.000 C 
ATOM     24  C   UNL     1       3.122   4.285  17.816  0.00  0.00    +0.000 C 
ATOM     25  C   UNL     1       2.147   5.457  17.887  0.00  0.00    +0.000 C 
ENDBRANCH  19  21
ENDBRANCH   7  17
BRANCH   1  26
ATOM     26  C   UNL     1      -3.876  13.491  21.569  0.00  0.00    +0.000 C 
BRANCH  26  27
ATOM     27  C   UNL     1      -4.748  12.594  22.462  0.00  0.00    +0.000 C 
BRANCH  27  29
ATOM     28  C   UNL     1      -7.044  12.278  21.504  0.00  0.00    +0.000 C 
ATOM     29  C   UNL     1      -6.215  13.043  22.533  0.00  0.00    +0.000 C 
ATOM     30  C   UNL     1      -6.804  12.823  23.929  0.00  0.00    +0.000 C 
ENDBRANCH  27  29
ENDBRANCH  26  27
ENDBRANCH   1  26
TORSDOF 5
ENDMDL
