MODEL 1
REMARK VINA RESULT:      -7.1      0.000      0.000
REMARK  Name = 
REMARK  12 active torsions:
REMARK  status: ('A' for Active; 'I' for Inactive)
REMARK    1  A    between atoms: C_1  and  C_2
REMARK    2  A    between atoms: C_2  and  C_3
REMARK    3  A    between atoms: C_3  and  C_4
REMARK    4  A    between atoms: C_4  and  N_5
REMARK    5  A    between atoms: N_5  and  C_6
REMARK    6  A    between atoms: N_5  and  C_8
REMARK    7  A    between atoms: C_6  and  C_7
REMARK    8  A    between atoms: C_10  and  C_11
REMARK    9  A    between atoms: N_19  and  C_20
REMARK   10  A    between atoms: C_23  and  C_24
REMARK   11  A    between atoms: C_24  and  C_25
REMARK   12  A    between atoms: C_28  and  C_29
REMARK                            x       y       z     vdW  Elec       q    Type
REMARK                         _______ _______ _______ _____ _____    ______ ____
ROOT
ATOM      1  C   UNL     1      -3.032  11.944  19.247  0.00  0.00    +0.000 A 
ATOM      2  C   UNL     1      -3.319  11.505  17.952  0.00  0.00    +0.000 A 
ATOM      3  C   UNL     1      -2.386  10.746  17.249  0.00  0.00    +0.000 A 
ATOM      4  C   UNL     1      -2.739  10.128  15.927  0.00  0.00    +0.000 C 
ATOM      5  N   UNL     1      -1.170  10.435  17.749  0.00  0.00    +0.000 NA
ATOM      6  C   UNL     1      -0.883  10.780  19.022  0.00  0.00    +0.000 A 
ATOM      7  C   UNL     1      -1.795  11.539  19.783  0.00  0.00    +0.000 A 
ATOM      8  N   UNL     1      -1.522  11.807  21.133  0.00  0.00    +0.000 N 
ATOM      9  C   UNL     1      -0.291  11.611  21.678  0.00  0.00    +0.000 C 
ATOM     10  O   UNL     1      -0.069  11.858  22.864  0.00  0.00    +0.000 OA
ATOM     11  C   UNL     1       0.801  11.205  20.696  0.00  0.00    +0.000 C 
ATOM     12  N   UNL     1       0.299  10.296  19.648  0.00  0.00    +0.000 N 
ATOM     13  H   UNL     1      -2.281  12.141  21.716  0.00  0.00    +0.000 HD
ENDROOT
BRANCH  12  14
ATOM     14  C   UNL     1       1.152   9.271  19.189  0.00  0.00    +0.000 A 
ATOM     15  C   UNL     1       1.779   9.378  17.928  0.00  0.00    +0.000 A 
ATOM     16  C   UNL     1       2.681   8.417  17.448  0.00  0.00    +0.000 A 
ATOM     17  C   UNL     1       2.976   7.294  18.213  0.00  0.00    +0.000 A 
ATOM     18  C   UNL     1       2.359   7.160  19.461  0.00  0.00    +0.000 A 
ATOM     19  C   UNL     1       1.468   8.133  19.969  0.00  0.00    +0.000 A 
ATOM     20  C   UNL     1       0.992   7.931  21.387  0.00  0.00    +0.000 C 
BRANCH  17  21
ATOM     21  C   UNL     1       3.931   6.223  17.790  0.00  0.00    +0.000 C 
ATOM     22  C   UNL     1       5.383   6.535  17.530  0.00  0.00    +0.000 C 
ATOM     23  O   UNL     1       3.519   5.072  17.636  0.00  0.00    +0.000 OA
ENDBRANCH  17  21
ENDBRANCH  12  14
BRANCH   1  24
ATOM     24  N   UNL     1      -3.923  12.734  20.003  0.00  0.00    +0.000 N 
BRANCH  24  25
ATOM     25  C   UNL     1      -3.346  13.956  20.621  0.00  0.00    +0.000 C 
ATOM     26  C   UNL     1      -4.365  15.044  20.934  0.00  0.00    +0.000 C 
ENDBRANCH  24  25
BRANCH  24  27
ATOM     27  C   UNL     1      -5.325  12.846  19.559  0.00  0.00    +0.000 C 
BRANCH  27  28
ATOM     28  C   UNL     1      -6.264  11.885  20.304  0.00  0.00    +0.000 C 
BRANCH  28  30
ATOM     29  C   UNL     1      -7.280   9.591  20.179  0.00  0.00    +0.000 C 
ATOM     30  C   UNL     1      -6.934  10.850  19.395  0.00  0.00    +0.000 C 
ENDBRANCH  28  30
ENDBRANCH  27  28
ENDBRANCH  24  27
ENDBRANCH   1  24
TORSDOF 7
ENDMDL
MODEL 2
REMARK VINA RESULT:      -6.9      1.102      1.267
REMARK  Name = 
REMARK  12 active torsions:
REMARK  status: ('A' for Active; 'I' for Inactive)
REMARK    1  A    between atoms: C_1  and  C_2
REMARK    2  A    between atoms: C_2  and  C_3
REMARK    3  A    between atoms: C_3  and  C_4
REMARK    4  A    between atoms: C_4  and  N_5
REMARK    5  A    between atoms: N_5  and  C_6
REMARK    6  A    between atoms: N_5  and  C_8
REMARK    7  A    between atoms: C_6  and  C_7
REMARK    8  A    between atoms: C_10  and  C_11
REMARK    9  A    between atoms: N_19  and  C_20
REMARK   10  A    between atoms: C_23  and  C_24
REMARK   11  A    between atoms: C_24  and  C_25
REMARK   12  A    between atoms: C_28  and  C_29
REMARK                            x       y       z     vdW  Elec       q    Type
REMARK                         _______ _______ _______ _____ _____    ______ ____
ROOT
ATOM      1  C   UNL     1      -3.459  12.443  19.758  0.00  0.00    +0.000 A 
ATOM      2  C   UNL     1      -3.886  11.856  18.564  0.00  0.00    +0.000 A 
ATOM      3  C   UNL     1      -3.028  11.026  17.847  0.00  0.00    +0.000 A 
ATOM      4  C   UNL     1      -3.520  10.258  16.655  0.00  0.00    +0.000 C 
ATOM      5  N   UNL     1      -1.756  10.780  18.234  0.00  0.00    +0.000 NA
ATOM      6  C   UNL     1      -1.330  11.272  19.417  0.00  0.00    +0.000 A 
ATOM      7  C   UNL     1      -2.161  12.109  20.187  0.00  0.00    +0.000 A 
ATOM      8  N   UNL     1      -1.738  12.532  21.457  0.00  0.00    +0.000 N 
ATOM      9  C   UNL     1      -0.449  12.406  21.873  0.00  0.00    +0.000 C 
ATOM     10  O   UNL     1      -0.095  12.790  22.988  0.00  0.00    +0.000 OA
ATOM     11  C   UNL     1       0.530  11.895  20.822  0.00  0.00    +0.000 C 
ATOM     12  N   UNL     1      -0.074  10.869  19.950  0.00  0.00    +0.000 N 
ATOM     13  H   UNL     1      -2.431  12.928  22.083  0.00  0.00    +0.000 HD
ENDROOT
BRANCH  12  14
ATOM     14  C   UNL     1       0.739   9.802  19.515  0.00  0.00    +0.000 A 
ATOM     15  C   UNL     1       1.280   9.807  18.210  0.00  0.00    +0.000 A 
ATOM     16  C   UNL     1       2.140   8.801  17.746  0.00  0.00    +0.000 A 
ATOM     17  C   UNL     1       2.478   7.735  18.571  0.00  0.00    +0.000 A 
ATOM     18  C   UNL     1       1.945   7.703  19.865  0.00  0.00    +0.000 A 
ATOM     19  C   UNL     1       1.098   8.721  20.356  0.00  0.00    +0.000 A 
ATOM     20  C   UNL     1       0.717   8.633  21.813  0.00  0.00    +0.000 C 
BRANCH  17  21
ATOM     21  C   UNL     1       3.395   6.624  18.168  0.00  0.00    +0.000 C 
ATOM     22  C   UNL     1       4.498   6.851  17.167  0.00  0.00    +0.000 C 
ATOM     23  O   UNL     1       3.233   5.501  18.650  0.00  0.00    +0.000 OA
ENDBRANCH  17  21
ENDBRANCH  12  14
BRANCH   1  24
ATOM     24  N   UNL     1      -4.271  13.310  20.518  0.00  0.00    +0.000 N 
BRANCH  24  25
ATOM     25  C   UNL     1      -3.724  14.672  20.757  0.00  0.00    +0.000 C 
ATOM     26  C   UNL     1      -4.107  15.276  22.101  0.00  0.00    +0.000 C 
ENDBRANCH  24  25
BRANCH  24  27
ATOM     27  C   UNL     1      -5.735  13.232  20.363  0.00  0.00    +0.000 C 
BRANCH  27  28
ATOM     28  C   UNL     1      -6.360  12.096  21.188  0.00  0.00    +0.000 C 
BRANCH  28  30
ATOM     29  C   UNL     1      -7.781  12.387  23.239  0.00  0.00    +0.000 C 
ATOM     30  C   UNL     1      -7.761  12.418  21.717  0.00  0.00    +0.000 C 
ENDBRANCH  28  30
ENDBRANCH  27  28
ENDBRANCH  24  27
ENDBRANCH   1  24
TORSDOF 7
ENDMDL
MODEL 3
REMARK VINA RESULT:      -6.9      3.327      5.113
REMARK  Name = 
REMARK  12 active torsions:
REMARK  status: ('A' for Active; 'I' for Inactive)
REMARK    1  A    between atoms: C_1  and  C_2
REMARK    2  A    between atoms: C_2  and  C_3
REMARK    3  A    between atoms: C_3  and  C_4
REMARK    4  A    between atoms: C_4  and  N_5
REMARK    5  A    between atoms: N_5  and  C_6
REMARK    6  A    between atoms: N_5  and  C_8
REMARK    7  A    between atoms: C_6  and  C_7
REMARK    8  A    between atoms: C_10  and  C_11
REMARK    9  A    between atoms: N_19  and  C_20
REMARK   10  A    between atoms: C_23  and  C_24
REMARK   11  A    between atoms: C_24  and  C_25
REMARK   12  A    between atoms: C_28  and  C_29
REMARK                            x       y       z     vdW  Elec       q    Type
REMARK                         _______ _______ _______ _____ _____    ______ ____
ROOT
ATOM      1  C   UNL     1       0.076  14.605  19.407  0.00  0.00    +0.000 A 
ATOM      2  C   UNL     1       1.287  14.739  20.092  0.00  0.00    +0.000 A 
ATOM      3  C   UNL     1       2.013  13.607  20.455  0.00  0.00    +0.000 A 
ATOM      4  C   UNL     1       3.389  13.732  21.041  0.00  0.00    +0.000 C 
ATOM      5  N   UNL     1       1.580  12.350  20.208  0.00  0.00    +0.000 NA
ATOM      6  C   UNL     1       0.451  12.182  19.488  0.00  0.00    +0.000 A 
ATOM      7  C   UNL     1      -0.317  13.293  19.085  0.00  0.00    +0.000 A 
ATOM      8  N   UNL     1      -1.434  13.105  18.256  0.00  0.00    +0.000 N 
ATOM      9  C   UNL     1      -1.983  11.879  18.045  0.00  0.00    +0.000 C 
ATOM     10  O   UNL     1      -2.967  11.734  17.319  0.00  0.00    +0.000 OA
ATOM     11  C   UNL     1      -1.385  10.744  18.868  0.00  0.00    +0.000 C 
ATOM     12  N   UNL     1       0.074  10.886  19.037  0.00  0.00    +0.000 N 
ATOM     13  H   UNL     1      -1.825  13.917  17.792  0.00  0.00    +0.000 HD
ENDROOT
BRANCH  12  14
ATOM     14  C   UNL     1       0.863   9.717  19.037  0.00  0.00    +0.000 A 
ATOM     15  C   UNL     1       1.588   9.349  17.882  0.00  0.00    +0.000 A 
ATOM     16  C   UNL     1       2.433   8.230  17.846  0.00  0.00    +0.000 A 
ATOM     17  C   UNL     1       2.568   7.420  18.968  0.00  0.00    +0.000 A 
ATOM     18  C   UNL     1       1.851   7.759  20.121  0.00  0.00    +0.000 A 
ATOM     19  C   UNL     1       1.017   8.898  20.181  0.00  0.00    +0.000 A 
ATOM     20  C   UNL     1       0.420   9.222  21.528  0.00  0.00    +0.000 C 
BRANCH  17  21
ATOM     21  C   UNL     1       3.451   6.214  19.027  0.00  0.00    +0.000 C 
ATOM     22  C   UNL     1       3.129   5.059  19.940  0.00  0.00    +0.000 C 
ATOM     23  O   UNL     1       4.467   6.174  18.331  0.00  0.00    +0.000 OA
ENDBRANCH  17  21
ENDBRANCH  12  14
BRANCH   1  24
ATOM     24  N   UNL     1      -0.716  15.710  19.032  0.00  0.00    +0.000 N 
BRANCH  24  25
ATOM     25  C   UNL     1      -1.524  16.330  20.114  0.00  0.00    +0.000 C 
ATOM     26  C   UNL     1      -2.200  17.638  19.726  0.00  0.00    +0.000 C 
ENDBRANCH  24  25
BRANCH  24  27
ATOM     27  C   UNL     1      -0.201  16.641  18.010  0.00  0.00    +0.000 C 
BRANCH  27  28
ATOM     28  C   UNL     1       1.160  17.246  18.389  0.00  0.00    +0.000 C 
BRANCH  28  30
ATOM     29  C   UNL     1       3.291  16.329  17.427  0.00  0.00    +0.000 C 
ATOM     30  C   UNL     1       2.149  17.316  17.222  0.00  0.00    +0.000 C 
ENDBRANCH  28  30
ENDBRANCH  27  28
ENDBRANCH  24  27
ENDBRANCH   1  24
TORSDOF 7
ENDMDL
MODEL 4
REMARK VINA RESULT:      -6.8      1.752      2.452
REMARK  Name = 
REMARK  12 active torsions:
REMARK  status: ('A' for Active; 'I' for Inactive)
REMARK    1  A    between atoms: C_1  and  C_2
REMARK    2  A    between atoms: C_2  and  C_3
REMARK    3  A    between atoms: C_3  and  C_4
REMARK    4  A    between atoms: C_4  and  N_5
REMARK    5  A    between atoms: N_5  and  C_6
REMARK    6  A    between atoms: N_5  and  C_8
REMARK    7  A    between atoms: C_6  and  C_7
REMARK    8  A    between atoms: C_10  and  C_11
REMARK    9  A    between atoms: N_19  and  C_20
REMARK   10  A    between atoms: C_23  and  C_24
REMARK   11  A    between atoms: C_24  and  C_25
REMARK   12  A    between atoms: C_28  and  C_29
REMARK                            x       y       z     vdW  Elec       q    Type
REMARK                         _______ _______ _______ _____ _____    ______ ____
ROOT
ATOM      1  C   UNL     1      -2.695  13.016  20.148  0.00  0.00    +0.000 A 
ATOM      2  C   UNL     1      -3.495  12.221  19.322  0.00  0.00    +0.000 A 
ATOM      3  C   UNL     1      -2.933  11.161  18.616  0.00  0.00    +0.000 A 
ATOM      4  C   UNL     1      -3.800  10.199  17.857  0.00  0.00    +0.000 C 
ATOM      5  N   UNL     1      -1.613  10.872  18.657  0.00  0.00    +0.000 NA
ATOM      6  C   UNL     1      -0.821  11.573  19.496  0.00  0.00    +0.000 A 
ATOM      7  C   UNL     1      -1.340  12.650  20.243  0.00  0.00    +0.000 A 
ATOM      8  N   UNL     1      -0.526  13.303  21.181  0.00  0.00    +0.000 N 
ATOM      9  C   UNL     1       0.824  13.136  21.212  0.00  0.00    +0.000 C 
ATOM     10  O   UNL     1       1.523  13.724  22.039  0.00  0.00    +0.000 OA
ATOM     11  C   UNL     1       1.405  12.294  20.083  0.00  0.00    +0.000 C 
ATOM     12  N   UNL     1       0.525  11.168  19.717  0.00  0.00    +0.000 N 
ATOM     13  H   UNL     1      -0.973  13.905  21.863  0.00  0.00    +0.000 HD
ENDROOT
BRANCH  12  14
ATOM     14  C   UNL     1       1.124   9.947  19.343  0.00  0.00    +0.000 A 
ATOM     15  C   UNL     1       1.649   9.782  18.042  0.00  0.00    +0.000 A 
ATOM     16  C   UNL     1       2.306   8.612  17.635  0.00  0.00    +0.000 A 
ATOM     17  C   UNL     1       2.447   7.547  18.519  0.00  0.00    +0.000 A 
ATOM     18  C   UNL     1       1.926   7.684  19.811  0.00  0.00    +0.000 A 
ATOM     19  C   UNL     1       1.284   8.866  20.242  0.00  0.00    +0.000 A 
ATOM     20  C   UNL     1       0.903   8.928  21.701  0.00  0.00    +0.000 C 
BRANCH  17  21
ATOM     21  C   UNL     1       3.141   6.266  18.180  0.00  0.00    +0.000 C 
ATOM     22  C   UNL     1       2.359   5.004  17.923  0.00  0.00    +0.000 C 
ATOM     23  O   UNL     1       4.372   6.240  18.127  0.00  0.00    +0.000 OA
ENDBRANCH  17  21
ENDBRANCH  12  14
BRANCH   1  24
ATOM     24  N   UNL     1      -3.198  14.117  20.871  0.00  0.00    +0.000 N 
BRANCH  24  25
ATOM     25  C   UNL     1      -2.879  15.460  20.318  0.00  0.00    +0.000 C 
ATOM     26  C   UNL     1      -2.442  16.482  21.359  0.00  0.00    +0.000 C 
ENDBRANCH  24  25
BRANCH  24  27
ATOM     27  C   UNL     1      -4.513  13.996  21.528  0.00  0.00    +0.000 C 
BRANCH  27  28
ATOM     28  C   UNL     1      -4.481  13.073  22.756  0.00  0.00    +0.000 C 
BRANCH  28  30
ATOM     29  C   UNL     1      -3.582  14.659  24.484  0.00  0.00    +0.000 C 
ATOM     30  C   UNL     1      -3.327  13.367  23.718  0.00  0.00    +0.000 C 
ENDBRANCH  28  30
ENDBRANCH  27  28
ENDBRANCH  24  27
ENDBRANCH   1  24
TORSDOF 7
ENDMDL
MODEL 5
REMARK VINA RESULT:      -6.8      1.162      2.067
REMARK  Name = 
REMARK  12 active torsions:
REMARK  status: ('A' for Active; 'I' for Inactive)
REMARK    1  A    between atoms: C_1  and  C_2
REMARK    2  A    between atoms: C_2  and  C_3
REMARK    3  A    between atoms: C_3  and  C_4
REMARK    4  A    between atoms: C_4  and  N_5
REMARK    5  A    between atoms: N_5  and  C_6
REMARK    6  A    between atoms: N_5  and  C_8
REMARK    7  A    between atoms: C_6  and  C_7
REMARK    8  A    between atoms: C_10  and  C_11
REMARK    9  A    between atoms: N_19  and  C_20
REMARK   10  A    between atoms: C_23  and  C_24
REMARK   11  A    between atoms: C_24  and  C_25
REMARK   12  A    between atoms: C_28  and  C_29
REMARK                            x       y       z     vdW  Elec       q    Type
REMARK                         _______ _______ _______ _____ _____    ______ ____
ROOT
ATOM      1  C   UNL     1      -3.254  12.020  19.263  0.00  0.00    +0.000 A 
ATOM      2  C   UNL     1      -3.588  11.465  18.024  0.00  0.00    +0.000 A 
ATOM      3  C   UNL     1      -2.663  10.681  17.339  0.00  0.00    +0.000 A 
ATOM      4  C   UNL     1      -3.056   9.943  16.092  0.00  0.00    +0.000 C 
ATOM      5  N   UNL     1      -1.413  10.452  17.801  0.00  0.00    +0.000 NA
ATOM      6  C   UNL     1      -1.078  10.912  19.024  0.00  0.00    +0.000 A 
ATOM      7  C   UNL     1      -1.980  11.702  19.766  0.00  0.00    +0.000 A 
ATOM      8  N   UNL     1      -1.651  12.091  21.074  0.00  0.00    +0.000 N 
ATOM      9  C   UNL     1      -0.389  11.981  21.570  0.00  0.00    +0.000 C 
ATOM     10  O   UNL     1      -0.119  12.333  22.718  0.00  0.00    +0.000 OA
ATOM     11  C   UNL     1       0.669  11.530  20.570  0.00  0.00    +0.000 C 
ATOM     12  N   UNL     1       0.150  10.520  19.626  0.00  0.00    +0.000 N 
ATOM     13  H   UNL     1      -2.393  12.448  21.665  0.00  0.00    +0.000 HD
ENDROOT
BRANCH  12  14
ATOM     14  C   UNL     1       1.016   9.488  19.211  0.00  0.00    +0.000 A 
ATOM     15  C   UNL     1       1.662   9.564  17.957  0.00  0.00    +0.000 A 
ATOM     16  C   UNL     1       2.577   8.596  17.518  0.00  0.00    +0.000 A 
ATOM     17  C   UNL     1       2.868   7.497  18.319  0.00  0.00    +0.000 A 
ATOM     18  C   UNL     1       2.232   7.395  19.562  0.00  0.00    +0.000 A 
ATOM     19  C   UNL     1       1.328   8.375  20.027  0.00  0.00    +0.000 A 
ATOM     20  C   UNL     1       0.831   8.211  21.443  0.00  0.00    +0.000 C 
BRANCH  17  21
ATOM     21  C   UNL     1       3.836   6.421  17.942  0.00  0.00    +0.000 C 
ATOM     22  C   UNL     1       3.455   4.966  18.033  0.00  0.00    +0.000 C 
ATOM     23  O   UNL     1       4.969   6.730  17.567  0.00  0.00    +0.000 OA
ENDBRANCH  17  21
ENDBRANCH  12  14
BRANCH   1  24
ATOM     24  N   UNL     1      -4.136  12.841  19.996  0.00  0.00    +0.000 N 
BRANCH  24  25
ATOM     25  C   UNL     1      -5.422  13.174  19.329  0.00  0.00    +0.000 C 
ATOM     26  C   UNL     1      -6.620  12.385  19.841  0.00  0.00    +0.000 C 
ENDBRANCH  24  25
BRANCH  24  27
ATOM     27  C   UNL     1      -4.201  12.686  21.461  0.00  0.00    +0.000 C 
BRANCH  27  28
ATOM     28  C   UNL     1      -4.320  14.030  22.197  0.00  0.00    +0.000 C 
BRANCH  28  30
ATOM     29  C   UNL     1      -3.990  12.597  24.233  0.00  0.00    +0.000 C 
ATOM     30  C   UNL     1      -3.811  13.989  23.640  0.00  0.00    +0.000 C 
ENDBRANCH  28  30
ENDBRANCH  27  28
ENDBRANCH  24  27
ENDBRANCH   1  24
TORSDOF 7
ENDMDL
MODEL 6
REMARK VINA RESULT:      -6.7      1.647      2.116
REMARK  Name = 
REMARK  12 active torsions:
REMARK  status: ('A' for Active; 'I' for Inactive)
REMARK    1  A    between atoms: C_1  and  C_2
REMARK    2  A    between atoms: C_2  and  C_3
REMARK    3  A    between atoms: C_3  and  C_4
REMARK    4  A    between atoms: C_4  and  N_5
REMARK    5  A    between atoms: N_5  and  C_6
REMARK    6  A    between atoms: N_5  and  C_8
REMARK    7  A    between atoms: C_6  and  C_7
REMARK    8  A    between atoms: C_10  and  C_11
REMARK    9  A    between atoms: N_19  and  C_20
REMARK   10  A    between atoms: C_23  and  C_24
REMARK   11  A    between atoms: C_24  and  C_25
REMARK   12  A    between atoms: C_28  and  C_29
REMARK                            x       y       z     vdW  Elec       q    Type
REMARK                         _______ _______ _______ _____ _____    ______ ____
ROOT
ATOM      1  C   UNL     1      -3.172  13.063  20.283  0.00  0.00    +0.000 A 
ATOM      2  C   UNL     1      -3.893  12.285  19.373  0.00  0.00    +0.000 A 
ATOM      3  C   UNL     1      -3.247  11.298  18.633  0.00  0.00    +0.000 A 
ATOM      4  C   UNL     1      -4.030  10.346  17.775  0.00  0.00    +0.000 C 
ATOM      5  N   UNL     1      -1.918  11.069  18.720  0.00  0.00    +0.000 NA
ATOM      6  C   UNL     1      -1.201  11.751  19.638  0.00  0.00    +0.000 A 
ATOM      7  C   UNL     1      -1.806  12.754  20.422  0.00  0.00    +0.000 A 
ATOM      8  N   UNL     1      -1.069  13.385  21.436  0.00  0.00    +0.000 N 
ATOM      9  C   UNL     1       0.284  13.279  21.524  0.00  0.00    +0.000 C 
ATOM     10  O   UNL     1       0.915  13.845  22.418  0.00  0.00    +0.000 OA
ATOM     11  C   UNL     1       0.958  12.537  20.375  0.00  0.00    +0.000 C 
ATOM     12  N   UNL     1       0.152  11.396  19.900  0.00  0.00    +0.000 N 
ATOM     13  H   UNL     1      -1.576  13.921  22.131  0.00  0.00    +0.000 HD
ENDROOT
BRANCH  12  14
ATOM     14  C   UNL     1       0.827  10.230  19.482  0.00  0.00    +0.000 A 
ATOM     15  C   UNL     1       1.417  10.170  18.200  0.00  0.00    +0.000 A 
ATOM     16  C   UNL     1       2.149   9.060  17.757  0.00  0.00    +0.000 A 
ATOM     17  C   UNL     1       2.303   7.951  18.581  0.00  0.00    +0.000 A 
ATOM     18  C   UNL     1       1.719   7.983  19.852  0.00  0.00    +0.000 A 
ATOM     19  C   UNL     1       1.001   9.105  20.322  0.00  0.00    +0.000 A 
ATOM     20  C   UNL     1       0.552   9.058  21.763  0.00  0.00    +0.000 C 
BRANCH  17  21
ATOM     21  C   UNL     1       3.074   6.727  18.200  0.00  0.00    +0.000 C 
ATOM     22  C   UNL     1       4.355   6.829  17.412  0.00  0.00    +0.000 C 
ATOM     23  O   UNL     1       2.645   5.617  18.520  0.00  0.00    +0.000 OA
ENDBRANCH  17  21
ENDBRANCH  12  14
BRANCH   1  24
ATOM     24  N   UNL     1      -3.761  14.092  21.046  0.00  0.00    +0.000 N 
BRANCH  24  25
ATOM     25  C   UNL     1      -3.575  15.473  20.529  0.00  0.00    +0.000 C 
ATOM     26  C   UNL     1      -4.757  16.401  20.772  0.00  0.00    +0.000 C 
ENDBRANCH  24  25
BRANCH  24  27
ATOM     27  C   UNL     1      -5.049  13.832  21.717  0.00  0.00    +0.000 C 
BRANCH  27  28
ATOM     28  C   UNL     1      -4.884  13.087  23.050  0.00  0.00    +0.000 C 
BRANCH  28  30
ATOM     29  C   UNL     1      -6.922  14.314  23.858  0.00  0.00    +0.000 C 
ATOM     30  C   UNL     1      -6.179  12.984  23.862  0.00  0.00    +0.000 C 
ENDBRANCH  28  30
ENDBRANCH  27  28
ENDBRANCH  24  27
ENDBRANCH   1  24
TORSDOF 7
ENDMDL
MODEL 7
REMARK VINA RESULT:      -6.7      1.883      2.524
REMARK  Name = 
REMARK  12 active torsions:
REMARK  status: ('A' for Active; 'I' for Inactive)
REMARK    1  A    between atoms: C_1  and  C_2
REMARK    2  A    between atoms: C_2  and  C_3
REMARK    3  A    between atoms: C_3  and  C_4
REMARK    4  A    between atoms: C_4  and  N_5
REMARK    5  A    between atoms: N_5  and  C_6
REMARK    6  A    between atoms: N_5  and  C_8
REMARK    7  A    between atoms: C_6  and  C_7
REMARK    8  A    between atoms: C_10  and  C_11
REMARK    9  A    between atoms: N_19  and  C_20
REMARK   10  A    between atoms: C_23  and  C_24
REMARK   11  A    between atoms: C_24  and  C_25
REMARK   12  A    between atoms: C_28  and  C_29
REMARK                            x       y       z     vdW  Elec       q    Type
REMARK                         _______ _______ _______ _____ _____    ______ ____
ROOT
ATOM      1  C   UNL     1      -2.055  13.170  20.120  0.00  0.00    +0.000 A 
ATOM      2  C   UNL     1      -2.979  12.409  19.397  0.00  0.00    +0.000 A 
ATOM      3  C   UNL     1      -2.560  11.277  18.703  0.00  0.00    +0.000 A 
ATOM      4  C   UNL     1      -3.558  10.358  18.059  0.00  0.00    +0.000 C 
ATOM      5  N   UNL     1      -1.268  10.883  18.657  0.00  0.00    +0.000 NA
ATOM      6  C   UNL     1      -0.359  11.550  19.399  0.00  0.00    +0.000 A 
ATOM      7  C   UNL     1      -0.730  12.697  20.129  0.00  0.00    +0.000 A 
ATOM      8  N   UNL     1       0.205  13.320  20.970  0.00  0.00    +0.000 N 
ATOM      9  C   UNL     1       1.535  13.044  20.907  0.00  0.00    +0.000 C 
ATOM     10  O   UNL     1       2.342  13.606  21.649  0.00  0.00    +0.000 OA
ATOM     11  C   UNL     1       1.957  12.111  19.779  0.00  0.00    +0.000 C 
ATOM     12  N   UNL     1       0.964  11.046  19.536  0.00  0.00    +0.000 N 
ATOM     13  H   UNL     1      -0.138  13.985  21.654  0.00  0.00    +0.000 HD
ENDROOT
BRANCH  12  14
ATOM     14  C   UNL     1       1.434   9.765  19.177  0.00  0.00    +0.000 A 
ATOM     15  C   UNL     1       1.952   9.535  17.883  0.00  0.00    +0.000 A 
ATOM     16  C   UNL     1       2.485   8.298  17.492  0.00  0.00    +0.000 A 
ATOM     17  C   UNL     1       2.502   7.232  18.385  0.00  0.00    +0.000 A 
ATOM     18  C   UNL     1       1.984   7.433  19.669  0.00  0.00    +0.000 A 
ATOM     19  C   UNL     1       1.468   8.681  20.085  0.00  0.00    +0.000 A 
ATOM     20  C   UNL     1       1.079   8.794  21.539  0.00  0.00    +0.000 C 
BRANCH  17  21
ATOM     21  C   UNL     1       3.058   5.881  18.062  0.00  0.00    +0.000 C 
ATOM     22  C   UNL     1       4.279   5.731  17.191  0.00  0.00    +0.000 C 
ATOM     23  O   UNL     1       2.498   4.875  18.503  0.00  0.00    +0.000 OA
ENDBRANCH  17  21
ENDBRANCH  12  14
BRANCH   1  24
ATOM     24  N   UNL     1      -2.411  14.338  20.825  0.00  0.00    +0.000 N 
BRANCH  24  25
ATOM     25  C   UNL     1      -2.509  15.581  20.017  0.00  0.00    +0.000 C 
ATOM     26  C   UNL     1      -1.306  16.507  20.138  0.00  0.00    +0.000 C 
ENDBRANCH  24  25
BRANCH  24  27
ATOM     27  C   UNL     1      -3.365  14.231  21.945  0.00  0.00    +0.000 C 
BRANCH  27  28
ATOM     28  C   UNL     1      -2.725  13.656  23.218  0.00  0.00    +0.000 C 
BRANCH  28  30
ATOM     29  C   UNL     1      -1.764  11.337  23.329  0.00  0.00    +0.000 C 
ATOM     30  C   UNL     1      -3.032  12.173  23.445  0.00  0.00    +0.000 C 
ENDBRANCH  28  30
ENDBRANCH  27  28
ENDBRANCH  24  27
ENDBRANCH   1  24
TORSDOF 7
ENDMDL
MODEL 8
REMARK VINA RESULT:      -6.7      1.326      1.706
REMARK  Name = 
REMARK  12 active torsions:
REMARK  status: ('A' for Active; 'I' for Inactive)
REMARK    1  A    between atoms: C_1  and  C_2
REMARK    2  A    between atoms: C_2  and  C_3
REMARK    3  A    between atoms: C_3  and  C_4
REMARK    4  A    between atoms: C_4  and  N_5
REMARK    5  A    between atoms: N_5  and  C_6
REMARK    6  A    between atoms: N_5  and  C_8
REMARK    7  A    between atoms: C_6  and  C_7
REMARK    8  A    between atoms: C_10  and  C_11
REMARK    9  A    between atoms: N_19  and  C_20
REMARK   10  A    between atoms: C_23  and  C_24
REMARK   11  A    between atoms: C_24  and  C_25
REMARK   12  A    between atoms: C_28  and  C_29
REMARK                            x       y       z     vdW  Elec       q    Type
REMARK                         _______ _______ _______ _____ _____    ______ ____
ROOT
ATOM      1  C   UNL     1      -3.869  13.017  20.261  0.00  0.00    +0.000 A 
ATOM      2  C   UNL     1      -4.321  12.379  19.102  0.00  0.00    +0.000 A 
ATOM      3  C   UNL     1      -3.489  11.493  18.423  0.00  0.00    +0.000 A 
ATOM      4  C   UNL     1      -4.010  10.675  17.277  0.00  0.00    +0.000 C 
ATOM      5  N   UNL     1      -2.219  11.238  18.811  0.00  0.00    +0.000 NA
ATOM      6  C   UNL     1      -1.771  11.780  19.963  0.00  0.00    +0.000 A 
ATOM      7  C   UNL     1      -2.576  12.676  20.696  0.00  0.00    +0.000 A 
ATOM      8  N   UNL     1      -2.131  13.154  21.939  0.00  0.00    +0.000 N 
ATOM      9  C   UNL     1      -0.841  13.020  22.349  0.00  0.00    +0.000 C 
ATOM     10  O   UNL     1      -0.468  13.452  23.440  0.00  0.00    +0.000 OA
ATOM     11  C   UNL     1       0.116  12.432  21.319  0.00  0.00    +0.000 C 
ATOM     12  N   UNL     1      -0.520  11.376  20.507  0.00  0.00    +0.000 N 
ATOM     13  H   UNL     1      -2.808  13.598  22.548  0.00  0.00    +0.000 HD
ENDROOT
BRANCH  12  14
ATOM     14  C   UNL     1       0.264  10.269  20.121  0.00  0.00    +0.000 A 
ATOM     15  C   UNL     1       0.954  10.281  18.888  0.00  0.00    +0.000 A 
ATOM     16  C   UNL     1       1.792   9.233  18.481  0.00  0.00    +0.000 A 
ATOM     17  C   UNL     1       1.958   8.117  19.293  0.00  0.00    +0.000 A 
ATOM     18  C   UNL     1       1.277   8.077  20.515  0.00  0.00    +0.000 A 
ATOM     19  C   UNL     1       0.449   9.137  20.949  0.00  0.00    +0.000 A 
ATOM     20  C   UNL     1      -0.106   9.024  22.349  0.00  0.00    +0.000 C 
BRANCH  17  21
ATOM     21  C   UNL     1       2.838   6.957  18.949  0.00  0.00    +0.000 C 
ATOM     22  C   UNL     1       3.629   6.935  17.666  0.00  0.00    +0.000 C 
ATOM     23  O   UNL     1       2.903   5.997  19.720  0.00  0.00    +0.000 OA
ENDBRANCH  17  21
ENDBRANCH  12  14
BRANCH   1  24
ATOM     24  N   UNL     1      -4.654  13.941  20.981  0.00  0.00    +0.000 N 
BRANCH  24  25
ATOM     25  C   UNL     1      -4.278  15.372  20.830  0.00  0.00    +0.000 C 
ATOM     26  C   UNL     1      -5.429  16.349  21.030  0.00  0.00    +0.000 C 
ENDBRANCH  24  25
BRANCH  24  27
ATOM     27  C   UNL     1      -6.095  13.676  21.144  0.00  0.00    +0.000 C 
BRANCH  27  28
ATOM     28  C   UNL     1      -6.391  12.222  21.543  0.00  0.00    +0.000 C 
BRANCH  28  30
ATOM     29  C   UNL     1      -7.339  10.239  20.327  0.00  0.00    +0.000 C 
ATOM     30  C   UNL     1      -7.630  11.636  20.860  0.00  0.00    +0.000 C 
ENDBRANCH  28  30
ENDBRANCH  27  28
ENDBRANCH  24  27
ENDBRANCH   1  24
TORSDOF 7
ENDMDL
MODEL 9
REMARK VINA RESULT:      -6.6      2.929      4.661
REMARK  Name = 
REMARK  12 active torsions:
REMARK  status: ('A' for Active; 'I' for Inactive)
REMARK    1  A    between atoms: C_1  and  C_2
REMARK    2  A    between atoms: C_2  and  C_3
REMARK    3  A    between atoms: C_3  and  C_4
REMARK    4  A    between atoms: C_4  and  N_5
REMARK    5  A    between atoms: N_5  and  C_6
REMARK    6  A    between atoms: N_5  and  C_8
REMARK    7  A    between atoms: C_6  and  C_7
REMARK    8  A    between atoms: C_10  and  C_11
REMARK    9  A    between atoms: N_19  and  C_20
REMARK   10  A    between atoms: C_23  and  C_24
REMARK   11  A    between atoms: C_24  and  C_25
REMARK   12  A    between atoms: C_28  and  C_29
REMARK                            x       y       z     vdW  Elec       q    Type
REMARK                         _______ _______ _______ _____ _____    ______ ____
ROOT
ATOM      1  C   UNL     1      -0.076  14.539  20.032  0.00  0.00    +0.000 A 
ATOM      2  C   UNL     1       1.196  14.666  20.598  0.00  0.00    +0.000 A 
ATOM      3  C   UNL     1       1.989  13.538  20.793  0.00  0.00    +0.000 A 
ATOM      4  C   UNL     1       3.415  13.671  21.243  0.00  0.00    +0.000 C 
ATOM      5  N   UNL     1       1.571  12.289  20.493  0.00  0.00    +0.000 NA
ATOM      6  C   UNL     1       0.378  12.132  19.881  0.00  0.00    +0.000 A 
ATOM      7  C   UNL     1      -0.461  13.241  19.649  0.00  0.00    +0.000 A 
ATOM      8  N   UNL     1      -1.653  13.074  18.927  0.00  0.00    +0.000 N 
ATOM      9  C   UNL     1      -2.184  11.847  18.676  0.00  0.00    +0.000 C 
ATOM     10  O   UNL     1      -3.234  11.719  18.046  0.00  0.00    +0.000 OA
ATOM     11  C   UNL     1      -1.469  10.676  19.340  0.00  0.00    +0.000 C 
ATOM     12  N   UNL     1      -0.005  10.861  19.369  0.00  0.00    +0.000 N 
ATOM     13  H   UNL     1      -2.115  13.903  18.571  0.00  0.00    +0.000 HD
ENDROOT
BRANCH  12  14
ATOM     14  C   UNL     1       0.814   9.726  19.195  0.00  0.00    +0.000 A 
ATOM     15  C   UNL     1       1.498   9.523  17.976  0.00  0.00    +0.000 A 
ATOM     16  C   UNL     1       2.370   8.445  17.770  0.00  0.00    +0.000 A 
ATOM     17  C   UNL     1       2.577   7.511  18.779  0.00  0.00    +0.000 A 
ATOM     18  C   UNL     1       1.902   7.685  19.993  0.00  0.00    +0.000 A 
ATOM     19  C   UNL     1       1.040   8.781  20.224  0.00  0.00    +0.000 A 
ATOM     20  C   UNL     1       0.495   8.922  21.624  0.00  0.00    +0.000 C 
BRANCH  17  21
ATOM     21  C   UNL     1       3.494   6.336  18.656  0.00  0.00    +0.000 C 
ATOM     22  C   UNL     1       3.832   5.752  17.308  0.00  0.00    +0.000 C 
ATOM     23  O   UNL     1       3.966   5.827  19.674  0.00  0.00    +0.000 OA
ENDBRANCH  17  21
ENDBRANCH  12  14
BRANCH   1  24
ATOM     24  N   UNL     1      -0.937  15.637  19.829  0.00  0.00    +0.000 N 
BRANCH  24  25
ATOM     25  C   UNL     1      -2.167  15.664  20.663  0.00  0.00    +0.000 C 
ATOM     26  C   UNL     1      -1.959  16.192  22.076  0.00  0.00    +0.000 C 
ENDBRANCH  24  25
BRANCH  24  27
ATOM     27  C   UNL     1      -0.349  16.955  19.521  0.00  0.00    +0.000 C 
BRANCH  27  28
ATOM     28  C   UNL     1       0.126  17.068  18.064  0.00  0.00    +0.000 C 
BRANCH  28  30
ATOM     29  C   UNL     1      -1.840  18.630  18.014  0.00  0.00    +0.000 C 
ATOM     30  C   UNL     1      -0.614  18.138  17.256  0.00  0.00    +0.000 C 
ENDBRANCH  28  30
ENDBRANCH  27  28
ENDBRANCH  24  27
ENDBRANCH   1  24
TORSDOF 7
ENDMDL
