MODEL 1
REMARK VINA RESULT:      -7.0      0.000      0.000
REMARK  Name = 
REMARK  8 active torsions:
REMARK  status: ('A' for Active; 'I' for Inactive)
REMARK    1  A    between atoms: C_2  and  O_3
REMARK    2  A    between atoms: C_2  and  C_4
REMARK    3  A    between atoms: N_7  and  C_8
REMARK    4  A    between atoms: C_8  and  C_9
REMARK    5  A    between atoms: C_10  and  C_11
REMARK    6  A    between atoms: C_11  and  N_12
REMARK    7  A    between atoms: C_15  and  C_16
REMARK    8  A    between atoms: N_17  and  O_18
REMARK                            x       y       z     vdW  Elec       q    Type
REMARK                         _______ _______ _______ _____ _____    ______ ____
ROOT
ATOM      1  C   UNL     1       8.362   9.184  18.066  0.00  0.00    +0.000 C 
ATOM      2  C   UNL     1       8.037   7.876  18.159  0.00  0.00    +0.000 C 
ENDROOT
BRANCH   1   3
ATOM      3  C   UNL     1       9.049  10.006  19.137  0.00  0.00    +0.000 C 
BRANCH   3   7
ATOM      4  C   UNL     1      10.861  13.474  17.461  0.00  0.00    +0.000 A 
ATOM      5  C   UNL     1       9.482  13.424  17.664  0.00  0.00    +0.000 A 
ATOM      6  C   UNL     1       8.912  12.277  18.199  0.00  0.00    +0.000 A 
ATOM      7  N   UNL     1       9.683  11.214  18.541  0.00  0.00    +0.000 N 
ATOM      8  C   UNL     1      11.023  11.243  18.330  0.00  0.00    +0.000 A 
ATOM      9  C   UNL     1      11.641  12.370  17.793  0.00  0.00    +0.000 A 
BRANCH   4  11
ATOM     10  O   UNL     1      12.333  15.286  17.668  0.00  0.00    +0.000 OA
ATOM     11  C   UNL     1      11.447  14.757  17.022  0.00  0.00    +0.000 C 
BRANCH  11  12
ATOM     12  O   UNL     1      10.938  15.256  15.884  0.00  0.00    +0.000 OA
ATOM     13  H   UNL     1      11.360  15.026  15.037  0.00  0.00    +0.000 HD
ENDBRANCH  11  12
ENDBRANCH   4  11
ENDBRANCH   3   7
ENDBRANCH   1   3
BRANCH   2  14
ATOM     14  C   UNL     1       7.320   7.073  17.095  0.00  0.00    +0.000 C 
BRANCH  14  15
ATOM     15  N   UNL     1       6.180   6.315  17.669  0.00  0.00    +0.000 N 
ATOM     16  C   UNL     1       4.952   6.426  17.104  0.00  0.00    +0.000 A 
ATOM     17  C   UNL     1       3.852   5.779  17.652  0.00  0.00    +0.000 A 
ATOM     18  C   UNL     1       4.019   5.001  18.795  0.00  0.00    +0.000 A 
ATOM     19  C   UNL     1       5.279   4.907  19.373  0.00  0.00    +0.000 A 
ATOM     20  C   UNL     1       6.352   5.575  18.791  0.00  0.00    +0.000 A 
BRANCH  18  21
ATOM     21  C   UNL     1       2.812   4.379  19.381  0.00  0.00    +0.000 C 
ATOM     22  N   UNL     1       2.015   4.827  20.303  0.00  0.00    +0.000 NA
BRANCH  22  23
ATOM     23  O   UNL     1       2.417   6.038  20.861  0.00  0.00    +0.000 OA
ATOM     24  H   UNL     1       2.952   5.737  21.627  0.00  0.00    +0.000 HD
ENDBRANCH  22  23
ENDBRANCH  18  21
ENDBRANCH  14  15
ENDBRANCH   2  14
TORSDOF 8
ENDMDL
MODEL 2
REMARK VINA RESULT:      -6.9      7.171      8.356
REMARK  Name = 
REMARK  8 active torsions:
REMARK  status: ('A' for Active; 'I' for Inactive)
REMARK    1  A    between atoms: C_2  and  O_3
REMARK    2  A    between atoms: C_2  and  C_4
REMARK    3  A    between atoms: N_7  and  C_8
REMARK    4  A    between atoms: C_8  and  C_9
REMARK    5  A    between atoms: C_10  and  C_11
REMARK    6  A    between atoms: C_11  and  N_12
REMARK    7  A    between atoms: C_15  and  C_16
REMARK    8  A    between atoms: N_17  and  O_18
REMARK                            x       y       z     vdW  Elec       q    Type
REMARK                         _______ _______ _______ _____ _____    ______ ____
ROOT
ATOM      1  C   UNL     1       2.232   8.156  17.663  0.00  0.00    +0.000 C 
ATOM      2  C   UNL     1       3.500   7.748  17.439  0.00  0.00    +0.000 C 
ENDROOT
BRANCH   1   3
ATOM      3  C   UNL     1       1.782   9.590  17.849  0.00  0.00    +0.000 C 
BRANCH   3   7
ATOM      4  C   UNL     1      -0.040  10.106  21.661  0.00  0.00    +0.000 A 
ATOM      5  C   UNL     1       0.810   9.025  21.423  0.00  0.00    +0.000 A 
ATOM      6  C   UNL     1       1.381   8.870  20.168  0.00  0.00    +0.000 A 
ATOM      7  N   UNL     1       1.135   9.766  19.179  0.00  0.00    +0.000 N 
ATOM      8  C   UNL     1       0.295  10.810  19.392  0.00  0.00    +0.000 A 
ATOM      9  C   UNL     1      -0.304  11.007  20.634  0.00  0.00    +0.000 A 
BRANCH   4  11
ATOM     10  O   UNL     1       0.051   9.786  23.981  0.00  0.00    +0.000 OA
ATOM     11  C   UNL     1      -0.517  10.316  23.044  0.00  0.00    +0.000 C 
BRANCH  11  12
ATOM     12  O   UNL     1      -1.585  11.122  23.162  0.00  0.00    +0.000 OA
ATOM     13  H   UNL     1      -1.888  11.621  22.384  0.00  0.00    +0.000 HD
ENDBRANCH  11  12
ENDBRANCH   4  11
ENDBRANCH   3   7
ENDBRANCH   1   3
BRANCH   2  14
ATOM     14  C   UNL     1       3.944   6.309  17.287  0.00  0.00    +0.000 C 
BRANCH  14  15
ATOM     15  N   UNL     1       3.259   5.428  18.266  0.00  0.00    +0.000 N 
ATOM     16  C   UNL     1       2.448   4.438  17.821  0.00  0.00    +0.000 A 
ATOM     17  C   UNL     1       1.745   3.634  18.710  0.00  0.00    +0.000 A 
ATOM     18  C   UNL     1       1.884   3.850  20.079  0.00  0.00    +0.000 A 
ATOM     19  C   UNL     1       2.706   4.879  20.523  0.00  0.00    +0.000 A 
ATOM     20  C   UNL     1       3.388   5.660  19.595  0.00  0.00    +0.000 A 
BRANCH  18  21
ATOM     21  C   UNL     1       1.071   3.014  20.989  0.00  0.00    +0.000 C 
ATOM     22  N   UNL     1       1.446   2.272  21.986  0.00  0.00    +0.000 NA
BRANCH  22  23
ATOM     23  O   UNL     1       2.827   2.209  22.159  0.00  0.00    +0.000 OA
ATOM     24  H   UNL     1       3.145   2.792  21.438  0.00  0.00    +0.000 HD
ENDBRANCH  22  23
ENDBRANCH  18  21
ENDBRANCH  14  15
ENDBRANCH   2  14
TORSDOF 8
ENDMDL
MODEL 3
REMARK VINA RESULT:      -6.9      1.392      1.392
REMARK  Name = 
REMARK  8 active torsions:
REMARK  status: ('A' for Active; 'I' for Inactive)
REMARK    1  A    between atoms: C_2  and  O_3
REMARK    2  A    between atoms: C_2  and  C_4
REMARK    3  A    between atoms: N_7  and  C_8
REMARK    4  A    between atoms: C_8  and  C_9
REMARK    5  A    between atoms: C_10  and  C_11
REMARK    6  A    between atoms: C_11  and  N_12
REMARK    7  A    between atoms: C_15  and  C_16
REMARK    8  A    between atoms: N_17  and  O_18
REMARK                            x       y       z     vdW  Elec       q    Type
REMARK                         _______ _______ _______ _____ _____    ______ ____
ROOT
ATOM      1  C   UNL     1       8.435   9.327  17.928  0.00  0.00    +0.000 C 
ATOM      2  C   UNL     1       8.035   8.042  18.040  0.00  0.00    +0.000 C 
ENDROOT
BRANCH   1   3
ATOM      3  C   UNL     1       9.081  10.153  19.022  0.00  0.00    +0.000 C 
BRANCH   3   7
ATOM      4  C   UNL     1      10.700  13.761  17.447  0.00  0.00    +0.000 A 
ATOM      5  C   UNL     1       9.404  13.733  17.963  0.00  0.00    +0.000 A 
ATOM      6  C   UNL     1       8.893  12.542  18.458  0.00  0.00    +0.000 A 
ATOM      7  N   UNL     1       9.645  11.412  18.461  0.00  0.00    +0.000 N 
ATOM      8  C   UNL     1      10.900  11.422  17.944  0.00  0.00    +0.000 A 
ATOM      9  C   UNL     1      11.455  12.593  17.432  0.00  0.00    +0.000 A 
BRANCH   4  11
ATOM     10  O   UNL     1      12.003  15.675  17.810  0.00  0.00    +0.000 OA
ATOM     11  C   UNL     1      11.259  15.073  17.058  0.00  0.00    +0.000 C 
BRANCH  11  12
ATOM     12  O   UNL     1      10.891  15.511  15.843  0.00  0.00    +0.000 OA
ATOM     13  H   UNL     1       9.979  15.355  15.541  0.00  0.00    +0.000 HD
ENDBRANCH  11  12
ENDBRANCH   4  11
ENDBRANCH   3   7
ENDBRANCH   1   3
BRANCH   2  14
ATOM     14  C   UNL     1       7.360   7.237  16.950  0.00  0.00    +0.000 C 
BRANCH  14  15
ATOM     15  N   UNL     1       6.443   6.219  17.523  0.00  0.00    +0.000 N 
ATOM     16  C   UNL     1       5.453   5.704  16.753  0.00  0.00    +0.000 A 
ATOM     17  C   UNL     1       4.541   4.795  17.275  0.00  0.00    +0.000 A 
ATOM     18  C   UNL     1       4.654   4.406  18.607  0.00  0.00    +0.000 A 
ATOM     19  C   UNL     1       5.663   4.954  19.391  0.00  0.00    +0.000 A 
ATOM     20  C   UNL     1       6.552   5.863  18.826  0.00  0.00    +0.000 A 
BRANCH  18  21
ATOM     21  C   UNL     1       3.626   3.485  19.140  0.00  0.00    +0.000 C 
ATOM     22  N   UNL     1       3.766   2.311  19.676  0.00  0.00    +0.000 NA
BRANCH  22  23
ATOM     23  O   UNL     1       5.076   1.836  19.671  0.00  0.00    +0.000 OA
ATOM     24  H   UNL     1       5.345   2.004  18.743  0.00  0.00    +0.000 HD
ENDBRANCH  22  23
ENDBRANCH  18  21
ENDBRANCH  14  15
ENDBRANCH   2  14
TORSDOF 8
ENDMDL
MODEL 4
REMARK VINA RESULT:      -6.8      6.585      7.936
REMARK  Name = 
REMARK  8 active torsions:
REMARK  status: ('A' for Active; 'I' for Inactive)
REMARK    1  A    between atoms: C_2  and  O_3
REMARK    2  A    between atoms: C_2  and  C_4
REMARK    3  A    between atoms: N_7  and  C_8
REMARK    4  A    between atoms: C_8  and  C_9
REMARK    5  A    between atoms: C_10  and  C_11
REMARK    6  A    between atoms: C_11  and  N_12
REMARK    7  A    between atoms: C_15  and  C_16
REMARK    8  A    between atoms: N_17  and  O_18
REMARK                            x       y       z     vdW  Elec       q    Type
REMARK                         _______ _______ _______ _____ _____    ______ ____
ROOT
ATOM      1  C   UNL     1       6.098   6.541  17.361  0.00  0.00    +0.000 C 
ATOM      2  C   UNL     1       4.815   6.390  16.965  0.00  0.00    +0.000 C 
ENDROOT
BRANCH   1   3
ATOM      3  C   UNL     1       7.308   5.905  16.709  0.00  0.00    +0.000 C 
BRANCH   3   7
ATOM      4  C   UNL     1       6.122   3.685  13.276  0.00  0.00    +0.000 A 
ATOM      5  C   UNL     1       5.673   3.319  14.546  0.00  0.00    +0.000 A 
ATOM      6  C   UNL     1       6.084   4.049  15.652  0.00  0.00    +0.000 A 
ATOM      7  N   UNL     1       6.902   5.122  15.509  0.00  0.00    +0.000 N 
ATOM      8  C   UNL     1       7.362   5.476  14.282  0.00  0.00    +0.000 A 
ATOM      9  C   UNL     1       6.979   4.772  13.142  0.00  0.00    +0.000 A 
BRANCH   4  11
ATOM     10  O   UNL     1       4.524   3.359  11.593  0.00  0.00    +0.000 OA
ATOM     11  C   UNL     1       5.554   2.972  12.113  0.00  0.00    +0.000 C 
BRANCH  11  12
ATOM     12  O   UNL     1       6.261   1.909  11.696  0.00  0.00    +0.000 OA
ATOM     13  H   UNL     1       5.938   1.397  10.933  0.00  0.00    +0.000 HD
ENDBRANCH  11  12
ENDBRANCH   4  11
ENDBRANCH   3   7
ENDBRANCH   1   3
BRANCH   2  14
ATOM     14  C   UNL     1       3.610   7.005  17.644  0.00  0.00    +0.000 C 
BRANCH  14  15
ATOM     15  N   UNL     1       2.875   5.998  18.450  0.00  0.00    +0.000 N 
ATOM     16  C   UNL     1       2.408   6.336  19.677  0.00  0.00    +0.000 A 
ATOM     17  C   UNL     1       1.769   5.401  20.482  0.00  0.00    +0.000 A 
ATOM     18  C   UNL     1       1.603   4.100  20.014  0.00  0.00    +0.000 A 
ATOM     19  C   UNL     1       2.099   3.761  18.761  0.00  0.00    +0.000 A 
ATOM     20  C   UNL     1       2.735   4.730  17.991  0.00  0.00    +0.000 A 
BRANCH  18  21
ATOM     21  C   UNL     1       0.973   3.121  20.926  0.00  0.00    +0.000 C 
ATOM     22  N   UNL     1       1.507   2.404  21.867  0.00  0.00    +0.000 NA
BRANCH  22  23
ATOM     23  O   UNL     1       2.890   2.537  21.966  0.00  0.00    +0.000 OA
ATOM     24  H   UNL     1       3.200   1.934  21.257  0.00  0.00    +0.000 HD
ENDBRANCH  22  23
ENDBRANCH  18  21
ENDBRANCH  14  15
ENDBRANCH   2  14
TORSDOF 8
ENDMDL
MODEL 5
REMARK VINA RESULT:      -6.8      0.636      1.453
REMARK  Name = 
REMARK  8 active torsions:
REMARK  status: ('A' for Active; 'I' for Inactive)
REMARK    1  A    between atoms: C_2  and  O_3
REMARK    2  A    between atoms: C_2  and  C_4
REMARK    3  A    between atoms: N_7  and  C_8
REMARK    4  A    between atoms: C_8  and  C_9
REMARK    5  A    between atoms: C_10  and  C_11
REMARK    6  A    between atoms: C_11  and  N_12
REMARK    7  A    between atoms: C_15  and  C_16
REMARK    8  A    between atoms: N_17  and  O_18
REMARK                            x       y       z     vdW  Elec       q    Type
REMARK                         _______ _______ _______ _____ _____    ______ ____
ROOT
ATOM      1  C   UNL     1       8.452   9.399  18.285  0.00  0.00    +0.000 C 
ATOM      2  C   UNL     1       8.290   8.059  18.229  0.00  0.00    +0.000 C 
ENDROOT
BRANCH   1   3
ATOM      3  C   UNL     1       9.198  10.158  19.364  0.00  0.00    +0.000 C 
BRANCH   3   7
ATOM      4  C   UNL     1      10.580  13.885  17.840  0.00  0.00    +0.000 A 
ATOM      5  C   UNL     1      11.013  12.684  17.275  0.00  0.00    +0.000 A 
ATOM      6  C   UNL     1      10.561  11.482  17.798  0.00  0.00    +0.000 A 
ATOM      7  N   UNL     1       9.690  11.462  18.838  0.00  0.00    +0.000 N 
ATOM      8  C   UNL     1       9.275  12.622  19.409  0.00  0.00    +0.000 A 
ATOM      9  C   UNL     1       9.705  13.854  18.921  0.00  0.00    +0.000 A 
BRANCH   4  11
ATOM     10  O   UNL     1      11.231  16.136  17.824  0.00  0.00    +0.000 OA
ATOM     11  C   UNL     1      10.973  15.142  17.170  0.00  0.00    +0.000 C 
BRANCH  11  12
ATOM     12  O   UNL     1      11.027  15.081  15.830  0.00  0.00    +0.000 OA
ATOM     13  H   UNL     1      10.639  15.805  15.308  0.00  0.00    +0.000 HD
ENDBRANCH  11  12
ENDBRANCH   4  11
ENDBRANCH   3   7
ENDBRANCH   1   3
BRANCH   2  14
ATOM     14  C   UNL     1       7.514   7.314  17.165  0.00  0.00    +0.000 C 
BRANCH  14  15
ATOM     15  N   UNL     1       6.338   6.618  17.744  0.00  0.00    +0.000 N 
ATOM     16  C   UNL     1       6.518   5.726  18.749  0.00  0.00    +0.000 A 
ATOM     17  C   UNL     1       5.447   5.012  19.274  0.00  0.00    +0.000 A 
ATOM     18  C   UNL     1       4.170   5.226  18.760  0.00  0.00    +0.000 A 
ATOM     19  C   UNL     1       4.001   6.131  17.719  0.00  0.00    +0.000 A 
ATOM     20  C   UNL     1       5.103   6.820  17.224  0.00  0.00    +0.000 A 
BRANCH  18  21
ATOM     21  C   UNL     1       3.068   4.402  19.303  0.00  0.00    +0.000 C 
ATOM     22  N   UNL     1       2.214   4.678  20.241  0.00  0.00    +0.000 NA
BRANCH  22  23
ATOM     23  O   UNL     1       2.432   5.905  20.864  0.00  0.00    +0.000 OA
ATOM     24  H   UNL     1       2.159   5.711  21.787  0.00  0.00    +0.000 HD
ENDBRANCH  22  23
ENDBRANCH  18  21
ENDBRANCH  14  15
ENDBRANCH   2  14
TORSDOF 8
ENDMDL
MODEL 6
REMARK VINA RESULT:      -6.5      1.864     10.007
REMARK  Name = 
REMARK  8 active torsions:
REMARK  status: ('A' for Active; 'I' for Inactive)
REMARK    1  A    between atoms: C_2  and  O_3
REMARK    2  A    between atoms: C_2  and  C_4
REMARK    3  A    between atoms: N_7  and  C_8
REMARK    4  A    between atoms: C_8  and  C_9
REMARK    5  A    between atoms: C_10  and  C_11
REMARK    6  A    between atoms: C_11  and  N_12
REMARK    7  A    between atoms: C_15  and  C_16
REMARK    8  A    between atoms: N_17  and  O_18
REMARK                            x       y       z     vdW  Elec       q    Type
REMARK                         _______ _______ _______ _____ _____    ______ ____
ROOT
ATOM      1  C   UNL     1       8.441   8.516  18.209  0.00  0.00    +0.000 C 
ATOM      2  C   UNL     1       8.580   9.840  18.436  0.00  0.00    +0.000 C 
ENDROOT
BRANCH   1   3
ATOM      3  C   UNL     1       7.589   7.886  17.126  0.00  0.00    +0.000 C 
BRANCH   3   7
ATOM      4  C   UNL     1       5.222   4.744  18.753  0.00  0.00    +0.000 A 
ATOM      5  C   UNL     1       6.457   5.066  19.318  0.00  0.00    +0.000 A 
ATOM      6  C   UNL     1       7.217   6.085  18.762  0.00  0.00    +0.000 A 
ATOM      7  N   UNL     1       6.765   6.780  17.688  0.00  0.00    +0.000 N 
ATOM      8  C   UNL     1       5.575   6.464  17.117  0.00  0.00    +0.000 A 
ATOM      9  C   UNL     1       4.777   5.447  17.638  0.00  0.00    +0.000 A 
BRANCH   4  11
ATOM     10  O   UNL     1       4.858   2.701  19.841  0.00  0.00    +0.000 OA
ATOM     11  C   UNL     1       4.381   3.752  19.454  0.00  0.00    +0.000 C 
BRANCH  11  12
ATOM     12  O   UNL     1       3.099   4.111  19.626  0.00  0.00    +0.000 OA
ATOM     13  H   UNL     1       2.664   3.919  20.475  0.00  0.00    +0.000 HD
ENDBRANCH  11  12
ENDBRANCH   4  11
ENDBRANCH   3   7
ENDBRANCH   1   3
BRANCH   2  14
ATOM     14  C   UNL     1       9.407  10.459  19.542  0.00  0.00    +0.000 C 
BRANCH  14  15
ATOM     15  N   UNL     1      10.219  11.594  19.037  0.00  0.00    +0.000 N 
ATOM     16  C   UNL     1      10.584  12.585  19.888  0.00  0.00    +0.000 A 
ATOM     17  C   UNL     1      11.292  13.692  19.435  0.00  0.00    +0.000 A 
ATOM     18  C   UNL     1      11.634  13.777  18.088  0.00  0.00    +0.000 A 
ATOM     19  C   UNL     1      11.240  12.763  17.223  0.00  0.00    +0.000 A 
ATOM     20  C   UNL     1      10.530  11.674  17.721  0.00  0.00    +0.000 A 
BRANCH  18  21
ATOM     21  C   UNL     1      12.333  14.999  17.636  0.00  0.00    +0.000 C 
ATOM     22  N   UNL     1      11.878  16.010  16.959  0.00  0.00    +0.000 NA
BRANCH  22  23
ATOM     23  O   UNL     1      10.557  15.867  16.544  0.00  0.00    +0.000 OA
ATOM     24  H   UNL     1      10.067  16.265  17.295  0.00  0.00    +0.000 HD
ENDBRANCH  22  23
ENDBRANCH  18  21
ENDBRANCH  14  15
ENDBRANCH   2  14
TORSDOF 8
ENDMDL
MODEL 7
REMARK VINA RESULT:      -6.5      1.414      9.877
REMARK  Name = 
REMARK  8 active torsions:
REMARK  status: ('A' for Active; 'I' for Inactive)
REMARK    1  A    between atoms: C_2  and  O_3
REMARK    2  A    between atoms: C_2  and  C_4
REMARK    3  A    between atoms: N_7  and  C_8
REMARK    4  A    between atoms: C_8  and  C_9
REMARK    5  A    between atoms: C_10  and  C_11
REMARK    6  A    between atoms: C_11  and  N_12
REMARK    7  A    between atoms: C_15  and  C_16
REMARK    8  A    between atoms: N_17  and  O_18
REMARK                            x       y       z     vdW  Elec       q    Type
REMARK                         _______ _______ _______ _____ _____    ______ ____
ROOT
ATOM      1  C   UNL     1       7.871   7.655  17.916  0.00  0.00    +0.000 C 
ATOM      2  C   UNL     1       8.174   8.967  18.022  0.00  0.00    +0.000 C 
ENDROOT
BRANCH   1   3
ATOM      3  C   UNL     1       6.888   7.048  16.937  0.00  0.00    +0.000 C 
BRANCH   3   7
ATOM      4  C   UNL     1       3.727   5.120  19.038  0.00  0.00    +0.000 A 
ATOM      5  C   UNL     1       5.058   4.832  19.341  0.00  0.00    +0.000 A 
ATOM      6  C   UNL     1       6.071   5.462  18.633  0.00  0.00    +0.000 A 
ATOM      7  N   UNL     1       5.781   6.366  17.664  0.00  0.00    +0.000 N 
ATOM      8  C   UNL     1       4.490   6.641  17.346  0.00  0.00    +0.000 A 
ATOM      9  C   UNL     1       3.439   6.031  18.027  0.00  0.00    +0.000 A 
BRANCH   4  11
ATOM     10  O   UNL     1       2.203   5.184  20.818  0.00  0.00    +0.000 OA
ATOM     11  C   UNL     1       2.681   4.537  19.904  0.00  0.00    +0.000 C 
BRANCH  11  12
ATOM     12  O   UNL     1       2.316   3.283  19.590  0.00  0.00    +0.000 OA
ATOM     13  H   UNL     1       1.929   2.717  20.281  0.00  0.00    +0.000 HD
ENDBRANCH  11  12
ENDBRANCH   4  11
ENDBRANCH   3   7
ENDBRANCH   1   3
BRANCH   2  14
ATOM     14  C   UNL     1       9.134   9.566  19.027  0.00  0.00    +0.000 C 
BRANCH  14  15
ATOM     15  N   UNL     1       9.439  10.982  18.702  0.00  0.00    +0.000 N 
ATOM     16  C   UNL     1      10.538  11.569  19.237  0.00  0.00    +0.000 A 
ATOM     17  C   UNL     1      10.820  12.909  19.001  0.00  0.00    +0.000 A 
ATOM     18  C   UNL     1       9.960  13.654  18.197  0.00  0.00    +0.000 A 
ATOM     19  C   UNL     1       8.829  13.046  17.668  0.00  0.00    +0.000 A 
ATOM     20  C   UNL     1       8.585  11.702  17.933  0.00  0.00    +0.000 A 
BRANCH  18  21
ATOM     21  C   UNL     1      10.263  15.091  18.022  0.00  0.00    +0.000 C 
ATOM     22  N   UNL     1      10.784  15.709  17.006  0.00  0.00    +0.000 NA
BRANCH  22  23
ATOM     23  O   UNL     1      11.176  14.866  15.969  0.00  0.00    +0.000 OA
ATOM     24  H   UNL     1      10.783  15.313  15.189  0.00  0.00    +0.000 HD
ENDBRANCH  22  23
ENDBRANCH  18  21
ENDBRANCH  14  15
ENDBRANCH   2  14
TORSDOF 8
ENDMDL
MODEL 8
REMARK VINA RESULT:      -6.5      6.493      9.105
REMARK  Name = 
REMARK  8 active torsions:
REMARK  status: ('A' for Active; 'I' for Inactive)
REMARK    1  A    between atoms: C_2  and  O_3
REMARK    2  A    between atoms: C_2  and  C_4
REMARK    3  A    between atoms: N_7  and  C_8
REMARK    4  A    between atoms: C_8  and  C_9
REMARK    5  A    between atoms: C_10  and  C_11
REMARK    6  A    between atoms: C_11  and  N_12
REMARK    7  A    between atoms: C_15  and  C_16
REMARK    8  A    between atoms: N_17  and  O_18
REMARK                            x       y       z     vdW  Elec       q    Type
REMARK                         _______ _______ _______ _____ _____    ______ ____
ROOT
ATOM      1  C   UNL     1       2.315   8.055  18.388  0.00  0.00    +0.000 C 
ATOM      2  C   UNL     1       1.495   8.840  19.119  0.00  0.00    +0.000 C 
ENDROOT
BRANCH   1   3
ATOM      3  C   UNL     1       2.575   6.581  18.624  0.00  0.00    +0.000 C 
BRANCH   3   7
ATOM      4  C   UNL     1       5.466   5.111  15.866  0.00  0.00    +0.000 A 
ATOM      5  C   UNL     1       5.339   6.481  16.096  0.00  0.00    +0.000 A 
ATOM      6  C   UNL     1       4.380   6.938  16.988  0.00  0.00    +0.000 A 
ATOM      7  N   UNL     1       3.578   6.066  17.651  0.00  0.00    +0.000 N 
ATOM      8  C   UNL     1       3.678   4.732  17.422  0.00  0.00    +0.000 A 
ATOM      9  C   UNL     1       4.624   4.226  16.533  0.00  0.00    +0.000 A 
BRANCH   4  11
ATOM     10  O   UNL     1       7.632   5.278  14.987  0.00  0.00    +0.000 OA
ATOM     11  C   UNL     1       6.587   4.655  15.018  0.00  0.00    +0.000 C 
BRANCH  11  12
ATOM     12  O   UNL     1       6.354   3.529  14.324  0.00  0.00    +0.000 OA
ATOM     13  H   UNL     1       7.104   3.067  13.909  0.00  0.00    +0.000 HD
ENDBRANCH  11  12
ENDBRANCH   4  11
ENDBRANCH   3   7
ENDBRANCH   1   3
BRANCH   2  14
ATOM     14  C   UNL     1       1.268  10.320  18.895  0.00  0.00    +0.000 C 
BRANCH  14  15
ATOM     15  N   UNL     1      -0.102  10.583  18.388  0.00  0.00    +0.000 N 
ATOM     16  C   UNL     1      -0.707   9.669  17.590  0.00  0.00    +0.000 A 
ATOM     17  C   UNL     1      -1.964   9.911  17.050  0.00  0.00    +0.000 A 
ATOM     18  C   UNL     1      -2.611  11.109  17.341  0.00  0.00    +0.000 A 
ATOM     19  C   UNL     1      -1.974  12.045  18.147  0.00  0.00    +0.000 A 
ATOM     20  C   UNL     1      -0.714  11.761  18.663  0.00  0.00    +0.000 A 
BRANCH  18  21
ATOM     21  C   UNL     1      -3.919  11.353  16.696  0.00  0.00    +0.000 C 
ATOM     22  N   UNL     1      -5.115  11.283  17.198  0.00  0.00    +0.000 NA
BRANCH  22  23
ATOM     23  O   UNL     1      -5.151  10.839  18.518  0.00  0.00    +0.000 OA
ATOM     24  H   UNL     1      -4.363  10.255  18.554  0.00  0.00    +0.000 HD
ENDBRANCH  22  23
ENDBRANCH  18  21
ENDBRANCH  14  15
ENDBRANCH   2  14
TORSDOF 8
ENDMDL
MODEL 9
REMARK VINA RESULT:      -6.5      2.642      9.745
REMARK  Name = 
REMARK  8 active torsions:
REMARK  status: ('A' for Active; 'I' for Inactive)
REMARK    1  A    between atoms: C_2  and  O_3
REMARK    2  A    between atoms: C_2  and  C_4
REMARK    3  A    between atoms: N_7  and  C_8
REMARK    4  A    between atoms: C_8  and  C_9
REMARK    5  A    between atoms: C_10  and  C_11
REMARK    6  A    between atoms: C_11  and  N_12
REMARK    7  A    between atoms: C_15  and  C_16
REMARK    8  A    between atoms: N_17  and  O_18
REMARK                            x       y       z     vdW  Elec       q    Type
REMARK                         _______ _______ _______ _____ _____    ______ ____
ROOT
ATOM      1  C   UNL     1       7.540   7.127  17.778  0.00  0.00    +0.000 C 
ATOM      2  C   UNL     1       8.196   8.219  18.226  0.00  0.00    +0.000 C 
ENDROOT
BRANCH   1   3
ATOM      3  C   UNL     1       7.474   5.784  18.475  0.00  0.00    +0.000 C 
BRANCH   3   7
ATOM      4  C   UNL     1       3.699   3.924  17.833  0.00  0.00    +0.000 A 
ATOM      5  C   UNL     1       4.700   3.847  16.864  0.00  0.00    +0.000 A 
ATOM      6  C   UNL     1       5.918   4.474  17.090  0.00  0.00    +0.000 A 
ATOM      7  N   UNL     1       6.149   5.143  18.246  0.00  0.00    +0.000 N 
ATOM      8  C   UNL     1       5.177   5.242  19.189  0.00  0.00    +0.000 A 
ATOM      9  C   UNL     1       3.937   4.633  19.006  0.00  0.00    +0.000 A 
BRANCH   4  11
ATOM     10  O   UNL     1       1.407   3.684  17.408  0.00  0.00    +0.000 OA
ATOM     11  C   UNL     1       2.470   3.131  17.619  0.00  0.00    +0.000 C 
BRANCH  11  12
ATOM     12  O   UNL     1       2.637   1.800  17.666  0.00  0.00    +0.000 OA
ATOM     13  H   UNL     1       3.350   1.432  18.217  0.00  0.00    +0.000 HD
ENDBRANCH  11  12
ENDBRANCH   4  11
ENDBRANCH   3   7
ENDBRANCH   1   3
BRANCH   2  14
ATOM     14  C   UNL     1       8.283   9.548  17.505  0.00  0.00    +0.000 C 
BRANCH  14  15
ATOM     15  N   UNL     1       8.843  10.603  18.387  0.00  0.00    +0.000 N 
ATOM     16  C   UNL     1       8.936  11.876  17.930  0.00  0.00    +0.000 A 
ATOM     17  C   UNL     1       9.509  12.875  18.707  0.00  0.00    +0.000 A 
ATOM     18  C   UNL     1       9.989  12.560  19.975  0.00  0.00    +0.000 A 
ATOM     19  C   UNL     1       9.903  11.248  20.426  0.00  0.00    +0.000 A 
ATOM     20  C   UNL     1       9.323  10.280  19.613  0.00  0.00    +0.000 A 
BRANCH  18  21
ATOM     21  C   UNL     1      10.648  13.639  20.744  0.00  0.00    +0.000 C 
ATOM     22  N   UNL     1      10.153  14.433  21.644  0.00  0.00    +0.000 NA
BRANCH  22  23
ATOM     23  O   UNL     1       8.784  14.281  21.845  0.00  0.00    +0.000 OA
ATOM     24  H   UNL     1       8.757  13.889  22.744  0.00  0.00    +0.000 HD
ENDBRANCH  22  23
ENDBRANCH  18  21
ENDBRANCH  14  15
ENDBRANCH   2  14
TORSDOF 8
ENDMDL
