MODEL 1
REMARK VINA RESULT:      -6.7      0.000      0.000
REMARK  Name = 
REMARK  4 active torsions:
REMARK  status: ('A' for Active; 'I' for Inactive)
REMARK    1  A    between atoms: C_1  and  N_2
REMARK    2  A    between atoms: N_2  and  C_3
REMARK    3  A    between atoms: N_2  and  C_4
REMARK    4  A    between atoms: C_7  and  C_8
REMARK                            x       y       z     vdW  Elec       q    Type
REMARK                         _______ _______ _______ _____ _____    ______ ____
ROOT
ATOM      1  C   UNL     1       1.452   8.190  20.564  0.00  0.00    +0.000 A 
ATOM      2  N   UNL     1       1.156   8.220  21.851  0.00  0.00    +0.000 NA
ATOM      3  C   UNL     1       0.378   9.336  21.983  0.00  0.00    +0.000 A 
ATOM      4  C   UNL     1      -0.299   9.853  23.093  0.00  0.00    +0.000 A 
ATOM      5  C   UNL     1      -1.080  11.005  22.914  0.00  0.00    +0.000 A 
ATOM      6  C   UNL     1      -1.160  11.629  21.661  0.00  0.00    +0.000 A 
ATOM      7  I   UNL     1      -2.354  13.325  21.451  0.00  0.00    +0.000 I 
ATOM      8  C   UNL     1      -0.475  11.138  20.542  0.00  0.00    +0.000 A 
ATOM      9  C   UNL     1       0.265   9.982  20.763  0.00  0.00    +0.000 A 
ATOM     10  O   UNL     1       0.972   9.261  19.844  0.00  0.00    +0.000 OA
ENDROOT
BRANCH   1  14
ATOM     11  C   UNL     1       3.154   4.933  18.282  0.00  0.00    +0.000 A 
ATOM     12  C   UNL     1       2.600   4.750  19.560  0.00  0.00    +0.000 A 
ATOM     13  C   UNL     1       2.096   5.821  20.313  0.00  0.00    +0.000 A 
ATOM     14  C   UNL     1       2.106   7.125  19.810  0.00  0.00    +0.000 A 
ATOM     15  C   UNL     1       2.677   7.336  18.555  0.00  0.00    +0.000 A 
ATOM     16  C   UNL     1       3.187   6.257  17.813  0.00  0.00    +0.000 A 
BRANCH  11  18
ATOM     17  C   UNL     1       3.287   2.492  17.866  0.00  0.00    +0.000 C 
ATOM     18  N   UNL     1       3.610   3.867  17.509  0.00  0.00    +0.000 N 
ATOM     19  C   UNL     1       4.709   4.072  16.572  0.00  0.00    +0.000 C 
ENDBRANCH  11  18
ENDBRANCH   1  14
TORSDOF 2
ENDMDL
MODEL 2
REMARK VINA RESULT:      -6.7      0.847      1.680
REMARK  Name = 
REMARK  4 active torsions:
REMARK  status: ('A' for Active; 'I' for Inactive)
REMARK    1  A    between atoms: C_1  and  N_2
REMARK    2  A    between atoms: N_2  and  C_3
REMARK    3  A    between atoms: N_2  and  C_4
REMARK    4  A    between atoms: C_7  and  C_8
REMARK                            x       y       z     vdW  Elec       q    Type
REMARK                         _______ _______ _______ _____ _____    ______ ____
ROOT
ATOM      1  C   UNL     1       1.442   8.571  20.314  0.00  0.00    +0.000 A 
ATOM      2  N   UNL     1       1.259   8.451  21.616  0.00  0.00    +0.000 NA
ATOM      3  C   UNL     1       0.371   9.446  21.916  0.00  0.00    +0.000 A 
ATOM      4  C   UNL     1      -0.261   9.775  23.121  0.00  0.00    +0.000 A 
ATOM      5  C   UNL     1      -1.184  10.832  23.116  0.00  0.00    +0.000 A 
ATOM      6  C   UNL     1      -1.447  11.548  21.939  0.00  0.00    +0.000 A 
ATOM      7  I   UNL     1      -2.845  13.094  21.989  0.00  0.00    +0.000 I 
ATOM      8  C   UNL     1      -0.811  11.246  20.729  0.00  0.00    +0.000 A 
ATOM      9  C   UNL     1       0.075  10.176  20.778  0.00  0.00    +0.000 A 
ATOM     10  O   UNL     1       0.778   9.633  19.742  0.00  0.00    +0.000 OA
ENDROOT
BRANCH   1  14
ATOM     11  C   UNL     1       3.750   6.018  17.693  0.00  0.00    +0.000 A 
ATOM     12  C   UNL     1       3.441   7.350  17.369  0.00  0.00    +0.000 A 
ATOM     13  C   UNL     1       2.649   8.154  18.201  0.00  0.00    +0.000 A 
ATOM     14  C   UNL     1       2.147   7.666  19.411  0.00  0.00    +0.000 A 
ATOM     15  C   UNL     1       2.417   6.338  19.742  0.00  0.00    +0.000 A 
ATOM     16  C   UNL     1       3.203   5.538  18.895  0.00  0.00    +0.000 A 
BRANCH  11  18
ATOM     17  C   UNL     1       5.361   5.822  15.819  0.00  0.00    +0.000 C 
ATOM     18  N   UNL     1       4.576   5.230  16.894  0.00  0.00    +0.000 N 
ATOM     19  C   UNL     1       4.388   3.784  16.866  0.00  0.00    +0.000 C 
ENDBRANCH  11  18
ENDBRANCH   1  14
TORSDOF 2
ENDMDL
MODEL 3
REMARK VINA RESULT:      -6.6      3.378      7.786
REMARK  Name = 
REMARK  4 active torsions:
REMARK  status: ('A' for Active; 'I' for Inactive)
REMARK    1  A    between atoms: C_1  and  N_2
REMARK    2  A    between atoms: N_2  and  C_3
REMARK    3  A    between atoms: N_2  and  C_4
REMARK    4  A    between atoms: C_7  and  C_8
REMARK                            x       y       z     vdW  Elec       q    Type
REMARK                         _______ _______ _______ _____ _____    ______ ____
ROOT
ATOM      1  C   UNL     1       1.353   8.267  20.432  0.00  0.00    +0.000 A 
ATOM      2  N   UNL     1       2.035   8.359  19.304  0.00  0.00    +0.000 NA
ATOM      3  C   UNL     1       2.473   7.083  19.081  0.00  0.00    +0.000 A 
ATOM      4  C   UNL     1       3.182   6.535  18.005  0.00  0.00    +0.000 A 
ATOM      5  C   UNL     1       3.448   5.157  18.024  0.00  0.00    +0.000 A 
ATOM      6  C   UNL     1       3.032   4.360  19.100  0.00  0.00    +0.000 A 
ATOM      7  I   UNL     1       3.437   2.316  19.060  0.00  0.00    +0.000 I 
ATOM      8  C   UNL     1       2.338   4.894  20.193  0.00  0.00    +0.000 A 
ATOM      9  C   UNL     1       2.076   6.257  20.119  0.00  0.00    +0.000 A 
ATOM     10  O   UNL     1       1.370   7.017  21.007  0.00  0.00    +0.000 OA
ENDROOT
BRANCH   1  14
ATOM     11  C   UNL     1      -0.968  11.297  22.468  0.00  0.00    +0.000 A 
ATOM     12  C   UNL     1      -0.723  10.032  23.027  0.00  0.00    +0.000 A 
ATOM     13  C   UNL     1      -0.012   9.038  22.338  0.00  0.00    +0.000 A 
ATOM     14  C   UNL     1       0.506   9.275  21.061  0.00  0.00    +0.000 A 
ATOM     15  C   UNL     1       0.251  10.514  20.473  0.00  0.00    +0.000 A 
ATOM     16  C   UNL     1      -0.471  11.499  21.169  0.00  0.00    +0.000 A 
BRANCH  11  18
ATOM     17  C   UNL     1      -3.020  12.144  23.571  0.00  0.00    +0.000 C 
ATOM     18  N   UNL     1      -1.630  12.304  23.167  0.00  0.00    +0.000 N 
ATOM     19  C   UNL     1      -1.084  13.657  23.173  0.00  0.00    +0.000 C 
ENDBRANCH  11  18
ENDBRANCH   1  14
TORSDOF 2
ENDMDL
MODEL 4
REMARK VINA RESULT:      -6.6      3.576      7.684
REMARK  Name = 
REMARK  4 active torsions:
REMARK  status: ('A' for Active; 'I' for Inactive)
REMARK    1  A    between atoms: C_1  and  N_2
REMARK    2  A    between atoms: N_2  and  C_3
REMARK    3  A    between atoms: N_2  and  C_4
REMARK    4  A    between atoms: C_7  and  C_8
REMARK                            x       y       z     vdW  Elec       q    Type
REMARK                         _______ _______ _______ _____ _____    ______ ____
ROOT
ATOM      1  C   UNL     1       2.296   7.322  19.397  0.00  0.00    +0.000 A 
ATOM      2  N   UNL     1       2.589   6.128  19.880  0.00  0.00    +0.000 NA
ATOM      3  C   UNL     1       3.473   5.615  18.972  0.00  0.00    +0.000 A 
ATOM      4  C   UNL     1       4.193   4.415  18.975  0.00  0.00    +0.000 A 
ATOM      5  C   UNL     1       5.085   4.177  17.918  0.00  0.00    +0.000 A 
ATOM      6  C   UNL     1       5.231   5.108  16.880  0.00  0.00    +0.000 A 
ATOM      7  I   UNL     1       6.588   4.710  15.348  0.00  0.00    +0.000 I 
ATOM      8  C   UNL     1       4.506   6.306  16.850  0.00  0.00    +0.000 A 
ATOM      9  C   UNL     1       3.654   6.508  17.930  0.00  0.00    +0.000 A 
ATOM     10  O   UNL     1       2.882   7.605  18.184  0.00  0.00    +0.000 OA
ENDROOT
BRANCH   1  14
ATOM     11  C   UNL     1      -0.145  10.429  21.158  0.00  0.00    +0.000 A 
ATOM     12  C   UNL     1       0.273  10.467  19.818  0.00  0.00    +0.000 A 
ATOM     13  C   UNL     1       1.107   9.481  19.269  0.00  0.00    +0.000 A 
ATOM     14  C   UNL     1       1.543   8.397  20.036  0.00  0.00    +0.000 A 
ATOM     15  C   UNL     1       1.164   8.352  21.378  0.00  0.00    +0.000 A 
ATOM     16  C   UNL     1       0.336   9.350  21.919  0.00  0.00    +0.000 A 
BRANCH  11  18
ATOM     17  C   UNL     1      -1.471  11.278  23.074  0.00  0.00    +0.000 C 
ATOM     18  N   UNL     1      -1.013  11.378  21.695  0.00  0.00    +0.000 N 
ATOM     19  C   UNL     1      -1.766  12.254  20.803  0.00  0.00    +0.000 C 
ENDBRANCH  11  18
ENDBRANCH   1  14
TORSDOF 2
ENDMDL
MODEL 5
REMARK VINA RESULT:      -6.6      1.974      2.952
REMARK  Name = 
REMARK  4 active torsions:
REMARK  status: ('A' for Active; 'I' for Inactive)
REMARK    1  A    between atoms: C_1  and  N_2
REMARK    2  A    between atoms: N_2  and  C_3
REMARK    3  A    between atoms: N_2  and  C_4
REMARK    4  A    between atoms: C_7  and  C_8
REMARK                            x       y       z     vdW  Elec       q    Type
REMARK                         _______ _______ _______ _____ _____    ______ ____
ROOT
ATOM      1  C   UNL     1       2.151   8.139  18.525  0.00  0.00    +0.000 A 
ATOM      2  N   UNL     1       1.644   9.144  17.833  0.00  0.00    +0.000 NA
ATOM      3  C   UNL     1       0.913   9.841  18.754  0.00  0.00    +0.000 A 
ATOM      4  C   UNL     1       0.206  11.043  18.640  0.00  0.00    +0.000 A 
ATOM      5  C   UNL     1      -0.414  11.557  19.790  0.00  0.00    +0.000 A 
ATOM      6  C   UNL     1      -0.342  10.871  21.011  0.00  0.00    +0.000 A 
ATOM      7  I   UNL     1      -1.265  11.695  22.689  0.00  0.00    +0.000 I 
ATOM      8  C   UNL     1       0.345   9.657  21.140  0.00  0.00    +0.000 A 
ATOM      9  C   UNL     1       0.963   9.201  19.982  0.00  0.00    +0.000 A 
ATOM     10  O   UNL     1       1.743   8.090  19.839  0.00  0.00    +0.000 OA
ENDROOT
BRANCH   1  14
ATOM     11  C   UNL     1       5.326   5.445  17.353  0.00  0.00    +0.000 A 
ATOM     12  C   UNL     1       4.986   6.582  16.602  0.00  0.00    +0.000 A 
ATOM     13  C   UNL     1       3.922   7.422  16.963  0.00  0.00    +0.000 A 
ATOM     14  C   UNL     1       3.160   7.171  18.108  0.00  0.00    +0.000 A 
ATOM     15  C   UNL     1       3.460   6.031  18.854  0.00  0.00    +0.000 A 
ATOM     16  C   UNL     1       4.523   5.192  18.478  0.00  0.00    +0.000 A 
BRANCH  11  18
ATOM     17  C   UNL     1       7.628   4.657  17.830  0.00  0.00    +0.000 C 
ATOM     18  N   UNL     1       6.412   4.635  17.028  0.00  0.00    +0.000 N 
ATOM     19  C   UNL     1       6.503   4.050  15.694  0.00  0.00    +0.000 C 
ENDBRANCH  11  18
ENDBRANCH   1  14
TORSDOF 2
ENDMDL
MODEL 6
REMARK VINA RESULT:      -6.6      3.213      7.705
REMARK  Name = 
REMARK  4 active torsions:
REMARK  status: ('A' for Active; 'I' for Inactive)
REMARK    1  A    between atoms: C_1  and  N_2
REMARK    2  A    between atoms: N_2  and  C_3
REMARK    3  A    between atoms: N_2  and  C_4
REMARK    4  A    between atoms: C_7  and  C_8
REMARK                            x       y       z     vdW  Elec       q    Type
REMARK                         _______ _______ _______ _____ _____    ______ ____
ROOT
ATOM      1  C   UNL     1       1.329   8.151  20.477  0.00  0.00    +0.000 A 
ATOM      2  N   UNL     1       1.501   6.892  20.841  0.00  0.00    +0.000 NA
ATOM      3  C   UNL     1       2.334   6.385  19.883  0.00  0.00    +0.000 A 
ATOM      4  C   UNL     1       2.933   5.125  19.767  0.00  0.00    +0.000 A 
ATOM      5  C   UNL     1       3.800   4.903  18.686  0.00  0.00    +0.000 A 
ATOM      6  C   UNL     1       4.042   5.911  17.742  0.00  0.00    +0.000 A 
ATOM      7  I   UNL     1       5.359   5.530  16.172  0.00  0.00    +0.000 I 
ATOM      8  C   UNL     1       3.439   7.172  17.832  0.00  0.00    +0.000 A 
ATOM      9  C   UNL     1       2.607   7.352  18.931  0.00  0.00    +0.000 A 
ATOM     10  O   UNL     1       1.946   8.490  19.294  0.00  0.00    +0.000 OA
ENDROOT
BRANCH   1  14
ATOM     11  C   UNL     1      -0.784  11.328  22.514  0.00  0.00    +0.000 A 
ATOM     12  C   UNL     1      -0.185  11.506  21.256  0.00  0.00    +0.000 A 
ATOM     13  C   UNL     1       0.541  10.485  20.626  0.00  0.00    +0.000 A 
ATOM     14  C   UNL     1       0.684   9.228  21.221  0.00  0.00    +0.000 A 
ATOM     15  C   UNL     1       0.122   9.036  22.483  0.00  0.00    +0.000 A 
ATOM     16  C   UNL     1      -0.596  10.069  23.109  0.00  0.00    +0.000 A 
BRANCH  11  18
ATOM     17  C   UNL     1      -2.963  12.111  23.403  0.00  0.00    +0.000 C 
ATOM     18  N   UNL     1      -1.549  12.322  23.122  0.00  0.00    +0.000 N 
ATOM     19  C   UNL     1      -1.062  13.697  23.140  0.00  0.00    +0.000 C 
ENDBRANCH  11  18
ENDBRANCH   1  14
TORSDOF 2
ENDMDL
MODEL 7
REMARK VINA RESULT:      -6.5      3.359      7.876
REMARK  Name = 
REMARK  4 active torsions:
REMARK  status: ('A' for Active; 'I' for Inactive)
REMARK    1  A    between atoms: C_1  and  N_2
REMARK    2  A    between atoms: N_2  and  C_3
REMARK    3  A    between atoms: N_2  and  C_4
REMARK    4  A    between atoms: C_7  and  C_8
REMARK                            x       y       z     vdW  Elec       q    Type
REMARK                         _______ _______ _______ _____ _____    ______ ____
ROOT
ATOM      1  C   UNL     1       1.319   8.443  20.605  0.00  0.00    +0.000 A 
ATOM      2  N   UNL     1       1.951   8.527  19.448  0.00  0.00    +0.000 NA
ATOM      3  C   UNL     1       2.267   7.230  19.153  0.00  0.00    +0.000 A 
ATOM      4  C   UNL     1       2.874   6.671  18.022  0.00  0.00    +0.000 A 
ATOM      5  C   UNL     1       3.023   5.277  17.972  0.00  0.00    +0.000 A 
ATOM      6  C   UNL     1       2.593   4.472  19.037  0.00  0.00    +0.000 A 
ATOM      7  I   UNL     1       2.821   2.404  18.896  0.00  0.00    +0.000 I 
ATOM      8  C   UNL     1       2.001   5.013  20.185  0.00  0.00    +0.000 A 
ATOM      9  C   UNL     1       1.852   6.395  20.177  0.00  0.00    +0.000 A 
ATOM     10  O   UNL     1       1.258   7.172  21.130  0.00  0.00    +0.000 OA
ENDROOT
BRANCH   1  14
ATOM     11  C   UNL     1      -1.034  11.511  22.545  0.00  0.00    +0.000 A 
ATOM     12  C   UNL     1      -0.438  11.700  21.287  0.00  0.00    +0.000 A 
ATOM     13  C   UNL     1       0.366  10.718  20.689  0.00  0.00    +0.000 A 
ATOM     14  C   UNL     1       0.591   9.489  21.317  0.00  0.00    +0.000 A 
ATOM     15  C   UNL     1       0.033   9.289  22.579  0.00  0.00    +0.000 A 
ATOM     16  C   UNL     1      -0.762  10.284  23.173  0.00  0.00    +0.000 A 
BRANCH  11  18
ATOM     17  C   UNL     1      -3.321  12.346  23.014  0.00  0.00    +0.000 C 
ATOM     18  N   UNL     1      -1.873  12.463  23.122  0.00  0.00    +0.000 N 
ATOM     19  C   UNL     1      -1.334  13.764  23.503  0.00  0.00    +0.000 C 
ENDBRANCH  11  18
ENDBRANCH   1  14
TORSDOF 2
ENDMDL
MODEL 8
REMARK VINA RESULT:      -6.5      0.553      1.226
REMARK  Name = 
REMARK  4 active torsions:
REMARK  status: ('A' for Active; 'I' for Inactive)
REMARK    1  A    between atoms: C_1  and  N_2
REMARK    2  A    between atoms: N_2  and  C_3
REMARK    3  A    between atoms: N_2  and  C_4
REMARK    4  A    between atoms: C_7  and  C_8
REMARK                            x       y       z     vdW  Elec       q    Type
REMARK                         _______ _______ _______ _____ _____    ______ ____
ROOT
ATOM      1  C   UNL     1       1.294   8.380  20.641  0.00  0.00    +0.000 A 
ATOM      2  N   UNL     1       0.988   8.421  21.925  0.00  0.00    +0.000 NA
ATOM      3  C   UNL     1       0.199   9.532  22.039  0.00  0.00    +0.000 A 
ATOM      4  C   UNL     1      -0.491  10.055  23.139  0.00  0.00    +0.000 A 
ATOM      5  C   UNL     1      -1.280  11.198  22.942  0.00  0.00    +0.000 A 
ATOM      6  C   UNL     1      -1.357  11.807  21.681  0.00  0.00    +0.000 A 
ATOM      7  I   UNL     1      -2.564  13.490  21.444  0.00  0.00    +0.000 I 
ATOM      8  C   UNL     1      -0.659  11.310  20.573  0.00  0.00    +0.000 A 
ATOM      9  C   UNL     1       0.089  10.163  20.811  0.00  0.00    +0.000 A 
ATOM     10  O   UNL     1       0.810   9.439  19.906  0.00  0.00    +0.000 OA
ENDROOT
BRANCH   1  14
ATOM     11  C   UNL     1       3.503   5.337  18.502  0.00  0.00    +0.000 A 
ATOM     12  C   UNL     1       3.309   6.630  17.988  0.00  0.00    +0.000 A 
ATOM     13  C   UNL     1       2.548   7.595  18.666  0.00  0.00    +0.000 A 
ATOM     14  C   UNL     1       1.963   7.313  19.904  0.00  0.00    +0.000 A 
ATOM     15  C   UNL     1       2.118   6.027  20.421  0.00  0.00    +0.000 A 
ATOM     16  C   UNL     1       2.874   5.066  19.729  0.00  0.00    +0.000 A 
BRANCH  11  18
ATOM     17  C   UNL     1       3.821   3.031  17.649  0.00  0.00    +0.000 C 
ATOM     18  N   UNL     1       4.298   4.391  17.858  0.00  0.00    +0.000 N 
ATOM     19  C   UNL     1       5.732   4.624  17.725  0.00  0.00    +0.000 C 
ENDBRANCH  11  18
ENDBRANCH   1  14
TORSDOF 2
ENDMDL
MODEL 9
REMARK VINA RESULT:      -6.5      1.887      2.652
REMARK  Name = 
REMARK  4 active torsions:
REMARK  status: ('A' for Active; 'I' for Inactive)
REMARK    1  A    between atoms: C_1  and  N_2
REMARK    2  A    between atoms: N_2  and  C_3
REMARK    3  A    between atoms: N_2  and  C_4
REMARK    4  A    between atoms: C_7  and  C_8
REMARK                            x       y       z     vdW  Elec       q    Type
REMARK                         _______ _______ _______ _____ _____    ______ ____
ROOT
ATOM      1  C   UNL     1       2.132   8.166  18.616  0.00  0.00    +0.000 A 
ATOM      2  N   UNL     1       1.420   8.990  17.869  0.00  0.00    +0.000 NA
ATOM      3  C   UNL     1       0.677   9.695  18.775  0.00  0.00    +0.000 A 
ATOM      4  C   UNL     1      -0.211  10.762  18.596  0.00  0.00    +0.000 A 
ATOM      5  C   UNL     1      -0.796  11.333  19.737  0.00  0.00    +0.000 A 
ATOM      6  C   UNL     1      -0.512  10.832  21.015  0.00  0.00    +0.000 A 
ATOM      7  I   UNL     1      -1.394  11.736  22.674  0.00  0.00    +0.000 I 
ATOM      8  C   UNL     1       0.359   9.753  21.213  0.00  0.00    +0.000 A 
ATOM      9  C   UNL     1       0.933   9.237  20.056  0.00  0.00    +0.000 A 
ATOM     10  O   UNL     1       1.855   8.235  19.963  0.00  0.00    +0.000 OA
ENDROOT
BRANCH   1  14
ATOM     11  C   UNL     1       5.224   5.421  17.342  0.00  0.00    +0.000 A 
ATOM     12  C   UNL     1       4.468   5.217  18.508  0.00  0.00    +0.000 A 
ATOM     13  C   UNL     1       3.502   6.139  18.941  0.00  0.00    +0.000 A 
ATOM     14  C   UNL     1       3.235   7.300  18.210  0.00  0.00    +0.000 A 
ATOM     15  C   UNL     1       3.993   7.539  17.064  0.00  0.00    +0.000 A 
ATOM     16  C   UNL     1       4.964   6.614  16.645  0.00  0.00    +0.000 A 
BRANCH  11  18
ATOM     17  C   UNL     1       7.506   4.454  17.409  0.00  0.00    +0.000 C 
ATOM     18  N   UNL     1       6.149   4.486  16.881  0.00  0.00    +0.000 N 
ATOM     19  C   UNL     1       5.905   3.790  15.623  0.00  0.00    +0.000 C 
ENDBRANCH  11  18
ENDBRANCH   1  14
TORSDOF 2
ENDMDL
