MODEL 1
REMARK VINA RESULT:      -6.3      0.000      0.000
REMARK  Name = 
REMARK  12 active torsions:
REMARK  status: ('A' for Active; 'I' for Inactive)
REMARK    1  A    between atoms: C_1  and  C_2
REMARK    2  A    between atoms: C_2  and  C_3
REMARK    3  A    between atoms: C_3  and  C_4
REMARK    4  A    between atoms: C_4  and  C_5
REMARK    5  A    between atoms: C_5  and  C_6
REMARK    6  A    between atoms: C_6  and  C_7
REMARK    7  A    between atoms: C_7  and  C_8
REMARK    8  A    between atoms: C_8  and  N_9
REMARK    9  A    between atoms: C_10  and  C_12
REMARK   10  A    between atoms: C_12  and  C_13
REMARK   11  A    between atoms: C_13  and  C_14
REMARK   12  A    between atoms: C_14  and  C_15
REMARK                            x       y       z     vdW  Elec       q    Type
REMARK                         _______ _______ _______ _____ _____    ______ ____
ROOT
ATOM      1  N   UNL     1       5.151   3.491  17.811  0.00  0.00    +0.000 N 
ATOM      2  C   UNL     1       4.508   4.285  16.894  0.00  0.00    +0.000 C 
ATOM      3  O   UNL     1       3.536   4.986  17.184  0.00  0.00    +0.000 OA
ATOM      4  H   UNL     1       5.963   2.950  17.528  0.00  0.00    +0.000 HD
ENDROOT
BRANCH   1   5
ATOM      5  C   UNL     1       4.700   3.456  19.185  0.00  0.00    +0.000 C 
BRANCH   5   6
ATOM      6  C   UNL     1       4.129   2.105  19.592  0.00  0.00    +0.000 C 
BRANCH   6   7
ATOM      7  C   UNL     1       3.171   1.565  18.532  0.00  0.00    +0.000 C 
BRANCH   7   8
ATOM      8  C   UNL     1       1.830   2.284  18.588  0.00  0.00    +0.000 C 
BRANCH   8   9
ATOM      9  C   UNL     1       1.399   2.517  20.032  0.00  0.00    +0.000 C 
BRANCH   9  10
ATOM     10  C   UNL     1       0.855   3.931  20.208  0.00  0.00    +0.000 C 
BRANCH  10  12
ATOM     11  C   UNL     1       2.028   6.145  20.222  0.00  0.00    +0.000 C 
ATOM     12  C   UNL     1       1.857   4.818  20.939  0.00  0.00    +0.000 C 
ENDBRANCH  10  12
ENDBRANCH   9  10
ENDBRANCH   8   9
ENDBRANCH   7   8
ENDBRANCH   6   7
ENDBRANCH   5   6
ENDBRANCH   1   5
BRANCH   2  13
ATOM     13  C   UNL     1       5.118   4.286  15.513  0.00  0.00    +0.000 C 
BRANCH  13  14
ATOM     14  C   UNL     1       6.463   5.008  15.489  0.00  0.00    +0.000 C 
BRANCH  14  15
ATOM     15  C   UNL     1       6.386   6.428  16.055  0.00  0.00    +0.000 C 
BRANCH  15  16
ATOM     16  C   UNL     1       7.176   6.573  17.305  0.00  0.00    +0.000 A 
ATOM     17  C   UNL     1       7.852   7.682  17.765  0.00  0.00    +0.000 A 
ATOM     18  N   UNL     1       8.407   7.290  18.949  0.00  0.00    +0.000 N 
ATOM     19  C   UNL     1       8.070   5.983  19.159  0.00  0.00    +0.000 A 
ATOM     20  N   UNL     1       8.487   5.337  20.251  0.00  0.00    +0.000 N 
ATOM     21  N   UNL     1       7.326   5.524  18.185  0.00  0.00    +0.000 NA
ATOM     22  H   UNL     1       8.969   7.854  19.567  0.00  0.00    +0.000 HD
ATOM     23  H   UNL     1       9.158   5.704  20.912  0.00  0.00    +0.000 HD
ATOM     24  H   UNL     1       8.318   4.339  20.307  0.00  0.00    +0.000 HD
ENDBRANCH  15  16
ENDBRANCH  14  15
ENDBRANCH  13  14
ENDBRANCH   2  13
TORSDOF 11
ENDMDL
MODEL 2
REMARK VINA RESULT:      -6.2      2.589      6.232
REMARK  Name = 
REMARK  12 active torsions:
REMARK  status: ('A' for Active; 'I' for Inactive)
REMARK    1  A    between atoms: C_1  and  C_2
REMARK    2  A    between atoms: C_2  and  C_3
REMARK    3  A    between atoms: C_3  and  C_4
REMARK    4  A    between atoms: C_4  and  C_5
REMARK    5  A    between atoms: C_5  and  C_6
REMARK    6  A    between atoms: C_6  and  C_7
REMARK    7  A    between atoms: C_7  and  C_8
REMARK    8  A    between atoms: C_8  and  N_9
REMARK    9  A    between atoms: C_10  and  C_12
REMARK   10  A    between atoms: C_12  and  C_13
REMARK   11  A    between atoms: C_13  and  C_14
REMARK   12  A    between atoms: C_14  and  C_15
REMARK                            x       y       z     vdW  Elec       q    Type
REMARK                         _______ _______ _______ _____ _____    ______ ____
ROOT
ATOM      1  N   UNL     1       5.767   5.545  18.238  0.00  0.00    +0.000 N 
ATOM      2  C   UNL     1       4.684   6.264  17.795  0.00  0.00    +0.000 C 
ATOM      3  O   UNL     1       4.677   6.864  16.718  0.00  0.00    +0.000 OA
ATOM      4  H   UNL     1       5.715   5.048  19.121  0.00  0.00    +0.000 HD
ENDROOT
BRANCH   1   5
ATOM      5  C   UNL     1       6.964   5.463  17.429  0.00  0.00    +0.000 C 
BRANCH   5   6
ATOM      6  C   UNL     1       6.969   4.264  16.491  0.00  0.00    +0.000 C 
BRANCH   6   7
ATOM      7  C   UNL     1       7.024   4.702  15.029  0.00  0.00    +0.000 C 
BRANCH   7   8
ATOM      8  C   UNL     1       5.932   4.023  14.212  0.00  0.00    +0.000 C 
BRANCH   8   9
ATOM      9  C   UNL     1       6.380   3.823  12.768  0.00  0.00    +0.000 C 
BRANCH   9  10
ATOM     10  C   UNL     1       5.367   2.975  12.006  0.00  0.00    +0.000 C 
BRANCH  10  12
ATOM     11  C   UNL     1       3.342   3.019  10.532  0.00  0.00    +0.000 C 
ATOM     12  C   UNL     1       4.250   3.838  11.431  0.00  0.00    +0.000 C 
ENDBRANCH  10  12
ENDBRANCH   9  10
ENDBRANCH   8   9
ENDBRANCH   7   8
ENDBRANCH   6   7
ENDBRANCH   5   6
ENDBRANCH   1   5
BRANCH   2  13
ATOM     13  C   UNL     1       3.474   6.213  18.697  0.00  0.00    +0.000 C 
BRANCH  13  14
ATOM     14  C   UNL     1       2.218   5.791  17.936  0.00  0.00    +0.000 C 
BRANCH  14  15
ATOM     15  C   UNL     1       2.110   4.275  17.762  0.00  0.00    +0.000 C 
BRANCH  15  16
ATOM     16  C   UNL     1       2.696   3.539  18.912  0.00  0.00    +0.000 A 
ATOM     17  C   UNL     1       2.173   3.374  20.175  0.00  0.00    +0.000 A 
ATOM     18  N   UNL     1       3.098   2.624  20.845  0.00  0.00    +0.000 N 
ATOM     19  C   UNL     1       4.135   2.376  19.990  0.00  0.00    +0.000 A 
ATOM     20  N   UNL     1       5.190   1.661  20.387  0.00  0.00    +0.000 N 
ATOM     21  N   UNL     1       3.920   2.913  18.817  0.00  0.00    +0.000 NA
ATOM     22  H   UNL     1       3.039   2.305  21.798  0.00  0.00    +0.000 HD
ATOM     23  H   UNL     1       5.359   1.369  21.341  0.00  0.00    +0.000 HD
ATOM     24  H   UNL     1       5.988   1.605  19.764  0.00  0.00    +0.000 HD
ENDBRANCH  15  16
ENDBRANCH  14  15
ENDBRANCH  13  14
ENDBRANCH   2  13
TORSDOF 11
ENDMDL
MODEL 3
REMARK VINA RESULT:      -6.1      4.180      7.021
REMARK  Name = 
REMARK  12 active torsions:
REMARK  status: ('A' for Active; 'I' for Inactive)
REMARK    1  A    between atoms: C_1  and  C_2
REMARK    2  A    between atoms: C_2  and  C_3
REMARK    3  A    between atoms: C_3  and  C_4
REMARK    4  A    between atoms: C_4  and  C_5
REMARK    5  A    between atoms: C_5  and  C_6
REMARK    6  A    between atoms: C_6  and  C_7
REMARK    7  A    between atoms: C_7  and  C_8
REMARK    8  A    between atoms: C_8  and  N_9
REMARK    9  A    between atoms: C_10  and  C_12
REMARK   10  A    between atoms: C_12  and  C_13
REMARK   11  A    between atoms: C_13  and  C_14
REMARK   12  A    between atoms: C_14  and  C_15
REMARK                            x       y       z     vdW  Elec       q    Type
REMARK                         _______ _______ _______ _____ _____    ______ ____
ROOT
ATOM      1  N   UNL     1       7.579   6.346  18.462  0.00  0.00    +0.000 N 
ATOM      2  C   UNL     1       7.698   7.624  17.973  0.00  0.00    +0.000 C 
ATOM      3  O   UNL     1       6.994   8.055  17.057  0.00  0.00    +0.000 OA
ATOM      4  H   UNL     1       8.166   6.046  19.234  0.00  0.00    +0.000 HD
ENDROOT
BRANCH   1   5
ATOM      5  C   UNL     1       6.593   5.444  17.908  0.00  0.00    +0.000 C 
BRANCH   5   6
ATOM      6  C   UNL     1       7.107   4.663  16.707  0.00  0.00    +0.000 C 
BRANCH   6   7
ATOM      7  C   UNL     1       6.486   5.169  15.407  0.00  0.00    +0.000 C 
BRANCH   7   8
ATOM      8  C   UNL     1       6.845   4.261  14.238  0.00  0.00    +0.000 C 
BRANCH   8   9
ATOM      9  C   UNL     1       5.598   3.868  13.453  0.00  0.00    +0.000 C 
BRANCH   9  10
ATOM     10  C   UNL     1       5.977   3.325  12.080  0.00  0.00    +0.000 C 
BRANCH  10  12
ATOM     11  C   UNL     1       3.767   3.411  10.903  0.00  0.00    +0.000 C 
ATOM     12  C   UNL     1       4.841   2.505  11.480  0.00  0.00    +0.000 C 
ENDBRANCH  10  12
ENDBRANCH   9  10
ENDBRANCH   8   9
ENDBRANCH   7   8
ENDBRANCH   6   7
ENDBRANCH   5   6
ENDBRANCH   1   5
BRANCH   2  13
ATOM     13  C   UNL     1       8.714   8.486  18.682  0.00  0.00    +0.000 C 
BRANCH  13  14
ATOM     14  C   UNL     1       8.616   9.947  18.251  0.00  0.00    +0.000 C 
BRANCH  14  15
ATOM     15  C   UNL     1       9.462  10.881  19.119  0.00  0.00    +0.000 C 
BRANCH  15  16
ATOM     16  C   UNL     1      10.425  11.672  18.311  0.00  0.00    +0.000 A 
ATOM     17  C   UNL     1      11.794  11.536  18.239  0.00  0.00    +0.000 A 
ATOM     18  N   UNL     1      12.199  12.500  17.360  0.00  0.00    +0.000 N 
ATOM     19  C   UNL     1      11.090  13.183  16.946  0.00  0.00    +0.000 A 
ATOM     20  N   UNL     1      11.194  14.193  16.079  0.00  0.00    +0.000 N 
ATOM     21  N   UNL     1      10.005  12.706  17.501  0.00  0.00    +0.000 NA
ATOM     22  H   UNL     1      13.142  12.686  17.062  0.00  0.00    +0.000 HD
ATOM     23  H   UNL     1      12.069  14.597  15.773  0.00  0.00    +0.000 HD
ATOM     24  H   UNL     1      10.366  14.749  15.894  0.00  0.00    +0.000 HD
ENDBRANCH  15  16
ENDBRANCH  14  15
ENDBRANCH  13  14
ENDBRANCH   2  13
TORSDOF 11
ENDMDL
MODEL 4
REMARK VINA RESULT:      -6.1      2.439      6.730
REMARK  Name = 
REMARK  12 active torsions:
REMARK  status: ('A' for Active; 'I' for Inactive)
REMARK    1  A    between atoms: C_1  and  C_2
REMARK    2  A    between atoms: C_2  and  C_3
REMARK    3  A    between atoms: C_3  and  C_4
REMARK    4  A    between atoms: C_4  and  C_5
REMARK    5  A    between atoms: C_5  and  C_6
REMARK    6  A    between atoms: C_6  and  C_7
REMARK    7  A    between atoms: C_7  and  C_8
REMARK    8  A    between atoms: C_8  and  N_9
REMARK    9  A    between atoms: C_10  and  C_12
REMARK   10  A    between atoms: C_12  and  C_13
REMARK   11  A    between atoms: C_13  and  C_14
REMARK   12  A    between atoms: C_14  and  C_15
REMARK                            x       y       z     vdW  Elec       q    Type
REMARK                         _______ _______ _______ _____ _____    ______ ____
ROOT
ATOM      1  N   UNL     1       3.751   5.361  19.357  0.00  0.00    +0.000 N 
ATOM      2  C   UNL     1       2.665   6.192  19.489  0.00  0.00    +0.000 C 
ATOM      3  O   UNL     1       2.492   7.182  18.775  0.00  0.00    +0.000 OA
ATOM      4  H   UNL     1       3.836   4.544  19.953  0.00  0.00    +0.000 HD
ENDROOT
BRANCH   1   5
ATOM      5  C   UNL     1       4.749   5.627  18.344  0.00  0.00    +0.000 C 
BRANCH   5   6
ATOM      6  C   UNL     1       4.444   4.953  17.014  0.00  0.00    +0.000 C 
BRANCH   6   7
ATOM      7  C   UNL     1       5.121   5.679  15.854  0.00  0.00    +0.000 C 
BRANCH   7   8
ATOM      8  C   UNL     1       6.619   5.401  15.833  0.00  0.00    +0.000 C 
BRANCH   8   9
ATOM      9  C   UNL     1       6.969   4.395  14.742  0.00  0.00    +0.000 C 
BRANCH   9  10
ATOM     10  C   UNL     1       5.728   4.021  13.938  0.00  0.00    +0.000 C 
BRANCH  10  12
ATOM     11  C   UNL     1       7.306   4.330  12.018  0.00  0.00    +0.000 C 
ATOM     12  C   UNL     1       6.101   3.564  12.533  0.00  0.00    +0.000 C 
ENDBRANCH  10  12
ENDBRANCH   9  10
ENDBRANCH   8   9
ENDBRANCH   7   8
ENDBRANCH   6   7
ENDBRANCH   5   6
ENDBRANCH   1   5
BRANCH   2  13
ATOM     13  C   UNL     1       1.661   5.767  20.534  0.00  0.00    +0.000 C 
BRANCH  13  14
ATOM     14  C   UNL     1       2.192   4.625  21.397  0.00  0.00    +0.000 C 
BRANCH  14  15
ATOM     15  C   UNL     1       1.425   3.317  21.191  0.00  0.00    +0.000 C 
BRANCH  15  16
ATOM     16  C   UNL     1       1.814   2.637  19.929  0.00  0.00    +0.000 A 
ATOM     17  C   UNL     1       1.006   2.257  18.880  0.00  0.00    +0.000 A 
ATOM     18  N   UNL     1       1.849   1.677  17.976  0.00  0.00    +0.000 N 
ATOM     19  C   UNL     1       3.111   1.710  18.500  0.00  0.00    +0.000 A 
ATOM     20  N   UNL     1       4.144   1.202  17.823  0.00  0.00    +0.000 N 
ATOM     21  N   UNL     1       3.121   2.284  19.675  0.00  0.00    +0.000 NA
ATOM     22  H   UNL     1       1.600   1.289  17.081  0.00  0.00    +0.000 HD
ATOM     23  H   UNL     1       4.062   0.663  16.971  0.00  0.00    +0.000 HD
ATOM     24  H   UNL     1       5.038   1.136  18.298  0.00  0.00    +0.000 HD
ENDBRANCH  15  16
ENDBRANCH  14  15
ENDBRANCH  13  14
ENDBRANCH   2  13
TORSDOF 11
ENDMDL
MODEL 5
REMARK VINA RESULT:      -6.1      3.645      6.887
REMARK  Name = 
REMARK  12 active torsions:
REMARK  status: ('A' for Active; 'I' for Inactive)
REMARK    1  A    between atoms: C_1  and  C_2
REMARK    2  A    between atoms: C_2  and  C_3
REMARK    3  A    between atoms: C_3  and  C_4
REMARK    4  A    between atoms: C_4  and  C_5
REMARK    5  A    between atoms: C_5  and  C_6
REMARK    6  A    between atoms: C_6  and  C_7
REMARK    7  A    between atoms: C_7  and  C_8
REMARK    8  A    between atoms: C_8  and  N_9
REMARK    9  A    between atoms: C_10  and  C_12
REMARK   10  A    between atoms: C_12  and  C_13
REMARK   11  A    between atoms: C_13  and  C_14
REMARK   12  A    between atoms: C_14  and  C_15
REMARK                            x       y       z     vdW  Elec       q    Type
REMARK                         _______ _______ _______ _____ _____    ______ ____
ROOT
ATOM      1  N   UNL     1       6.851   4.257  14.265  0.00  0.00    +0.000 N 
ATOM      2  C   UNL     1       6.984   4.920  15.460  0.00  0.00    +0.000 C 
ATOM      3  O   UNL     1       7.701   5.914  15.595  0.00  0.00    +0.000 OA
ATOM      4  H   UNL     1       6.229   3.457  14.199  0.00  0.00    +0.000 HD
ENDROOT
BRANCH   1   5
ATOM      5  C   UNL     1       7.562   4.721  13.093  0.00  0.00    +0.000 C 
BRANCH   5   6
ATOM      6  C   UNL     1       6.859   4.366  11.790  0.00  0.00    +0.000 C 
BRANCH   6   7
ATOM      7  C   UNL     1       6.789   2.854  11.590  0.00  0.00    +0.000 C 
BRANCH   7   8
ATOM      8  C   UNL     1       5.350   2.359  11.649  0.00  0.00    +0.000 C 
BRANCH   8   9
ATOM      9  C   UNL     1       4.371   3.524  11.545  0.00  0.00    +0.000 C 
BRANCH   9  10
ATOM     10  C   UNL     1       3.238   3.188  10.580  0.00  0.00    +0.000 C 
BRANCH  10  12
ATOM     11  C   UNL     1       2.129   4.898   9.123  0.00  0.00    +0.000 C 
ATOM     12  C   UNL     1       3.346   4.008   9.299  0.00  0.00    +0.000 C 
ENDBRANCH  10  12
ENDBRANCH   9  10
ENDBRANCH   8   9
ENDBRANCH   7   8
ENDBRANCH   6   7
ENDBRANCH   5   6
ENDBRANCH   1   5
BRANCH   2  13
ATOM     13  C   UNL     1       6.137   4.378  16.587  0.00  0.00    +0.000 C 
BRANCH  13  14
ATOM     14  C   UNL     1       4.650   4.626  16.346  0.00  0.00    +0.000 C 
BRANCH  14  15
ATOM     15  C   UNL     1       3.836   4.668  17.642  0.00  0.00    +0.000 C 
BRANCH  15  16
ATOM     16  C   UNL     1       3.941   3.398  18.405  0.00  0.00    +0.000 A 
ATOM     17  C   UNL     1       3.271   2.213  18.188  0.00  0.00    +0.000 A 
ATOM     18  N   UNL     1       3.723   1.368  19.160  0.00  0.00    +0.000 N 
ATOM     19  C   UNL     1       4.622   2.055  19.928  0.00  0.00    +0.000 A 
ATOM     20  N   UNL     1       5.224   1.467  20.964  0.00  0.00    +0.000 N 
ATOM     21  N   UNL     1       4.775   3.280  19.495  0.00  0.00    +0.000 NA
ATOM     22  H   UNL     1       3.451   0.409  19.300  0.00  0.00    +0.000 HD
ATOM     23  H   UNL     1       4.981   0.554  21.326  0.00  0.00    +0.000 HD
ATOM     24  H   UNL     1       5.788   2.045  21.577  0.00  0.00    +0.000 HD
ENDBRANCH  15  16
ENDBRANCH  14  15
ENDBRANCH  13  14
ENDBRANCH   2  13
TORSDOF 11
ENDMDL
MODEL 6
REMARK VINA RESULT:      -6.0      2.144      6.536
REMARK  Name = 
REMARK  12 active torsions:
REMARK  status: ('A' for Active; 'I' for Inactive)
REMARK    1  A    between atoms: C_1  and  C_2
REMARK    2  A    between atoms: C_2  and  C_3
REMARK    3  A    between atoms: C_3  and  C_4
REMARK    4  A    between atoms: C_4  and  C_5
REMARK    5  A    between atoms: C_5  and  C_6
REMARK    6  A    between atoms: C_6  and  C_7
REMARK    7  A    between atoms: C_7  and  C_8
REMARK    8  A    between atoms: C_8  and  N_9
REMARK    9  A    between atoms: C_10  and  C_12
REMARK   10  A    between atoms: C_12  and  C_13
REMARK   11  A    between atoms: C_13  and  C_14
REMARK   12  A    between atoms: C_14  and  C_15
REMARK                            x       y       z     vdW  Elec       q    Type
REMARK                         _______ _______ _______ _____ _____    ______ ____
ROOT
ATOM      1  N   UNL     1       3.982   4.944  19.310  0.00  0.00    +0.000 N 
ATOM      2  C   UNL     1       3.088   5.986  19.320  0.00  0.00    +0.000 C 
ATOM      3  O   UNL     1       3.168   6.941  18.545  0.00  0.00    +0.000 OA
ATOM      4  H   UNL     1       3.859   4.168  19.953  0.00  0.00    +0.000 HD
ENDROOT
BRANCH   1   5
ATOM      5  C   UNL     1       5.073   4.931  18.359  0.00  0.00    +0.000 C 
BRANCH   5   6
ATOM      6  C   UNL     1       6.367   5.494  18.929  0.00  0.00    +0.000 C 
BRANCH   6   7
ATOM      7  C   UNL     1       7.380   5.786  17.824  0.00  0.00    +0.000 C 
BRANCH   7   8
ATOM      8  C   UNL     1       6.702   5.856  16.462  0.00  0.00    +0.000 C 
BRANCH   8   9
ATOM      9  C   UNL     1       7.330   4.862  15.491  0.00  0.00    +0.000 C 
BRANCH   9  10
ATOM     10  C   UNL     1       6.320   3.794  15.088  0.00  0.00    +0.000 C 
BRANCH  10  12
ATOM     11  C   UNL     1       6.090   3.477  12.614  0.00  0.00    +0.000 C 
ATOM     12  C   UNL     1       5.556   4.205  13.835  0.00  0.00    +0.000 C 
ENDBRANCH  10  12
ENDBRANCH   9  10
ENDBRANCH   8   9
ENDBRANCH   7   8
ENDBRANCH   6   7
ENDBRANCH   5   6
ENDBRANCH   1   5
BRANCH   2  13
ATOM     13  C   UNL     1       1.958   5.846  20.311  0.00  0.00    +0.000 C 
BRANCH  13  14
ATOM     14  C   UNL     1       2.228   4.736  21.325  0.00  0.00    +0.000 C 
BRANCH  14  15
ATOM     15  C   UNL     1       1.335   3.511  21.117  0.00  0.00    +0.000 C 
BRANCH  15  16
ATOM     16  C   UNL     1       1.751   2.713  19.934  0.00  0.00    +0.000 A 
ATOM     17  C   UNL     1       1.005   2.377  18.826  0.00  0.00    +0.000 A 
ATOM     18  N   UNL     1       1.849   1.642  18.042  0.00  0.00    +0.000 N 
ATOM     19  C   UNL     1       3.047   1.546  18.692  0.00  0.00    +0.000 A 
ATOM     20  N   UNL     1       4.065   0.872  18.151  0.00  0.00    +0.000 N 
ATOM     21  N   UNL     1       3.019   2.184  19.834  0.00  0.00    +0.000 NA
ATOM     22  H   UNL     1       1.638   1.236  17.145  0.00  0.00    +0.000 HD
ATOM     23  H   UNL     1       3.995   0.299  17.321  0.00  0.00    +0.000 HD
ATOM     24  H   UNL     1       4.892   0.723  18.718  0.00  0.00    +0.000 HD
ENDBRANCH  15  16
ENDBRANCH  14  15
ENDBRANCH  13  14
ENDBRANCH   2  13
TORSDOF 11
ENDMDL
MODEL 7
REMARK VINA RESULT:      -6.0      2.582      6.744
REMARK  Name = 
REMARK  12 active torsions:
REMARK  status: ('A' for Active; 'I' for Inactive)
REMARK    1  A    between atoms: C_1  and  C_2
REMARK    2  A    between atoms: C_2  and  C_3
REMARK    3  A    between atoms: C_3  and  C_4
REMARK    4  A    between atoms: C_4  and  C_5
REMARK    5  A    between atoms: C_5  and  C_6
REMARK    6  A    between atoms: C_6  and  C_7
REMARK    7  A    between atoms: C_7  and  C_8
REMARK    8  A    between atoms: C_8  and  N_9
REMARK    9  A    between atoms: C_10  and  C_12
REMARK   10  A    between atoms: C_12  and  C_13
REMARK   11  A    between atoms: C_13  and  C_14
REMARK   12  A    between atoms: C_14  and  C_15
REMARK                            x       y       z     vdW  Elec       q    Type
REMARK                         _______ _______ _______ _____ _____    ______ ____
ROOT
ATOM      1  N   UNL     1       3.401   5.398  18.709  0.00  0.00    +0.000 N 
ATOM      2  C   UNL     1       2.716   6.429  19.304  0.00  0.00    +0.000 C 
ATOM      3  O   UNL     1       2.494   7.499  18.734  0.00  0.00    +0.000 OA
ATOM      4  H   UNL     1       3.538   4.526  19.211  0.00  0.00    +0.000 HD
ENDROOT
BRANCH   1   5
ATOM      5  C   UNL     1       3.890   5.538  17.354  0.00  0.00    +0.000 C 
BRANCH   5   6
ATOM      6  C   UNL     1       4.743   4.360  16.904  0.00  0.00    +0.000 C 
BRANCH   6   7
ATOM      7  C   UNL     1       6.227   4.721  16.887  0.00  0.00    +0.000 C 
BRANCH   7   8
ATOM      8  C   UNL     1       6.789   4.665  15.473  0.00  0.00    +0.000 C 
BRANCH   8   9
ATOM      9  C   UNL     1       5.750   4.121  14.497  0.00  0.00    +0.000 C 
BRANCH   9  10
ATOM     10  C   UNL     1       6.407   3.727  13.178  0.00  0.00    +0.000 C 
BRANCH  10  12
ATOM     11  C   UNL     1       5.672   2.049  11.469  0.00  0.00    +0.000 C 
ATOM     12  C   UNL     1       5.361   3.383  12.124  0.00  0.00    +0.000 C 
ENDBRANCH  10  12
ENDBRANCH   9  10
ENDBRANCH   8   9
ENDBRANCH   7   8
ENDBRANCH   6   7
ENDBRANCH   5   6
ENDBRANCH   1   5
BRANCH   2  13
ATOM     13  C   UNL     1       2.199   6.132  20.691  0.00  0.00    +0.000 C 
BRANCH  13  14
ATOM     14  C   UNL     1       1.090   5.082  20.669  0.00  0.00    +0.000 C 
BRANCH  14  15
ATOM     15  C   UNL     1       1.564   3.706  21.141  0.00  0.00    +0.000 C 
BRANCH  15  16
ATOM     16  C   UNL     1       1.931   2.823  20.004  0.00  0.00    +0.000 A 
ATOM     17  C   UNL     1       1.121   2.349  18.995  0.00  0.00    +0.000 A 
ATOM     18  N   UNL     1       1.941   1.587  18.213  0.00  0.00    +0.000 N 
ATOM     19  C   UNL     1       3.190   1.610  18.767  0.00  0.00    +0.000 A 
ATOM     20  N   UNL     1       4.198   0.940  18.205  0.00  0.00    +0.000 N 
ATOM     21  N   UNL     1       3.215   2.349  19.846  0.00  0.00    +0.000 NA
ATOM     22  H   UNL     1       1.684   1.089  17.376  0.00  0.00    +0.000 HD
ATOM     23  H   UNL     1       4.097   0.289  17.438  0.00  0.00    +0.000 HD
ATOM     24  H   UNL     1       5.074   0.884  18.713  0.00  0.00    +0.000 HD
ENDBRANCH  15  16
ENDBRANCH  14  15
ENDBRANCH  13  14
ENDBRANCH   2  13
TORSDOF 11
ENDMDL
MODEL 8
REMARK VINA RESULT:      -6.0      2.032      3.396
REMARK  Name = 
REMARK  12 active torsions:
REMARK  status: ('A' for Active; 'I' for Inactive)
REMARK    1  A    between atoms: C_1  and  C_2
REMARK    2  A    between atoms: C_2  and  C_3
REMARK    3  A    between atoms: C_3  and  C_4
REMARK    4  A    between atoms: C_4  and  C_5
REMARK    5  A    between atoms: C_5  and  C_6
REMARK    6  A    between atoms: C_6  and  C_7
REMARK    7  A    between atoms: C_7  and  C_8
REMARK    8  A    between atoms: C_8  and  N_9
REMARK    9  A    between atoms: C_10  and  C_12
REMARK   10  A    between atoms: C_12  and  C_13
REMARK   11  A    between atoms: C_13  and  C_14
REMARK   12  A    between atoms: C_14  and  C_15
REMARK                            x       y       z     vdW  Elec       q    Type
REMARK                         _______ _______ _______ _____ _____    ______ ____
ROOT
ATOM      1  N   UNL     1       4.436   3.132  18.450  0.00  0.00    +0.000 N 
ATOM      2  C   UNL     1       4.313   4.485  18.252  0.00  0.00    +0.000 C 
ATOM      3  O   UNL     1       3.408   4.981  17.576  0.00  0.00    +0.000 OA
ATOM      4  H   UNL     1       5.184   2.774  19.034  0.00  0.00    +0.000 HD
ENDROOT
BRANCH   1   5
ATOM      5  C   UNL     1       3.477   2.221  17.862  0.00  0.00    +0.000 C 
BRANCH   5   6
ATOM      6  C   UNL     1       2.596   1.534  18.895  0.00  0.00    +0.000 C 
BRANCH   6   7
ATOM      7  C   UNL     1       1.273   2.274  19.078  0.00  0.00    +0.000 C 
BRANCH   7   8
ATOM      8  C   UNL     1       1.276   3.096  20.360  0.00  0.00    +0.000 C 
BRANCH   8   9
ATOM      9  C   UNL     1       0.928   4.552  20.072  0.00  0.00    +0.000 C 
BRANCH   9  10
ATOM     10  C   UNL     1       1.854   5.487  20.843  0.00  0.00    +0.000 C 
BRANCH  10  12
ATOM     11  C   UNL     1       1.445   7.956  20.972  0.00  0.00    +0.000 C 
ATOM     12  C   UNL     1       2.004   6.825  20.127  0.00  0.00    +0.000 C 
ENDBRANCH  10  12
ENDBRANCH   9  10
ENDBRANCH   8   9
ENDBRANCH   7   8
ENDBRANCH   6   7
ENDBRANCH   5   6
ENDBRANCH   1   5
BRANCH   2  13
ATOM     13  C   UNL     1       5.334   5.330  18.975  0.00  0.00    +0.000 C 
BRANCH  13  14
ATOM     14  C   UNL     1       6.420   5.838  18.030  0.00  0.00    +0.000 C 
BRANCH  14  15
ATOM     15  C   UNL     1       7.246   4.708  17.412  0.00  0.00    +0.000 C 
BRANCH  15  16
ATOM     16  C   UNL     1       7.012   4.582  15.950  0.00  0.00    +0.000 A 
ATOM     17  C   UNL     1       6.144   3.738  15.294  0.00  0.00    +0.000 A 
ATOM     18  N   UNL     1       6.313   4.018  13.968  0.00  0.00    +0.000 N 
ATOM     19  C   UNL     1       7.266   4.992  13.864  0.00  0.00    +0.000 A 
ATOM     20  N   UNL     1       7.636   5.460  12.669  0.00  0.00    +0.000 N 
ATOM     21  N   UNL     1       7.704   5.354  15.043  0.00  0.00    +0.000 NA
ATOM     22  H   UNL     1       5.830   3.590  13.195  0.00  0.00    +0.000 HD
ATOM     23  H   UNL     1       7.351   5.062  11.784  0.00  0.00    +0.000 HD
ATOM     24  H   UNL     1       8.429   6.091  12.630  0.00  0.00    +0.000 HD
ENDBRANCH  15  16
ENDBRANCH  14  15
ENDBRANCH  13  14
ENDBRANCH   2  13
TORSDOF 11
ENDMDL
MODEL 9
REMARK VINA RESULT:      -5.9      1.878      3.225
REMARK  Name = 
REMARK  12 active torsions:
REMARK  status: ('A' for Active; 'I' for Inactive)
REMARK    1  A    between atoms: C_1  and  C_2
REMARK    2  A    between atoms: C_2  and  C_3
REMARK    3  A    between atoms: C_3  and  C_4
REMARK    4  A    between atoms: C_4  and  C_5
REMARK    5  A    between atoms: C_5  and  C_6
REMARK    6  A    between atoms: C_6  and  C_7
REMARK    7  A    between atoms: C_7  and  C_8
REMARK    8  A    between atoms: C_8  and  N_9
REMARK    9  A    between atoms: C_10  and  C_12
REMARK   10  A    between atoms: C_12  and  C_13
REMARK   11  A    between atoms: C_13  and  C_14
REMARK   12  A    between atoms: C_14  and  C_15
REMARK                            x       y       z     vdW  Elec       q    Type
REMARK                         _______ _______ _______ _____ _____    ______ ____
ROOT
ATOM      1  N   UNL     1       2.160   2.560  18.468  0.00  0.00    +0.000 N 
ATOM      2  C   UNL     1       2.327   3.583  17.568  0.00  0.00    +0.000 C 
ATOM      3  O   UNL     1       1.397   4.298  17.190  0.00  0.00    +0.000 OA
ATOM      4  H   UNL     1       2.962   2.014  18.767  0.00  0.00    +0.000 HD
ENDROOT
BRANCH   1   5
ATOM      5  C   UNL     1       0.851   2.287  19.023  0.00  0.00    +0.000 C 
BRANCH   5   6
ATOM      6  C   UNL     1       0.601   3.003  20.342  0.00  0.00    +0.000 C 
BRANCH   6   7
ATOM      7  C   UNL     1       1.859   3.031  21.207  0.00  0.00    +0.000 C 
BRANCH   7   8
ATOM      8  C   UNL     1       2.276   4.462  21.523  0.00  0.00    +0.000 C 
BRANCH   8   9
ATOM      9  C   UNL     1       1.720   5.431  20.485  0.00  0.00    +0.000 C 
BRANCH   9  10
ATOM     10  C   UNL     1       2.820   6.352  19.968  0.00  0.00    +0.000 C 
BRANCH  10  12
ATOM     11  C   UNL     1       3.248   7.409  17.737  0.00  0.00    +0.000 C 
ATOM     12  C   UNL     1       2.284   7.305  18.906  0.00  0.00    +0.000 C 
ENDBRANCH  10  12
ENDBRANCH   9  10
ENDBRANCH   8   9
ENDBRANCH   7   8
ENDBRANCH   6   7
ENDBRANCH   5   6
ENDBRANCH   1   5
BRANCH   2  13
ATOM     13  C   UNL     1       3.751   3.809  17.119  0.00  0.00    +0.000 C 
BRANCH  13  14
ATOM     14  C   UNL     1       4.755   3.400  18.194  0.00  0.00    +0.000 C 
BRANCH  14  15
ATOM     15  C   UNL     1       5.603   4.572  18.692  0.00  0.00    +0.000 C 
BRANCH  15  16
ATOM     16  C   UNL     1       6.374   5.208  17.593  0.00  0.00    +0.000 A 
ATOM     17  C   UNL     1       6.958   6.456  17.570  0.00  0.00    +0.000 A 
ATOM     18  N   UNL     1       7.539   6.551  16.338  0.00  0.00    +0.000 N 
ATOM     19  C   UNL     1       7.283   5.391  15.662  0.00  0.00    +0.000 A 
ATOM     20  N   UNL     1       7.734   5.211  14.418  0.00  0.00    +0.000 N 
ATOM     21  N   UNL     1       6.585   4.561  16.395  0.00  0.00    +0.000 NA
ATOM     22  H   UNL     1       8.063   7.332  15.977  0.00  0.00    +0.000 HD
ATOM     23  H   UNL     1       8.167   5.932  13.856  0.00  0.00    +0.000 HD
ATOM     24  H   UNL     1       7.419   4.391  13.912  0.00  0.00    +0.000 HD
ENDBRANCH  15  16
ENDBRANCH  14  15
ENDBRANCH  13  14
ENDBRANCH   2  13
TORSDOF 11
ENDMDL
