MODEL 1
REMARK VINA RESULT:      -7.8      0.000      0.000
REMARK  Name = 
REMARK  12 active torsions:
REMARK  status: ('A' for Active; 'I' for Inactive)
REMARK    1  A    between atoms: C_1  and  C_2
REMARK    2  A    between atoms: C_2  and  C_3
REMARK    3  A    between atoms: C_3  and  C_4
REMARK    4  A    between atoms: C_4  and  N_5
REMARK    5  A    between atoms: N_5  and  C_6
REMARK    6  A    between atoms: N_5  and  C_10
REMARK    7  A    between atoms: C_6  and  C_7
REMARK    8  A    between atoms: C_7  and  C_8
REMARK    9  A    between atoms: C_8  and  C_9
REMARK   10  A    between atoms: C_10  and  C_11
REMARK   11  A    between atoms: N_13  and  C_14
REMARK   12  A    between atoms: N_24  and  C_25
REMARK                            x       y       z     vdW  Elec       q    Type
REMARK                         _______ _______ _______ _____ _____    ______ ____
ROOT
ATOM      1  C   UNL     1       5.733   4.476  17.885  0.00  0.00    +0.000 C 
ATOM      2  O   UNL     1       6.233   4.435  19.008  0.00  0.00    +0.000 OA
ATOM      3  N   UNL     1       4.415   4.796  17.603  0.00  0.00    +0.000 N 
ATOM      4  H   UNL     1       4.074   4.441  16.718  0.00  0.00    +0.000 HD
ENDROOT
BRANCH   3   5
ATOM      5  C   UNL     1       3.492   5.213  18.586  0.00  0.00    +0.000 A 
ATOM      6  C   UNL     1       3.034   6.521  18.624  0.00  0.00    +0.000 A 
ATOM      7  C   UNL     1       2.108   6.893  19.589  0.00  0.00    +0.000 A 
ATOM      8  N   UNL     1       1.670   6.065  20.546  0.00  0.00    +0.000 NA
ATOM      9  C   UNL     1       2.077   4.789  20.499  0.00  0.00    +0.000 A 
ATOM     10  C   UNL     1       1.592   3.925  21.470  0.00  0.00    +0.000 A 
ATOM     11  C   UNL     1       1.908   2.566  21.481  0.00  0.00    +0.000 A 
ATOM     12  C   UNL     1       2.739   2.047  20.499  0.00  0.00    +0.000 A 
ATOM     13  C   UNL     1       3.272   2.896  19.531  0.00  0.00    +0.000 A 
ATOM     14  C   UNL     1       2.959   4.278  19.510  0.00  0.00    +0.000 A 
ATOM     15  N   UNL     1       1.579   8.180  19.352  0.00  0.00    +0.000 N 
ATOM     16  C   UNL     1       1.137   8.932  20.507  0.00  0.00    +0.000 C 
ATOM     17  C   UNL     1       2.496   8.791  18.391  0.00  0.00    +0.000 C 
ATOM     18  C   UNL     1       3.216   7.648  17.662  0.00  0.00    +0.000 C 
ENDBRANCH   3   5
BRANCH   1  19
ATOM     19  C   UNL     1       6.536   4.043  16.657  0.00  0.00    +0.000 C 
BRANCH  19  20
ATOM     20  N   UNL     1       7.262   5.177  16.010  0.00  0.00    +0.000 NA
BRANCH  20  21
ATOM     21  C   UNL     1       6.988   5.140  14.548  0.00  0.00    +0.000 C 
BRANCH  21  22
ATOM     22  C   UNL     1       6.048   4.042  14.034  0.00  0.00    +0.000 C 
BRANCH  22  24
ATOM     23  C   UNL     1       5.011   3.164  11.933  0.00  0.00    +0.000 C 
ATOM     24  C   UNL     1       6.310   3.605  12.594  0.00  0.00    +0.000 C 
ENDBRANCH  22  24
ENDBRANCH  21  22
ENDBRANCH  20  21
BRANCH  20  25
ATOM     25  C   UNL     1       6.800   6.459  16.590  0.00  0.00    +0.000 C 
BRANCH  25  26
ATOM     26  C   UNL     1       7.762   7.145  17.579  0.00  0.00    +0.000 C 
BRANCH  26  27
ATOM     27  C   UNL     1       7.700   8.673  17.546  0.00  0.00    +0.000 C 
ATOM     28  C   UNL     1       8.687   9.275  18.536  0.00  0.00    +0.000 C 
ENDBRANCH  26  27
ENDBRANCH  25  26
ENDBRANCH  20  25
ENDBRANCH  19  20
ENDBRANCH   1  19
TORSDOF 9
ENDMDL
MODEL 2
REMARK VINA RESULT:      -7.7      2.604      7.422
REMARK  Name = 
REMARK  12 active torsions:
REMARK  status: ('A' for Active; 'I' for Inactive)
REMARK    1  A    between atoms: C_1  and  C_2
REMARK    2  A    between atoms: C_2  and  C_3
REMARK    3  A    between atoms: C_3  and  C_4
REMARK    4  A    between atoms: C_4  and  N_5
REMARK    5  A    between atoms: N_5  and  C_6
REMARK    6  A    between atoms: N_5  and  C_10
REMARK    7  A    between atoms: C_6  and  C_7
REMARK    8  A    between atoms: C_7  and  C_8
REMARK    9  A    between atoms: C_8  and  C_9
REMARK   10  A    between atoms: C_10  and  C_11
REMARK   11  A    between atoms: N_13  and  C_14
REMARK   12  A    between atoms: N_24  and  C_25
REMARK                            x       y       z     vdW  Elec       q    Type
REMARK                         _______ _______ _______ _____ _____    ______ ____
ROOT
ATOM      1  C   UNL     1       2.034   8.072  18.503  0.00  0.00    +0.000 C 
ATOM      2  O   UNL     1       1.742   8.059  17.308  0.00  0.00    +0.000 OA
ATOM      3  N   UNL     1       2.642   7.037  19.194  0.00  0.00    +0.000 N 
ATOM      4  H   UNL     1       2.485   7.048  20.195  0.00  0.00    +0.000 HD
ENDROOT
BRANCH   3   5
ATOM      5  C   UNL     1       3.091   5.851  18.575  0.00  0.00    +0.000 A 
ATOM      6  C   UNL     1       4.202   5.857  17.746  0.00  0.00    +0.000 A 
ATOM      7  C   UNL     1       4.632   4.669  17.170  0.00  0.00    +0.000 A 
ATOM      8  N   UNL     1       3.989   3.505  17.319  0.00  0.00    +0.000 NA
ATOM      9  C   UNL     1       2.934   3.478  18.147  0.00  0.00    +0.000 A 
ATOM     10  C   UNL     1       2.292   2.261  18.327  0.00  0.00    +0.000 A 
ATOM     11  C   UNL     1       1.221   2.110  19.207  0.00  0.00    +0.000 A 
ATOM     12  C   UNL     1       0.765   3.203  19.929  0.00  0.00    +0.000 A 
ATOM     13  C   UNL     1       1.366   4.447  19.743  0.00  0.00    +0.000 A 
ATOM     14  C   UNL     1       2.455   4.614  18.851  0.00  0.00    +0.000 A 
ATOM     15  N   UNL     1       5.892   4.804  16.548  0.00  0.00    +0.000 N 
ATOM     16  C   UNL     1       6.170   3.928  15.430  0.00  0.00    +0.000 C 
ATOM     17  C   UNL     1       6.090   6.247  16.410  0.00  0.00    +0.000 C 
ATOM     18  C   UNL     1       5.204   6.928  17.463  0.00  0.00    +0.000 C 
ENDBRANCH   3   5
BRANCH   1  19
ATOM     19  C   UNL     1       1.626   9.248  19.392  0.00  0.00    +0.000 C 
BRANCH  19  20
ATOM     20  N   UNL     1       0.157   9.516  19.361  0.00  0.00    +0.000 NA
BRANCH  20  21
ATOM     21  C   UNL     1      -0.300   9.806  20.748  0.00  0.00    +0.000 C 
BRANCH  21  22
ATOM     22  C   UNL     1       0.346   9.003  21.885  0.00  0.00    +0.000 C 
BRANCH  22  24
ATOM     23  C   UNL     1      -1.057  10.592  23.214  0.00  0.00    +0.000 C 
ATOM     24  C   UNL     1       0.003   9.501  23.288  0.00  0.00    +0.000 C 
ENDBRANCH  22  24
ENDBRANCH  21  22
ENDBRANCH  20  21
BRANCH  20  25
ATOM     25  C   UNL     1      -0.119  10.671  18.475  0.00  0.00    +0.000 C 
BRANCH  25  26
ATOM     26  C   UNL     1      -1.595  11.091  18.343  0.00  0.00    +0.000 C 
BRANCH  26  27
ATOM     27  C   UNL     1      -2.477  10.047  17.656  0.00  0.00    +0.000 C 
ATOM     28  C   UNL     1      -2.496  10.264  16.149  0.00  0.00    +0.000 C 
ENDBRANCH  26  27
ENDBRANCH  25  26
ENDBRANCH  20  25
ENDBRANCH  19  20
ENDBRANCH   1  19
TORSDOF 9
ENDMDL
MODEL 3
REMARK VINA RESULT:      -7.5      2.588      7.242
REMARK  Name = 
REMARK  12 active torsions:
REMARK  status: ('A' for Active; 'I' for Inactive)
REMARK    1  A    between atoms: C_1  and  C_2
REMARK    2  A    between atoms: C_2  and  C_3
REMARK    3  A    between atoms: C_3  and  C_4
REMARK    4  A    between atoms: C_4  and  N_5
REMARK    5  A    between atoms: N_5  and  C_6
REMARK    6  A    between atoms: N_5  and  C_10
REMARK    7  A    between atoms: C_6  and  C_7
REMARK    8  A    between atoms: C_7  and  C_8
REMARK    9  A    between atoms: C_8  and  C_9
REMARK   10  A    between atoms: C_10  and  C_11
REMARK   11  A    between atoms: N_13  and  C_14
REMARK   12  A    between atoms: N_24  and  C_25
REMARK                            x       y       z     vdW  Elec       q    Type
REMARK                         _______ _______ _______ _____ _____    ______ ____
ROOT
ATOM      1  C   UNL     1       2.060   7.956  18.800  0.00  0.00    +0.000 C 
ATOM      2  O   UNL     1       1.631   8.049  17.651  0.00  0.00    +0.000 OA
ATOM      3  N   UNL     1       2.741   6.866  19.318  0.00  0.00    +0.000 N 
ATOM      4  H   UNL     1       2.703   6.785  20.327  0.00  0.00    +0.000 HD
ENDROOT
BRANCH   3   5
ATOM      5  C   UNL     1       3.113   5.746  18.545  0.00  0.00    +0.000 A 
ATOM      6  C   UNL     1       4.165   5.817  17.645  0.00  0.00    +0.000 A 
ATOM      7  C   UNL     1       4.519   4.690  16.917  0.00  0.00    +0.000 A 
ATOM      8  N   UNL     1       3.852   3.531  16.983  0.00  0.00    +0.000 NA
ATOM      9  C   UNL     1       2.855   3.438  17.875  0.00  0.00    +0.000 A 
ATOM     10  C   UNL     1       2.190   2.224  17.967  0.00  0.00    +0.000 A 
ATOM     11  C   UNL     1       1.176   2.001  18.899  0.00  0.00    +0.000 A 
ATOM     12  C   UNL     1       0.803   3.019  19.765  0.00  0.00    +0.000 A 
ATOM     13  C   UNL     1       1.428   4.262  19.672  0.00  0.00    +0.000 A 
ATOM     14  C   UNL     1       2.459   4.500  18.729  0.00  0.00    +0.000 A 
ATOM     15  N   UNL     1       5.738   4.863  16.225  0.00  0.00    +0.000 N 
ATOM     16  C   UNL     1       5.913   4.109  15.003  0.00  0.00    +0.000 C 
ATOM     17  C   UNL     1       5.970   6.308  16.231  0.00  0.00    +0.000 C 
ATOM     18  C   UNL     1       5.177   6.889  17.410  0.00  0.00    +0.000 C 
ENDBRANCH   3   5
BRANCH   1  19
ATOM     19  C   UNL     1       1.762   9.042  19.835  0.00  0.00    +0.000 C 
BRANCH  19  20
ATOM     20  N   UNL     1       0.642   9.941  19.425  0.00  0.00    +0.000 NA
BRANCH  20  21
ATOM     21  C   UNL     1      -0.311  10.057  20.563  0.00  0.00    +0.000 C 
BRANCH  21  22
ATOM     22  C   UNL     1      -0.077   9.144  21.774  0.00  0.00    +0.000 C 
BRANCH  22  24
ATOM     23  C   UNL     1      -1.059  11.146  22.909  0.00  0.00    +0.000 C 
ATOM     24  C   UNL     1      -0.543   9.727  23.107  0.00  0.00    +0.000 C 
ENDBRANCH  22  24
ENDBRANCH  21  22
ENDBRANCH  20  21
BRANCH  20  25
ATOM     25  C   UNL     1       1.180  11.274  19.066  0.00  0.00    +0.000 C 
BRANCH  25  26
ATOM     26  C   UNL     1       1.007  12.385  20.119  0.00  0.00    +0.000 C 
BRANCH  26  27
ATOM     27  C   UNL     1       0.302  13.635  19.591  0.00  0.00    +0.000 C 
ATOM     28  C   UNL     1      -0.459  13.326  18.309  0.00  0.00    +0.000 C 
ENDBRANCH  26  27
ENDBRANCH  25  26
ENDBRANCH  20  25
ENDBRANCH  19  20
ENDBRANCH   1  19
TORSDOF 9
ENDMDL
MODEL 4
REMARK VINA RESULT:      -7.5      1.579      3.750
REMARK  Name = 
REMARK  12 active torsions:
REMARK  status: ('A' for Active; 'I' for Inactive)
REMARK    1  A    between atoms: C_1  and  C_2
REMARK    2  A    between atoms: C_2  and  C_3
REMARK    3  A    between atoms: C_3  and  C_4
REMARK    4  A    between atoms: C_4  and  N_5
REMARK    5  A    between atoms: N_5  and  C_6
REMARK    6  A    between atoms: N_5  and  C_10
REMARK    7  A    between atoms: C_6  and  C_7
REMARK    8  A    between atoms: C_7  and  C_8
REMARK    9  A    between atoms: C_8  and  C_9
REMARK   10  A    between atoms: C_10  and  C_11
REMARK   11  A    between atoms: N_13  and  C_14
REMARK   12  A    between atoms: N_24  and  C_25
REMARK                            x       y       z     vdW  Elec       q    Type
REMARK                         _______ _______ _______ _____ _____    ______ ____
ROOT
ATOM      1  C   UNL     1       4.799   6.678  16.687  0.00  0.00    +0.000 C 
ATOM      2  O   UNL     1       5.470   7.397  17.424  0.00  0.00    +0.000 OA
ATOM      3  N   UNL     1       3.610   6.057  17.034  0.00  0.00    +0.000 N 
ATOM      4  H   UNL     1       3.382   5.241  16.479  0.00  0.00    +0.000 HD
ENDROOT
BRANCH   3   5
ATOM      5  C   UNL     1       2.966   6.254  18.274  0.00  0.00    +0.000 A 
ATOM      6  C   UNL     1       2.415   7.482  18.603  0.00  0.00    +0.000 A 
ATOM      7  C   UNL     1       1.768   7.637  19.821  0.00  0.00    +0.000 A 
ATOM      8  N   UNL     1       1.699   6.671  20.745  0.00  0.00    +0.000 NA
ATOM      9  C   UNL     1       2.197   5.468  20.426  0.00  0.00    +0.000 A 
ATOM     10  C   UNL     1       2.090   4.459  21.372  0.00  0.00    +0.000 A 
ATOM     11  C   UNL     1       2.525   3.157  21.122  0.00  0.00    +0.000 A 
ATOM     12  C   UNL     1       3.091   2.846  19.894  0.00  0.00    +0.000 A 
ATOM     13  C   UNL     1       3.245   3.847  18.936  0.00  0.00    +0.000 A 
ATOM     14  C   UNL     1       2.808   5.173  19.179  0.00  0.00    +0.000 A 
ATOM     15  N   UNL     1       1.072   8.863  19.904  0.00  0.00    +0.000 N 
ATOM     16  C   UNL     1       0.904   9.436  21.222  0.00  0.00    +0.000 C 
ATOM     17  C   UNL     1       1.618   9.677  18.818  0.00  0.00    +0.000 C 
ATOM     18  C   UNL     1       2.209   8.712  17.781  0.00  0.00    +0.000 C 
ENDBRANCH   3   5
BRANCH   1  19
ATOM     19  C   UNL     1       5.306   6.299  15.294  0.00  0.00    +0.000 C 
BRANCH  19  20
ATOM     20  N   UNL     1       6.258   5.148  15.317  0.00  0.00    +0.000 NA
BRANCH  20  21
ATOM     21  C   UNL     1       6.300   4.597  16.699  0.00  0.00    +0.000 C 
BRANCH  21  22
ATOM     22  C   UNL     1       7.673   4.495  17.376  0.00  0.00    +0.000 C 
BRANCH  22  24
ATOM     23  C   UNL     1       6.580   5.279  19.486  0.00  0.00    +0.000 C 
ATOM     24  C   UNL     1       7.831   5.364  18.623  0.00  0.00    +0.000 C 
ENDBRANCH  22  24
ENDBRANCH  21  22
ENDBRANCH  20  21
BRANCH  20  25
ATOM     25  C   UNL     1       5.806   4.110  14.361  0.00  0.00    +0.000 C 
BRANCH  25  26
ATOM     26  C   UNL     1       6.543   4.062  13.009  0.00  0.00    +0.000 C 
BRANCH  26  27
ATOM     27  C   UNL     1       5.999   3.009  12.043  0.00  0.00    +0.000 C 
ATOM     28  C   UNL     1       4.537   3.280  11.716  0.00  0.00    +0.000 C 
ENDBRANCH  26  27
ENDBRANCH  25  26
ENDBRANCH  20  25
ENDBRANCH  19  20
ENDBRANCH   1  19
TORSDOF 9
ENDMDL
MODEL 5
REMARK VINA RESULT:      -7.4      3.047      7.760
REMARK  Name = 
REMARK  12 active torsions:
REMARK  status: ('A' for Active; 'I' for Inactive)
REMARK    1  A    between atoms: C_1  and  C_2
REMARK    2  A    between atoms: C_2  and  C_3
REMARK    3  A    between atoms: C_3  and  C_4
REMARK    4  A    between atoms: C_4  and  N_5
REMARK    5  A    between atoms: N_5  and  C_6
REMARK    6  A    between atoms: N_5  and  C_10
REMARK    7  A    between atoms: C_6  and  C_7
REMARK    8  A    between atoms: C_7  and  C_8
REMARK    9  A    between atoms: C_8  and  C_9
REMARK   10  A    between atoms: C_10  and  C_11
REMARK   11  A    between atoms: N_13  and  C_14
REMARK   12  A    between atoms: N_24  and  C_25
REMARK                            x       y       z     vdW  Elec       q    Type
REMARK                         _______ _______ _______ _____ _____    ______ ____
ROOT
ATOM      1  C   UNL     1       2.155   8.022  18.530  0.00  0.00    +0.000 C 
ATOM      2  O   UNL     1       2.215   7.752  19.728  0.00  0.00    +0.000 OA
ATOM      3  N   UNL     1       2.810   7.340  17.518  0.00  0.00    +0.000 N 
ATOM      4  H   UNL     1       2.957   7.877  16.672  0.00  0.00    +0.000 HD
ENDROOT
BRANCH   3   5
ATOM      5  C   UNL     1       3.568   6.170  17.737  0.00  0.00    +0.000 A 
ATOM      6  C   UNL     1       2.950   4.940  17.901  0.00  0.00    +0.000 A 
ATOM      7  C   UNL     1       3.726   3.805  18.092  0.00  0.00    +0.000 A 
ATOM      8  N   UNL     1       5.060   3.835  18.195  0.00  0.00    +0.000 NA
ATOM      9  C   UNL     1       5.673   5.012  18.003  0.00  0.00    +0.000 A 
ATOM     10  C   UNL     1       7.059   5.032  18.073  0.00  0.00    +0.000 A 
ATOM     11  C   UNL     1       7.797   6.191  17.834  0.00  0.00    +0.000 A 
ATOM     12  C   UNL     1       7.141   7.373  17.522  0.00  0.00    +0.000 A 
ATOM     13  C   UNL     1       5.748   7.393  17.480  0.00  0.00    +0.000 A 
ATOM     14  C   UNL     1       4.986   6.222  17.721  0.00  0.00    +0.000 A 
ATOM     15  N   UNL     1       2.964   2.619  18.013  0.00  0.00    +0.000 N 
ATOM     16  C   UNL     1       3.438   1.482  18.772  0.00  0.00    +0.000 C 
ATOM     17  C   UNL     1       1.575   3.057  18.145  0.00  0.00    +0.000 C 
ATOM     18  C   UNL     1       1.524   4.534  17.729  0.00  0.00    +0.000 C 
ENDBRANCH   3   5
BRANCH   1  19
ATOM     19  C   UNL     1       1.406   9.266  18.047  0.00  0.00    +0.000 C 
BRANCH  19  20
ATOM     20  N   UNL     1       0.815  10.058  19.167  0.00  0.00    +0.000 NA
BRANCH  20  21
ATOM     21  C   UNL     1       1.491  11.383  19.218  0.00  0.00    +0.000 C 
BRANCH  21  22
ATOM     22  C   UNL     1       0.628  12.602  19.568  0.00  0.00    +0.000 C 
BRANCH  22  24
ATOM     23  C   UNL     1      -0.240  14.866  18.950  0.00  0.00    +0.000 C 
ATOM     24  C   UNL     1       0.763  13.775  18.598  0.00  0.00    +0.000 C 
ENDBRANCH  22  24
ENDBRANCH  21  22
ENDBRANCH  20  21
BRANCH  20  25
ATOM     25  C   UNL     1      -0.639  10.229  18.941  0.00  0.00    +0.000 C 
BRANCH  25  26
ATOM     26  C   UNL     1      -1.137   9.996  17.502  0.00  0.00    +0.000 C 
BRANCH  26  27
ATOM     27  C   UNL     1      -2.655   9.850  17.386  0.00  0.00    +0.000 C 
ATOM     28  C   UNL     1      -3.095   9.919  15.930  0.00  0.00    +0.000 C 
ENDBRANCH  26  27
ENDBRANCH  25  26
ENDBRANCH  20  25
ENDBRANCH  19  20
ENDBRANCH   1  19
TORSDOF 9
ENDMDL
MODEL 6
REMARK VINA RESULT:      -7.4      2.652      7.549
REMARK  Name = 
REMARK  12 active torsions:
REMARK  status: ('A' for Active; 'I' for Inactive)
REMARK    1  A    between atoms: C_1  and  C_2
REMARK    2  A    between atoms: C_2  and  C_3
REMARK    3  A    between atoms: C_3  and  C_4
REMARK    4  A    between atoms: C_4  and  N_5
REMARK    5  A    between atoms: N_5  and  C_6
REMARK    6  A    between atoms: N_5  and  C_10
REMARK    7  A    between atoms: C_6  and  C_7
REMARK    8  A    between atoms: C_7  and  C_8
REMARK    9  A    between atoms: C_8  and  C_9
REMARK   10  A    between atoms: C_10  and  C_11
REMARK   11  A    between atoms: N_13  and  C_14
REMARK   12  A    between atoms: N_24  and  C_25
REMARK                            x       y       z     vdW  Elec       q    Type
REMARK                         _______ _______ _______ _____ _____    ______ ____
ROOT
ATOM      1  C   UNL     1       2.111   8.048  18.626  0.00  0.00    +0.000 C 
ATOM      2  O   UNL     1       1.761   8.099  17.449  0.00  0.00    +0.000 OA
ATOM      3  N   UNL     1       2.721   6.966  19.238  0.00  0.00    +0.000 N 
ATOM      4  H   UNL     1       2.614   6.933  20.245  0.00  0.00    +0.000 HD
ENDROOT
BRANCH   3   5
ATOM      5  C   UNL     1       3.106   5.799  18.544  0.00  0.00    +0.000 A 
ATOM      6  C   UNL     1       4.189   5.809  17.679  0.00  0.00    +0.000 A 
ATOM      7  C   UNL     1       4.555   4.638  17.029  0.00  0.00    +0.000 A 
ATOM      8  N   UNL     1       3.873   3.492  17.138  0.00  0.00    +0.000 NA
ATOM      9  C   UNL     1       2.845   3.459  17.998  0.00  0.00    +0.000 A 
ATOM     10  C   UNL     1       2.163   2.259  18.136  0.00  0.00    +0.000 A 
ATOM     11  C   UNL     1       1.115   2.100  19.043  0.00  0.00    +0.000 A 
ATOM     12  C   UNL     1       0.724   3.169  19.835  0.00  0.00    +0.000 A 
ATOM     13  C   UNL     1       1.366   4.399  19.694  0.00  0.00    +0.000 A 
ATOM     14  C   UNL     1       2.432   4.573  18.776  0.00  0.00    +0.000 A 
ATOM     15  N   UNL     1       5.799   4.760  16.372  0.00  0.00    +0.000 N 
ATOM     16  C   UNL     1       6.008   3.935  15.202  0.00  0.00    +0.000 C 
ATOM     17  C   UNL     1       6.047   6.200  16.303  0.00  0.00    +0.000 C 
ATOM     18  C   UNL     1       5.222   6.856  17.420  0.00  0.00    +0.000 C 
ENDBRANCH   3   5
BRANCH   1  19
ATOM     19  C   UNL     1       1.781   9.191  19.588  0.00  0.00    +0.000 C 
BRANCH  19  20
ATOM     20  N   UNL     1       0.321   9.500  19.643  0.00  0.00    +0.000 NA
BRANCH  20  21
ATOM     21  C   UNL     1      -0.002  10.018  21.000  0.00  0.00    +0.000 C 
BRANCH  21  22
ATOM     22  C   UNL     1       0.174  11.523  21.240  0.00  0.00    +0.000 C 
BRANCH  22  24
ATOM     23  C   UNL     1      -1.359  10.985  23.143  0.00  0.00    +0.000 C 
ATOM     24  C   UNL     1      -0.741  12.105  22.317  0.00  0.00    +0.000 C 
ENDBRANCH  22  24
ENDBRANCH  21  22
ENDBRANCH  20  21
BRANCH  20  25
ATOM     25  C   UNL     1      -0.013  10.510  18.612  0.00  0.00    +0.000 C 
BRANCH  25  26
ATOM     26  C   UNL     1      -1.126  10.128  17.618  0.00  0.00    +0.000 C 
BRANCH  26  27
ATOM     27  C   UNL     1      -2.540  10.347  18.157  0.00  0.00    +0.000 C 
ATOM     28  C   UNL     1      -2.678  11.737  18.765  0.00  0.00    +0.000 C 
ENDBRANCH  26  27
ENDBRANCH  25  26
ENDBRANCH  20  25
ENDBRANCH  19  20
ENDBRANCH   1  19
TORSDOF 9
ENDMDL
MODEL 7
REMARK VINA RESULT:      -7.3      1.581      1.814
REMARK  Name = 
REMARK  12 active torsions:
REMARK  status: ('A' for Active; 'I' for Inactive)
REMARK    1  A    between atoms: C_1  and  C_2
REMARK    2  A    between atoms: C_2  and  C_3
REMARK    3  A    between atoms: C_3  and  C_4
REMARK    4  A    between atoms: C_4  and  N_5
REMARK    5  A    between atoms: N_5  and  C_6
REMARK    6  A    between atoms: N_5  and  C_10
REMARK    7  A    between atoms: C_6  and  C_7
REMARK    8  A    between atoms: C_7  and  C_8
REMARK    9  A    between atoms: C_8  and  C_9
REMARK   10  A    between atoms: C_10  and  C_11
REMARK   11  A    between atoms: N_13  and  C_14
REMARK   12  A    between atoms: N_24  and  C_25
REMARK                            x       y       z     vdW  Elec       q    Type
REMARK                         _______ _______ _______ _____ _____    ______ ____
ROOT
ATOM      1  C   UNL     1       4.743   6.544  16.723  0.00  0.00    +0.000 C 
ATOM      2  O   UNL     1       5.264   7.479  17.329  0.00  0.00    +0.000 OA
ATOM      3  N   UNL     1       3.693   5.769  17.188  0.00  0.00    +0.000 N 
ATOM      4  H   UNL     1       3.625   4.852  16.764  0.00  0.00    +0.000 HD
ENDROOT
BRANCH   3   5
ATOM      5  C   UNL     1       3.020   6.024  18.401  0.00  0.00    +0.000 A 
ATOM      6  C   UNL     1       2.465   7.267  18.661  0.00  0.00    +0.000 A 
ATOM      7  C   UNL     1       1.790   7.478  19.856  0.00  0.00    +0.000 A 
ATOM      8  N   UNL     1       1.696   6.555  20.821  0.00  0.00    +0.000 NA
ATOM      9  C   UNL     1       2.198   5.338  20.568  0.00  0.00    +0.000 A 
ATOM     10  C   UNL     1       2.066   4.373  21.556  0.00  0.00    +0.000 A 
ATOM     11  C   UNL     1       2.503   3.060  21.375  0.00  0.00    +0.000 A 
ATOM     12  C   UNL     1       3.097   2.693  20.177  0.00  0.00    +0.000 A 
ATOM     13  C   UNL     1       3.277   3.649  19.179  0.00  0.00    +0.000 A 
ATOM     14  C   UNL     1       2.837   4.986  19.351  0.00  0.00    +0.000 A 
ATOM     15  N   UNL     1       1.096   8.708  19.866  0.00  0.00    +0.000 N 
ATOM     16  C   UNL     1       0.899   9.340  21.152  0.00  0.00    +0.000 C 
ATOM     17  C   UNL     1       1.669   9.471  18.758  0.00  0.00    +0.000 C 
ATOM     18  C   UNL     1       2.282   8.459  17.780  0.00  0.00    +0.000 C 
ENDBRANCH   3   5
BRANCH   1  19
ATOM     19  C   UNL     1       5.316   6.065  15.388  0.00  0.00    +0.000 C 
BRANCH  19  20
ATOM     20  N   UNL     1       5.950   4.716  15.480  0.00  0.00    +0.000 NA
BRANCH  20  21
ATOM     21  C   UNL     1       5.907   4.081  14.134  0.00  0.00    +0.000 C 
BRANCH  21  22
ATOM     22  C   UNL     1       7.035   4.430  13.154  0.00  0.00    +0.000 C 
BRANCH  22  24
ATOM     23  C   UNL     1       5.738   2.791  11.779  0.00  0.00    +0.000 C 
ATOM     24  C   UNL     1       6.961   3.697  11.815  0.00  0.00    +0.000 C 
ENDBRANCH  22  24
ENDBRANCH  21  22
ENDBRANCH  20  21
BRANCH  20  25
ATOM     25  C   UNL     1       7.351   4.856  15.940  0.00  0.00    +0.000 C 
BRANCH  25  26
ATOM     26  C   UNL     1       7.647   4.382  17.376  0.00  0.00    +0.000 C 
BRANCH  26  27
ATOM     27  C   UNL     1       7.745   5.518  18.395  0.00  0.00    +0.000 C 
ATOM     28  C   UNL     1       6.709   5.345  19.498  0.00  0.00    +0.000 C 
ENDBRANCH  26  27
ENDBRANCH  25  26
ENDBRANCH  20  25
ENDBRANCH  19  20
ENDBRANCH   1  19
TORSDOF 9
ENDMDL
MODEL 8
REMARK VINA RESULT:      -7.3      2.982      6.609
REMARK  Name = 
REMARK  12 active torsions:
REMARK  status: ('A' for Active; 'I' for Inactive)
REMARK    1  A    between atoms: C_1  and  C_2
REMARK    2  A    between atoms: C_2  and  C_3
REMARK    3  A    between atoms: C_3  and  C_4
REMARK    4  A    between atoms: C_4  and  N_5
REMARK    5  A    between atoms: N_5  and  C_6
REMARK    6  A    between atoms: N_5  and  C_10
REMARK    7  A    between atoms: C_6  and  C_7
REMARK    8  A    between atoms: C_7  and  C_8
REMARK    9  A    between atoms: C_8  and  C_9
REMARK   10  A    between atoms: C_10  and  C_11
REMARK   11  A    between atoms: N_13  and  C_14
REMARK   12  A    between atoms: N_24  and  C_25
REMARK                            x       y       z     vdW  Elec       q    Type
REMARK                         _______ _______ _______ _____ _____    ______ ____
ROOT
ATOM      1  C   UNL     1       2.007   8.121  18.659  0.00  0.00    +0.000 C 
ATOM      2  O   UNL     1       1.674   8.199  17.478  0.00  0.00    +0.000 OA
ATOM      3  N   UNL     1       2.605   7.023  19.255  0.00  0.00    +0.000 N 
ATOM      4  H   UNL     1       2.484   6.968  20.259  0.00  0.00    +0.000 HD
ENDROOT
BRANCH   3   5
ATOM      5  C   UNL     1       2.996   5.871  18.540  0.00  0.00    +0.000 A 
ATOM      6  C   UNL     1       4.045   5.916  17.634  0.00  0.00    +0.000 A 
ATOM      7  C   UNL     1       4.419   4.759  16.963  0.00  0.00    +0.000 A 
ATOM      8  N   UNL     1       3.775   3.593  17.092  0.00  0.00    +0.000 NA
ATOM      9  C   UNL     1       2.782   3.526  17.991  0.00  0.00    +0.000 A 
ATOM     10  C   UNL     1       2.140   2.306  18.148  0.00  0.00    +0.000 A 
ATOM     11  C   UNL     1       1.133   2.113  19.094  0.00  0.00    +0.000 A 
ATOM     12  C   UNL     1       0.743   3.167  19.907  0.00  0.00    +0.000 A 
ATOM     13  C   UNL     1       1.343   4.415  19.748  0.00  0.00    +0.000 A 
ATOM     14  C   UNL     1       2.367   4.624  18.790  0.00  0.00    +0.000 A 
ATOM     15  N   UNL     1       5.632   4.920  16.260  0.00  0.00    +0.000 N 
ATOM     16  C   UNL     1       5.820   4.106  15.078  0.00  0.00    +0.000 C 
ATOM     17  C   UNL     1       5.836   6.366  16.190  0.00  0.00    +0.000 C 
ATOM     18  C   UNL     1       5.036   6.993  17.341  0.00  0.00    +0.000 C 
ENDBRANCH   3   5
BRANCH   1  19
ATOM     19  C   UNL     1       1.666   9.243  19.642  0.00  0.00    +0.000 C 
BRANCH  19  20
ATOM     20  N   UNL     1       0.931  10.373  19.000  0.00  0.00    +0.000 NA
BRANCH  20  21
ATOM     21  C   UNL     1      -0.493  10.316  19.431  0.00  0.00    +0.000 C 
BRANCH  21  22
ATOM     22  C   UNL     1      -1.544  10.886  18.471  0.00  0.00    +0.000 C 
BRANCH  22  24
ATOM     23  C   UNL     1      -3.304   9.715  17.133  0.00  0.00    +0.000 C 
ATOM     24  C   UNL     1      -1.817  10.021  17.241  0.00  0.00    +0.000 C 
ENDBRANCH  22  24
ENDBRANCH  21  22
ENDBRANCH  20  21
BRANCH  20  25
ATOM     25  C   UNL     1       1.542  11.659  19.407  0.00  0.00    +0.000 C 
BRANCH  25  26
ATOM     26  C   UNL     1       2.136  12.520  18.275  0.00  0.00    +0.000 C 
BRANCH  26  27
ATOM     27  C   UNL     1       1.945  14.024  18.474  0.00  0.00    +0.000 C 
ATOM     28  C   UNL     1       3.126  14.798  17.904  0.00  0.00    +0.000 C 
ENDBRANCH  26  27
ENDBRANCH  25  26
ENDBRANCH  20  25
ENDBRANCH  19  20
ENDBRANCH   1  19
TORSDOF 9
ENDMDL
MODEL 9
REMARK VINA RESULT:      -7.3      2.853      7.484
REMARK  Name = 
REMARK  12 active torsions:
REMARK  status: ('A' for Active; 'I' for Inactive)
REMARK    1  A    between atoms: C_1  and  C_2
REMARK    2  A    between atoms: C_2  and  C_3
REMARK    3  A    between atoms: C_3  and  C_4
REMARK    4  A    between atoms: C_4  and  N_5
REMARK    5  A    between atoms: N_5  and  C_6
REMARK    6  A    between atoms: N_5  and  C_10
REMARK    7  A    between atoms: C_6  and  C_7
REMARK    8  A    between atoms: C_7  and  C_8
REMARK    9  A    between atoms: C_8  and  C_9
REMARK   10  A    between atoms: C_10  and  C_11
REMARK   11  A    between atoms: N_13  and  C_14
REMARK   12  A    between atoms: N_24  and  C_25
REMARK                            x       y       z     vdW  Elec       q    Type
REMARK                         _______ _______ _______ _____ _____    ______ ____
ROOT
ATOM      1  C   UNL     1       2.206   8.097  18.686  0.00  0.00    +0.000 C 
ATOM      2  O   UNL     1       2.236   7.735  19.861  0.00  0.00    +0.000 OA
ATOM      3  N   UNL     1       2.850   7.468  17.634  0.00  0.00    +0.000 N 
ATOM      4  H   UNL     1       3.031   8.062  16.833  0.00  0.00    +0.000 HD
ENDROOT
BRANCH   3   5
ATOM      5  C   UNL     1       3.561   6.257  17.773  0.00  0.00    +0.000 A 
ATOM      6  C   UNL     1       2.892   5.051  17.913  0.00  0.00    +0.000 A 
ATOM      7  C   UNL     1       3.620   3.874  18.025  0.00  0.00    +0.000 A 
ATOM      8  N   UNL     1       4.958   3.839  18.071  0.00  0.00    +0.000 NA
ATOM      9  C   UNL     1       5.617   4.994  17.901  0.00  0.00    +0.000 A 
ATOM     10  C   UNL     1       7.004   4.947  17.913  0.00  0.00    +0.000 A 
ATOM     11  C   UNL     1       7.786   6.080  17.691  0.00  0.00    +0.000 A 
ATOM     12  C   UNL     1       7.175   7.302  17.455  0.00  0.00    +0.000 A 
ATOM     13  C   UNL     1       5.783   7.388  17.473  0.00  0.00    +0.000 A 
ATOM     14  C   UNL     1       4.977   6.244  17.698  0.00  0.00    +0.000 A 
ATOM     15  N   UNL     1       2.800   2.729  17.930  0.00  0.00    +0.000 N 
ATOM     16  C   UNL     1       3.250   1.540  18.622  0.00  0.00    +0.000 C 
ATOM     17  C   UNL     1       1.440   3.224  18.138  0.00  0.00    +0.000 C 
ATOM     18  C   UNL     1       1.442   4.718  17.785  0.00  0.00    +0.000 C 
ENDBRANCH   3   5
BRANCH   1  19
ATOM     19  C   UNL     1       1.512   9.402  18.290  0.00  0.00    +0.000 C 
BRANCH  19  20
ATOM     20  N   UNL     1       0.846  10.078  19.443  0.00  0.00    +0.000 NA
BRANCH  20  21
ATOM     21  C   UNL     1       1.207  11.522  19.416  0.00  0.00    +0.000 C 
BRANCH  21  22
ATOM     22  C   UNL     1       2.246  11.970  18.381  0.00  0.00    +0.000 C 
BRANCH  22  24
ATOM     23  C   UNL     1       3.536  14.107  18.205  0.00  0.00    +0.000 C 
ATOM     24  C   UNL     1       2.176  13.451  18.010  0.00  0.00    +0.000 C 
ENDBRANCH  22  24
ENDBRANCH  21  22
ENDBRANCH  20  21
BRANCH  20  25
ATOM     25  C   UNL     1      -0.622   9.911  19.338  0.00  0.00    +0.000 C 
BRANCH  25  26
ATOM     26  C   UNL     1      -1.405  11.110  18.771  0.00  0.00    +0.000 C 
BRANCH  26  27
ATOM     27  C   UNL     1      -2.035  10.848  17.402  0.00  0.00    +0.000 C 
ATOM     28  C   UNL     1      -3.063   9.728  17.485  0.00  0.00    +0.000 C 
ENDBRANCH  26  27
ENDBRANCH  25  26
ENDBRANCH  20  25
ENDBRANCH  19  20
ENDBRANCH   1  19
TORSDOF 9
ENDMDL
