MODEL 1
REMARK VINA RESULT:      -7.6      0.000      0.000
REMARK  Name = 
REMARK  2 active torsions:
REMARK  status: ('A' for Active; 'I' for Inactive)
REMARK    1  A    between atoms: C_2  and  C_16
REMARK    2  A    between atoms: C_7  and  C_8
REMARK                            x       y       z     vdW  Elec       q    Type
REMARK                         _______ _______ _______ _____ _____    ______ ____
ROOT
ATOM      1  O   UNL     1       3.398   5.983  19.322  0.00  0.00    +0.000 OA
ATOM      2  C   UNL     1       3.680   6.362  18.192  0.00  0.00    +0.000 C 
ATOM      3  N   UNL     1       3.206   7.498  17.563  0.00  0.00    +0.000 N 
ATOM      4  C   UNL     1       2.381   8.441  18.130  0.00  0.00    +0.000 A 
ATOM      5  N   UNL     1       1.924   9.486  17.479  0.00  0.00    +0.000 NA
ATOM      6  N   UNL     1       1.080  10.260  18.264  0.00  0.00    +0.000 NA
ATOM      7  C   UNL     1       0.930   9.765  19.479  0.00  0.00    +0.000 A 
ATOM      8  S   UNL     1       1.893   8.371  19.757  0.00  0.00    +0.000 S 
ATOM      9  H   UNL     1       3.491   7.722  16.620  0.00  0.00    +0.000 HD
ENDROOT
BRANCH   2  10
ATOM     10  C   UNL     1       4.628   5.523  17.417  0.00  0.00    +0.000 A 
ATOM     11  C   UNL     1       5.885   6.046  17.059  0.00  0.00    +0.000 A 
ATOM     12 CL   UNL     1       6.507   7.543  17.669  0.00  0.00    +0.000 Cl
ATOM     13  C   UNL     1       6.733   5.330  16.203  0.00  0.00    +0.000 A 
ATOM     14  C   UNL     1       6.349   4.085  15.713  0.00  0.00    +0.000 A 
ATOM     15  C   UNL     1       5.119   3.550  16.082  0.00  0.00    +0.000 A 
ATOM     16  C   UNL     1       4.255   4.264  16.922  0.00  0.00    +0.000 A 
ATOM     17 CL   UNL     1       2.728   3.522  17.259  0.00  0.00    +0.000 Cl
ENDBRANCH   2  10
BRANCH   7  18
ATOM     18  C   UNL     1       0.071  10.319  20.540  0.00  0.00    +0.000 A 
ATOM     19  C   UNL     1       0.049   9.784  21.842  0.00  0.00    +0.000 A 
ATOM     20  C   UNL     1      -0.772  10.330  22.833  0.00  0.00    +0.000 A 
ATOM     21  C   UNL     1      -1.588  11.416  22.533  0.00  0.00    +0.000 A 
ATOM     22 CL   UNL     1      -2.595  12.087  23.754  0.00  0.00    +0.000 Cl
ATOM     23  C   UNL     1      -1.592  11.955  21.250  0.00  0.00    +0.000 A 
ATOM     24  C   UNL     1      -0.770  11.407  20.258  0.00  0.00    +0.000 A 
ENDBRANCH   7  18
TORSDOF 2
ENDMDL
MODEL 2
REMARK VINA RESULT:      -7.5      0.069      1.008
REMARK  Name = 
REMARK  2 active torsions:
REMARK  status: ('A' for Active; 'I' for Inactive)
REMARK    1  A    between atoms: C_2  and  C_16
REMARK    2  A    between atoms: C_7  and  C_8
REMARK                            x       y       z     vdW  Elec       q    Type
REMARK                         _______ _______ _______ _____ _____    ______ ____
ROOT
ATOM      1  O   UNL     1       3.423   6.062  19.323  0.00  0.00    +0.000 OA
ATOM      2  C   UNL     1       3.698   6.427  18.187  0.00  0.00    +0.000 C 
ATOM      3  N   UNL     1       3.210   7.549  17.542  0.00  0.00    +0.000 N 
ATOM      4  C   UNL     1       2.375   8.491  18.097  0.00  0.00    +0.000 A 
ATOM      5  N   UNL     1       1.904   9.520  17.432  0.00  0.00    +0.000 NA
ATOM      6  N   UNL     1       1.053  10.296  18.207  0.00  0.00    +0.000 NA
ATOM      7  C   UNL     1       0.912   9.817  19.430  0.00  0.00    +0.000 A 
ATOM      8  S   UNL     1       1.892   8.439  19.726  0.00  0.00    +0.000 S 
ATOM      9  H   UNL     1       3.490   7.762  16.595  0.00  0.00    +0.000 HD
ENDROOT
BRANCH   2  10
ATOM     10  C   UNL     1       4.654   5.588  17.421  0.00  0.00    +0.000 A 
ATOM     11  C   UNL     1       5.911   6.115  17.067  0.00  0.00    +0.000 A 
ATOM     12 CL   UNL     1       6.523   7.618  17.672  0.00  0.00    +0.000 Cl
ATOM     13  C   UNL     1       6.766   5.397  16.219  0.00  0.00    +0.000 A 
ATOM     14  C   UNL     1       6.390   4.148  15.735  0.00  0.00    +0.000 A 
ATOM     15  C   UNL     1       5.160   3.609  16.101  0.00  0.00    +0.000 A 
ATOM     16  C   UNL     1       4.289   4.325  16.932  0.00  0.00    +0.000 A 
ATOM     17 CL   UNL     1       2.763   3.578  17.265  0.00  0.00    +0.000 Cl
ENDBRANCH   2  10
BRANCH   7  18
ATOM     18  C   UNL     1       0.049  10.377  20.485  0.00  0.00    +0.000 A 
ATOM     19  C   UNL     1      -0.796  11.479  20.255  0.00  0.00    +0.000 A 
ATOM     20  C   UNL     1      -1.609  11.990  21.270  0.00  0.00    +0.000 A 
ATOM     21  C   UNL     1      -1.583  11.409  22.534  0.00  0.00    +0.000 A 
ATOM     22 CL   UNL     1      -2.585  12.037  23.781  0.00  0.00    +0.000 Cl
ATOM     23  C   UNL     1      -0.747  10.325  22.789  0.00  0.00    +0.000 A 
ATOM     24  C   UNL     1       0.068   9.815  21.771  0.00  0.00    +0.000 A 
ENDBRANCH   7  18
TORSDOF 2
ENDMDL
MODEL 3
REMARK VINA RESULT:      -7.3      0.185      1.926
REMARK  Name = 
REMARK  2 active torsions:
REMARK  status: ('A' for Active; 'I' for Inactive)
REMARK    1  A    between atoms: C_2  and  C_16
REMARK    2  A    between atoms: C_7  and  C_8
REMARK                            x       y       z     vdW  Elec       q    Type
REMARK                         _______ _______ _______ _____ _____    ______ ____
ROOT
ATOM      1  O   UNL     1       3.374   6.127  19.293  0.00  0.00    +0.000 OA
ATOM      2  C   UNL     1       3.632   6.516  18.161  0.00  0.00    +0.000 C 
ATOM      3  N   UNL     1       3.131   7.648  17.545  0.00  0.00    +0.000 N 
ATOM      4  C   UNL     1       2.300   8.575  18.130  0.00  0.00    +0.000 A 
ATOM      5  N   UNL     1       1.816   9.615  17.491  0.00  0.00    +0.000 NA
ATOM      6  N   UNL     1       0.972  10.372  18.293  0.00  0.00    +0.000 NA
ATOM      7  C   UNL     1       0.849   9.869  19.508  0.00  0.00    +0.000 A 
ATOM      8  S   UNL     1       1.838   8.490  19.764  0.00  0.00    +0.000 S 
ATOM      9  H   UNL     1       3.397   7.880  16.599  0.00  0.00    +0.000 HD
ENDROOT
BRANCH   2  10
ATOM     10  C   UNL     1       4.582   5.697  17.367  0.00  0.00    +0.000 A 
ATOM     11  C   UNL     1       4.221   4.391  16.984  0.00  0.00    +0.000 A 
ATOM     12 CL   UNL     1       2.626   3.744  17.179  0.00  0.00    +0.000 Cl
ATOM     13  C   UNL     1       5.156   3.550  16.366  0.00  0.00    +0.000 A 
ATOM     14  C   UNL     1       6.446   4.003  16.107  0.00  0.00    +0.000 A 
ATOM     15  C   UNL     1       6.803   5.300  16.459  0.00  0.00    +0.000 A 
ATOM     16  C   UNL     1       5.883   6.145  17.094  0.00  0.00    +0.000 A 
ATOM     17 CL   UNL     1       6.465   7.713  17.539  0.00  0.00    +0.000 Cl
ENDBRANCH   2  10
BRANCH   7  18
ATOM     18  C   UNL     1      -0.002  10.404  20.585  0.00  0.00    +0.000 A 
ATOM     19  C   UNL     1      -0.005   9.854  21.881  0.00  0.00    +0.000 A 
ATOM     20  C   UNL     1      -0.818  10.382  22.888  0.00  0.00    +0.000 A 
ATOM     21  C   UNL     1      -1.646  11.465  22.609  0.00  0.00    +0.000 A 
ATOM     22 CL   UNL     1      -2.643  12.115  23.849  0.00  0.00    +0.000 Cl
ATOM     23  C   UNL     1      -1.668  12.020  21.333  0.00  0.00    +0.000 A 
ATOM     24  C   UNL     1      -0.853  11.489  20.325  0.00  0.00    +0.000 A 
ENDBRANCH   7  18
TORSDOF 2
ENDMDL
MODEL 4
REMARK VINA RESULT:      -7.2      0.230      2.176
REMARK  Name = 
REMARK  2 active torsions:
REMARK  status: ('A' for Active; 'I' for Inactive)
REMARK    1  A    between atoms: C_2  and  C_16
REMARK    2  A    between atoms: C_7  and  C_8
REMARK                            x       y       z     vdW  Elec       q    Type
REMARK                         _______ _______ _______ _____ _____    ______ ____
ROOT
ATOM      1  O   UNL     1       3.272   6.149  19.281  0.00  0.00    +0.000 OA
ATOM      2  C   UNL     1       3.571   6.547  18.162  0.00  0.00    +0.000 C 
ATOM      3  N   UNL     1       3.116   7.699  17.549  0.00  0.00    +0.000 N 
ATOM      4  C   UNL     1       2.293   8.640  18.124  0.00  0.00    +0.000 A 
ATOM      5  N   UNL     1       1.854   9.701  17.488  0.00  0.00    +0.000 NA
ATOM      6  N   UNL     1       1.008  10.468  18.276  0.00  0.00    +0.000 NA
ATOM      7  C   UNL     1       0.839   9.952  19.480  0.00  0.00    +0.000 A 
ATOM      8  S   UNL     1       1.785   8.544  19.743  0.00  0.00    +0.000 S 
ATOM      9  H   UNL     1       3.415   7.938  16.614  0.00  0.00    +0.000 HD
ENDROOT
BRANCH   2  10
ATOM     10  C   UNL     1       4.521   5.714  17.382  0.00  0.00    +0.000 A 
ATOM     11  C   UNL     1       4.154   4.407  17.008  0.00  0.00    +0.000 A 
ATOM     12 CL   UNL     1       2.553   3.773  17.195  0.00  0.00    +0.000 Cl
ATOM     13  C   UNL     1       5.088   3.555  16.404  0.00  0.00    +0.000 A 
ATOM     14  C   UNL     1       6.383   3.996  16.151  0.00  0.00    +0.000 A 
ATOM     15  C   UNL     1       6.747   5.295  16.494  0.00  0.00    +0.000 A 
ATOM     16  C   UNL     1       5.828   6.151  17.115  0.00  0.00    +0.000 A 
ATOM     17 CL   UNL     1       6.417   7.719  17.551  0.00  0.00    +0.000 Cl
ENDBRANCH   2  10
BRANCH   7  18
ATOM     18  C   UNL     1      -0.028  10.494  20.541  0.00  0.00    +0.000 A 
ATOM     19  C   UNL     1      -0.907  11.570  20.314  0.00  0.00    +0.000 A 
ATOM     20  C   UNL     1      -1.723  12.065  21.335  0.00  0.00    +0.000 A 
ATOM     21  C   UNL     1      -1.666  11.493  22.602  0.00  0.00    +0.000 A 
ATOM     22 CL   UNL     1      -2.672  12.100  23.856  0.00  0.00    +0.000 Cl
ATOM     23  C   UNL     1      -0.798  10.434  22.854  0.00  0.00    +0.000 A 
ATOM     24  C   UNL     1       0.020   9.941  21.830  0.00  0.00    +0.000 A 
ENDBRANCH   7  18
TORSDOF 2
ENDMDL
MODEL 5
REMARK VINA RESULT:      -7.1      2.697      8.790
REMARK  Name = 
REMARK  2 active torsions:
REMARK  status: ('A' for Active; 'I' for Inactive)
REMARK    1  A    between atoms: C_2  and  C_16
REMARK    2  A    between atoms: C_7  and  C_8
REMARK                            x       y       z     vdW  Elec       q    Type
REMARK                         _______ _______ _______ _____ _____    ______ ____
ROOT
ATOM      1  O   UNL     1       0.607  10.735  17.842  0.00  0.00    +0.000 OA
ATOM      2  C   UNL     1       0.306  10.608  19.022  0.00  0.00    +0.000 C 
ATOM      3  N   UNL     1       0.675   9.573  19.860  0.00  0.00    +0.000 N 
ATOM      4  C   UNL     1       1.509   8.531  19.524  0.00  0.00    +0.000 A 
ATOM      5  N   UNL     1       1.801   7.547  20.343  0.00  0.00    +0.000 NA
ATOM      6  N   UNL     1       2.629   6.604  19.749  0.00  0.00    +0.000 NA
ATOM      7  C   UNL     1       2.927   6.914  18.500  0.00  0.00    +0.000 A 
ATOM      8  S   UNL     1       2.284   8.429  18.015  0.00  0.00    +0.000 S 
ATOM      9  H   UNL     1       0.367   9.552  20.821  0.00  0.00    +0.000 HD
ENDROOT
BRANCH   2  10
ATOM     10  C   UNL     1      -0.539  11.673  19.620  0.00  0.00    +0.000 A 
ATOM     11  C   UNL     1       0.036  12.592  20.518  0.00  0.00    +0.000 A 
ATOM     12 CL   UNL     1       1.740  12.715  20.802  0.00  0.00    +0.000 Cl
ATOM     13  C   UNL     1      -0.771  13.509  21.207  0.00  0.00    +0.000 A 
ATOM     14  C   UNL     1      -2.146  13.532  20.995  0.00  0.00    +0.000 A 
ATOM     15  C   UNL     1      -2.719  12.645  20.090  0.00  0.00    +0.000 A 
ATOM     16  C   UNL     1      -1.926  11.711  19.410  0.00  0.00    +0.000 A 
ATOM     17 CL   UNL     1      -2.761  10.620  18.358  0.00  0.00    +0.000 Cl
ENDBRANCH   2  10
BRANCH   7  18
ATOM     18  C   UNL     1       3.746   6.105  17.580  0.00  0.00    +0.000 A 
ATOM     19  C   UNL     1       3.660   4.701  17.538  0.00  0.00    +0.000 A 
ATOM     20  C   UNL     1       4.445   3.955  16.653  0.00  0.00    +0.000 A 
ATOM     21  C   UNL     1       5.331   4.605  15.801  0.00  0.00    +0.000 A 
ATOM     22 CL   UNL     1       6.293   3.688  14.712  0.00  0.00    +0.000 Cl
ATOM     23  C   UNL     1       5.442   5.993  15.832  0.00  0.00    +0.000 A 
ATOM     24  C   UNL     1       4.656   6.738  16.720  0.00  0.00    +0.000 A 
ENDBRANCH   7  18
TORSDOF 2
ENDMDL
MODEL 6
REMARK VINA RESULT:      -7.1      1.686      1.837
REMARK  Name = 
REMARK  2 active torsions:
REMARK  status: ('A' for Active; 'I' for Inactive)
REMARK    1  A    between atoms: C_2  and  C_16
REMARK    2  A    between atoms: C_7  and  C_8
REMARK                            x       y       z     vdW  Elec       q    Type
REMARK                         _______ _______ _______ _____ _____    ______ ____
ROOT
ATOM      1  O   UNL     1       4.045   7.613  17.474  0.00  0.00    +0.000 OA
ATOM      2  C   UNL     1       4.107   6.444  17.831  0.00  0.00    +0.000 C 
ATOM      3  N   UNL     1       3.426   5.868  18.887  0.00  0.00    +0.000 N 
ATOM      4  C   UNL     1       2.501   6.502  19.683  0.00  0.00    +0.000 A 
ATOM      5  N   UNL     1       1.907   5.924  20.701  0.00  0.00    +0.000 NA
ATOM      6  N   UNL     1       1.050   6.792  21.365  0.00  0.00    +0.000 NA
ATOM      7  C   UNL     1       1.033   7.995  20.821  0.00  0.00    +0.000 A 
ATOM      8  S   UNL     1       1.998   8.102  19.406  0.00  0.00    +0.000 S 
ATOM      9  H   UNL     1       3.552   4.891  19.110  0.00  0.00    +0.000 HD
ENDROOT
BRANCH   2  10
ATOM     10  C   UNL     1       5.000   5.548  17.053  0.00  0.00    +0.000 A 
ATOM     11  C   UNL     1       6.295   5.983  16.712  0.00  0.00    +0.000 A 
ATOM     12 CL   UNL     1       7.018   7.423  17.347  0.00  0.00    +0.000 Cl
ATOM     13  C   UNL     1       7.096   5.217  15.854  0.00  0.00    +0.000 A 
ATOM     14  C   UNL     1       6.628   4.010  15.345  0.00  0.00    +0.000 A 
ATOM     15  C   UNL     1       5.359   3.561  15.696  0.00  0.00    +0.000 A 
ATOM     16  C   UNL     1       4.541   4.326  16.538  0.00  0.00    +0.000 A 
ATOM     17 CL   UNL     1       2.961   3.692  16.853  0.00  0.00    +0.000 Cl
ENDBRANCH   2  10
BRANCH   7  18
ATOM     18  C   UNL     1       0.265   9.154  21.307  0.00  0.00    +0.000 A 
ATOM     19  C   UNL     1      -0.109   9.292  22.657  0.00  0.00    +0.000 A 
ATOM     20  C   UNL     1      -0.834  10.404  23.096  0.00  0.00    +0.000 A 
ATOM     21  C   UNL     1      -1.201  11.391  22.187  0.00  0.00    +0.000 A 
ATOM     22 CL   UNL     1      -2.090  12.759  22.728  0.00  0.00    +0.000 Cl
ATOM     23  C   UNL     1      -0.852  11.272  20.844  0.00  0.00    +0.000 A 
ATOM     24  C   UNL     1      -0.126  10.157  20.407  0.00  0.00    +0.000 A 
ENDBRANCH   7  18
TORSDOF 2
ENDMDL
MODEL 7
REMARK VINA RESULT:      -7.0      2.225      3.209
REMARK  Name = 
REMARK  2 active torsions:
REMARK  status: ('A' for Active; 'I' for Inactive)
REMARK    1  A    between atoms: C_2  and  C_16
REMARK    2  A    between atoms: C_7  and  C_8
REMARK                            x       y       z     vdW  Elec       q    Type
REMARK                         _______ _______ _______ _____ _____    ______ ____
ROOT
ATOM      1  O   UNL     1       1.788   5.479  21.032  0.00  0.00    +0.000 OA
ATOM      2  C   UNL     1       2.236   5.498  19.893  0.00  0.00    +0.000 C 
ATOM      3  N   UNL     1       2.251   6.580  19.032  0.00  0.00    +0.000 N 
ATOM      4  C   UNL     1       1.821   7.850  19.336  0.00  0.00    +0.000 A 
ATOM      5  N   UNL     1       1.817   8.838  18.471  0.00  0.00    +0.000 NA
ATOM      6  N   UNL     1       1.297  10.005  19.015  0.00  0.00    +0.000 NA
ATOM      7  C   UNL     1       0.924   9.849  20.272  0.00  0.00    +0.000 A 
ATOM      8  S   UNL     1       1.278   8.287  20.887  0.00  0.00    +0.000 S 
ATOM      9  H   UNL     1       2.636   6.493  18.102  0.00  0.00    +0.000 HD
ENDROOT
BRANCH   2  10
ATOM     10  C   UNL     1       2.828   4.237  19.381  0.00  0.00    +0.000 A 
ATOM     11  C   UNL     1       2.009   3.105  19.208  0.00  0.00    +0.000 A 
ATOM     12 CL   UNL     1       0.282   3.146  19.332  0.00  0.00    +0.000 Cl
ATOM     13  C   UNL     1       2.573   1.867  18.869  0.00  0.00    +0.000 A 
ATOM     14  C   UNL     1       3.947   1.748  18.683  0.00  0.00    +0.000 A 
ATOM     15  C   UNL     1       4.761   2.867  18.826  0.00  0.00    +0.000 A 
ATOM     16  C   UNL     1       4.211   4.106  19.183  0.00  0.00    +0.000 A 
ATOM     17 CL   UNL     1       5.332   5.408  19.393  0.00  0.00    +0.000 Cl
ENDBRANCH   2  10
BRANCH   7  18
ATOM     18  C   UNL     1       0.296  10.876  21.122  0.00  0.00    +0.000 A 
ATOM     19  C   UNL     1       0.540  12.251  20.941  0.00  0.00    +0.000 A 
ATOM     20  C   UNL     1      -0.071  13.207  21.757  0.00  0.00    +0.000 A 
ATOM     21  C   UNL     1      -0.931  12.800  22.772  0.00  0.00    +0.000 A 
ATOM     22 CL   UNL     1      -1.683  13.976  23.774  0.00  0.00    +0.000 Cl
ATOM     23  C   UNL     1      -1.179  11.445  22.978  0.00  0.00    +0.000 A 
ATOM     24  C   UNL     1      -0.565  10.489  22.160  0.00  0.00    +0.000 A 
ENDBRANCH   7  18
TORSDOF 2
ENDMDL
MODEL 8
REMARK VINA RESULT:      -6.9      2.547      3.183
REMARK  Name = 
REMARK  2 active torsions:
REMARK  status: ('A' for Active; 'I' for Inactive)
REMARK    1  A    between atoms: C_2  and  C_16
REMARK    2  A    between atoms: C_7  and  C_8
REMARK                            x       y       z     vdW  Elec       q    Type
REMARK                         _______ _______ _______ _____ _____    ______ ____
ROOT
ATOM      1  O   UNL     1       2.112   7.485  18.086  0.00  0.00    +0.000 OA
ATOM      2  C   UNL     1       2.367   6.834  19.091  0.00  0.00    +0.000 C 
ATOM      3  N   UNL     1       2.180   7.234  20.401  0.00  0.00    +0.000 N 
ATOM      4  C   UNL     1       1.605   8.418  20.801  0.00  0.00    +0.000 A 
ATOM      5  N   UNL     1       1.483   8.773  22.060  0.00  0.00    +0.000 NA
ATOM      6  N   UNL     1       0.908  10.029  22.194  0.00  0.00    +0.000 NA
ATOM      7  C   UNL     1       0.619  10.575  21.026  0.00  0.00    +0.000 A 
ATOM      8  S   UNL     1       0.953   9.537  19.701  0.00  0.00    +0.000 S 
ATOM      9  H   UNL     1       2.433   6.626  21.167  0.00  0.00    +0.000 HD
ENDROOT
BRANCH   2  10
ATOM     10  C   UNL     1       2.933   5.476  18.888  0.00  0.00    +0.000 A 
ATOM     11  C   UNL     1       4.066   5.311  18.069  0.00  0.00    +0.000 A 
ATOM     12 CL   UNL     1       5.004   6.631  17.456  0.00  0.00    +0.000 Cl
ATOM     13  C   UNL     1       4.524   4.026  17.745  0.00  0.00    +0.000 A 
ATOM     14  C   UNL     1       3.875   2.901  18.245  0.00  0.00    +0.000 A 
ATOM     15  C   UNL     1       2.770   3.056  19.076  0.00  0.00    +0.000 A 
ATOM     16  C   UNL     1       2.291   4.335  19.392  0.00  0.00    +0.000 A 
ATOM     17 CL   UNL     1       0.873   4.397  20.383  0.00  0.00    +0.000 Cl
ENDBRANCH   2  10
BRANCH   7  18
ATOM     18  C   UNL     1       0.042  11.914  20.816  0.00  0.00    +0.000 A 
ATOM     19  C   UNL     1      -0.101  12.476  19.533  0.00  0.00    +0.000 A 
ATOM     20  C   UNL     1      -0.656  13.747  19.359  0.00  0.00    +0.000 A 
ATOM     21  C   UNL     1      -1.071  14.477  20.468  0.00  0.00    +0.000 A 
ATOM     22 CL   UNL     1      -1.755  16.039  20.252  0.00  0.00    +0.000 Cl
ATOM     23  C   UNL     1      -0.930  13.947  21.748  0.00  0.00    +0.000 A 
ATOM     24  C   UNL     1      -0.373  12.674  21.921  0.00  0.00    +0.000 A 
ENDBRANCH   7  18
TORSDOF 2
ENDMDL
MODEL 9
REMARK VINA RESULT:      -6.9      2.441      2.968
REMARK  Name = 
REMARK  2 active torsions:
REMARK  status: ('A' for Active; 'I' for Inactive)
REMARK    1  A    between atoms: C_2  and  C_16
REMARK    2  A    between atoms: C_7  and  C_8
REMARK                            x       y       z     vdW  Elec       q    Type
REMARK                         _______ _______ _______ _____ _____    ______ ____
ROOT
ATOM      1  O   UNL     1       1.937   7.688  18.030  0.00  0.00    +0.000 OA
ATOM      2  C   UNL     1       2.280   6.998  18.982  0.00  0.00    +0.000 C 
ATOM      3  N   UNL     1       2.151   7.318  20.320  0.00  0.00    +0.000 N 
ATOM      4  C   UNL     1       1.548   8.450  20.817  0.00  0.00    +0.000 A 
ATOM      5  N   UNL     1       1.485   8.732  22.098  0.00  0.00    +0.000 NA
ATOM      6  N   UNL     1       0.862   9.950  22.334  0.00  0.00    +0.000 NA
ATOM      7  C   UNL     1       0.482  10.543  21.216  0.00  0.00    +0.000 A 
ATOM      8  S   UNL     1       0.784   9.594  19.819  0.00  0.00    +0.000 S 
ATOM      9  H   UNL     1       2.476   6.683  21.036  0.00  0.00    +0.000 HD
ENDROOT
BRANCH   2  10
ATOM     10  C   UNL     1       2.893   5.681  18.673  0.00  0.00    +0.000 A 
ATOM     11  C   UNL     1       3.999   5.616  17.805  0.00  0.00    +0.000 A 
ATOM     12 CL   UNL     1       4.858   7.012  17.244  0.00  0.00    +0.000 Cl
ATOM     13  C   UNL     1       4.497   4.376  17.383  0.00  0.00    +0.000 A 
ATOM     14  C   UNL     1       3.915   3.195  17.834  0.00  0.00    +0.000 A 
ATOM     15  C   UNL     1       2.838   3.249  18.712  0.00  0.00    +0.000 A 
ATOM     16  C   UNL     1       2.319   4.483  19.126  0.00  0.00    +0.000 A 
ATOM     17 CL   UNL     1       0.939   4.422  20.169  0.00  0.00    +0.000 Cl
ENDBRANCH   2  10
BRANCH   7  18
ATOM     18  C   UNL     1      -0.166  11.862  21.114  0.00  0.00    +0.000 A 
ATOM     19  C   UNL     1      -0.670  12.539  22.241  0.00  0.00    +0.000 A 
ATOM     20  C   UNL     1      -1.277  13.792  22.119  0.00  0.00    +0.000 A 
ATOM     21  C   UNL     1      -1.395  14.384  20.865  0.00  0.00    +0.000 A 
ATOM     22 CL   UNL     1      -2.139  15.925  20.718  0.00  0.00    +0.000 Cl
ATOM     23  C   UNL     1      -0.914  13.729  19.735  0.00  0.00    +0.000 A 
ATOM     24  C   UNL     1      -0.307  12.473  19.858  0.00  0.00    +0.000 A 
ENDBRANCH   7  18
TORSDOF 2
ENDMDL
