MODEL 1
REMARK VINA RESULT:      -7.6      0.000      0.000
REMARK  Name = 
REMARK  5 active torsions:
REMARK  status: ('A' for Active; 'I' for Inactive)
REMARK    1  A    between atoms: C_1  and  C_2
REMARK    2  A    between atoms: C_4  and  N_5
REMARK    3  A    between atoms: N_5  and  C_6
REMARK    4  A    between atoms: C_6  and  C_7
REMARK    5  A    between atoms: C_7  and  C_8
REMARK                            x       y       z     vdW  Elec       q    Type
REMARK                         _______ _______ _______ _____ _____    ______ ____
ROOT
ATOM      1  C   UNL     1       6.933   4.826  13.935  0.00  0.00    +0.000 C 
ATOM      2  C   UNL     1       6.657   4.708  15.415  0.00  0.00    +0.000 A 
ATOM      3  C   UNL     1       5.538   3.811  15.837  0.00  0.00    +0.000 A 
ATOM      4  C   UNL     1       5.239   3.695  17.145  0.00  0.00    +0.000 A 
ATOM      5  C   UNL     1       6.057   4.447  18.049  0.00  0.00    +0.000 A 
ATOM      6  N   UNL     1       6.073   4.556  19.366  0.00  0.00    +0.000 NA
ATOM      7  N   UNL     1       7.094   5.408  19.719  0.00  0.00    +0.000 NA
ATOM      8  C   UNL     1       7.678   5.794  18.608  0.00  0.00    +0.000 A 
ATOM      9  N   UNL     1       7.069   5.223  17.527  0.00  0.00    +0.000 N 
ATOM     10  N   UNL     1       7.409   5.392  16.221  0.00  0.00    +0.000 NA
ENDROOT
BRANCH   4  11
ATOM     11  N   UNL     1       4.191   2.887  17.592  0.00  0.00    +0.000 N 
ATOM     12  H   UNL     1       4.425   2.217  18.320  0.00  0.00    +0.000 HD
BRANCH  11  13
ATOM     13  C   UNL     1       2.780   3.279  17.492  0.00  0.00    +0.000 C 
BRANCH  13  14
ATOM     14  C   UNL     1       2.133   3.535  18.853  0.00  0.00    +0.000 C 
BRANCH  14  15
ATOM     15  C   UNL     1       2.070   5.020  19.141  0.00  0.00    +0.000 A 
ATOM     16  C   UNL     1       2.436   5.959  18.165  0.00  0.00    +0.000 A 
ATOM     17  C   UNL     1       2.440   7.324  18.463  0.00  0.00    +0.000 A 
ATOM     18  C   UNL     1       2.082   7.765  19.736  0.00  0.00    +0.000 A 
ATOM     19  C   UNL     1       1.719   6.841  20.712  0.00  0.00    +0.000 A 
ATOM     20  C   UNL     1       1.714   5.476  20.418  0.00  0.00    +0.000 A 
ENDBRANCH  14  15
ENDBRANCH  13  14
ENDBRANCH  11  13
ENDBRANCH   4  11
TORSDOF 4
ENDMDL
MODEL 2
REMARK VINA RESULT:      -7.5      1.230      2.090
REMARK  Name = 
REMARK  5 active torsions:
REMARK  status: ('A' for Active; 'I' for Inactive)
REMARK    1  A    between atoms: C_1  and  C_2
REMARK    2  A    between atoms: C_4  and  N_5
REMARK    3  A    between atoms: N_5  and  C_6
REMARK    4  A    between atoms: C_6  and  C_7
REMARK    5  A    between atoms: C_7  and  C_8
REMARK                            x       y       z     vdW  Elec       q    Type
REMARK                         _______ _______ _______ _____ _____    ______ ____
ROOT
ATOM      1  C   UNL     1       7.368   5.170  13.860  0.00  0.00    +0.000 C 
ATOM      2  C   UNL     1       6.943   4.973  15.295  0.00  0.00    +0.000 A 
ATOM      3  C   UNL     1       5.790   4.057  15.553  0.00  0.00    +0.000 A 
ATOM      4  C   UNL     1       5.360   3.872  16.816  0.00  0.00    +0.000 A 
ATOM      5  C   UNL     1       6.080   4.572  17.838  0.00  0.00    +0.000 A 
ATOM      6  N   UNL     1       5.963   4.610  19.153  0.00  0.00    +0.000 NA
ATOM      7  N   UNL     1       6.940   5.439  19.653  0.00  0.00    +0.000 NA
ATOM      8  C   UNL     1       7.632   5.884  18.629  0.00  0.00    +0.000 A 
ATOM      9  N   UNL     1       7.138   5.372  17.463  0.00  0.00    +0.000 N 
ATOM     10  N   UNL     1       7.608   5.611  16.209  0.00  0.00    +0.000 NA
ENDROOT
BRANCH   4  11
ATOM     11  N   UNL     1       4.275   3.043  17.110  0.00  0.00    +0.000 N 
ATOM     12  H   UNL     1       4.426   2.355  17.843  0.00  0.00    +0.000 HD
BRANCH  11  13
ATOM     13  C   UNL     1       2.883   3.426  16.849  0.00  0.00    +0.000 C 
BRANCH  13  14
ATOM     14  C   UNL     1       2.388   4.543  17.768  0.00  0.00    +0.000 C 
BRANCH  14  15
ATOM     15  C   UNL     1       2.164   4.017  19.170  0.00  0.00    +0.000 A 
ATOM     16  C   UNL     1       1.562   2.768  19.384  0.00  0.00    +0.000 A 
ATOM     17  C   UNL     1       1.298   2.321  20.681  0.00  0.00    +0.000 A 
ATOM     18  C   UNL     1       1.629   3.117  21.777  0.00  0.00    +0.000 A 
ATOM     19  C   UNL     1       2.225   4.360  21.576  0.00  0.00    +0.000 A 
ATOM     20  C   UNL     1       2.490   4.808  20.280  0.00  0.00    +0.000 A 
ENDBRANCH  14  15
ENDBRANCH  13  14
ENDBRANCH  11  13
ENDBRANCH   4  11
TORSDOF 4
ENDMDL
MODEL 3
REMARK VINA RESULT:      -7.5      1.393      2.913
REMARK  Name = 
REMARK  5 active torsions:
REMARK  status: ('A' for Active; 'I' for Inactive)
REMARK    1  A    between atoms: C_1  and  C_2
REMARK    2  A    between atoms: C_4  and  N_5
REMARK    3  A    between atoms: N_5  and  C_6
REMARK    4  A    between atoms: C_6  and  C_7
REMARK    5  A    between atoms: C_7  and  C_8
REMARK                            x       y       z     vdW  Elec       q    Type
REMARK                         _______ _______ _______ _____ _____    ______ ____
ROOT
ATOM      1  C   UNL     1       8.022   7.884  18.112  0.00  0.00    +0.000 C 
ATOM      2  C   UNL     1       7.393   6.645  17.522  0.00  0.00    +0.000 A 
ATOM      3  C   UNL     1       6.688   5.717  18.459  0.00  0.00    +0.000 A 
ATOM      4  C   UNL     1       6.135   4.586  17.981  0.00  0.00    +0.000 A 
ATOM      5  C   UNL     1       6.254   4.373  16.569  0.00  0.00    +0.000 A 
ATOM      6  N   UNL     1       5.824   3.415  15.766  0.00  0.00    +0.000 NA
ATOM      7  N   UNL     1       6.203   3.722  14.481  0.00  0.00    +0.000 NA
ATOM      8  C   UNL     1       6.853   4.863  14.531  0.00  0.00    +0.000 A 
ATOM      9  N   UNL     1       6.916   5.319  15.816  0.00  0.00    +0.000 N 
ATOM     10  N   UNL     1       7.506   6.468  16.242  0.00  0.00    +0.000 NA
ENDROOT
BRANCH   4  11
ATOM     11  N   UNL     1       5.482   3.675  18.815  0.00  0.00    +0.000 N 
ATOM     12  H   UNL     1       6.078   3.015  19.305  0.00  0.00    +0.000 HD
BRANCH  11  13
ATOM     13  C   UNL     1       4.167   3.939  19.412  0.00  0.00    +0.000 C 
BRANCH  13  14
ATOM     14  C   UNL     1       3.148   4.469  18.402  0.00  0.00    +0.000 C 
BRANCH  14  15
ATOM     15  C   UNL     1       2.726   5.877  18.762  0.00  0.00    +0.000 A 
ATOM     16  C   UNL     1       2.242   6.179  20.044  0.00  0.00    +0.000 A 
ATOM     17  C   UNL     1       1.791   7.467  20.345  0.00  0.00    +0.000 A 
ATOM     18  C   UNL     1       1.815   8.464  19.371  0.00  0.00    +0.000 A 
ATOM     19  C   UNL     1       2.292   8.174  18.095  0.00  0.00    +0.000 A 
ATOM     20  C   UNL     1       2.743   6.888  17.791  0.00  0.00    +0.000 A 
ENDBRANCH  14  15
ENDBRANCH  13  14
ENDBRANCH  11  13
ENDBRANCH   4  11
TORSDOF 4
ENDMDL
MODEL 4
REMARK VINA RESULT:      -7.5      1.317      2.498
REMARK  Name = 
REMARK  5 active torsions:
REMARK  status: ('A' for Active; 'I' for Inactive)
REMARK    1  A    between atoms: C_1  and  C_2
REMARK    2  A    between atoms: C_4  and  N_5
REMARK    3  A    between atoms: N_5  and  C_6
REMARK    4  A    between atoms: C_6  and  C_7
REMARK    5  A    between atoms: C_7  and  C_8
REMARK                            x       y       z     vdW  Elec       q    Type
REMARK                         _______ _______ _______ _____ _____    ______ ____
ROOT
ATOM      1  C   UNL     1       6.927   4.427  14.208  0.00  0.00    +0.000 C 
ATOM      2  C   UNL     1       6.606   4.676  15.662  0.00  0.00    +0.000 A 
ATOM      3  C   UNL     1       5.163   4.708  16.054  0.00  0.00    +0.000 A 
ATOM      4  C   UNL     1       4.830   4.953  17.336  0.00  0.00    +0.000 A 
ATOM      5  C   UNL     1       5.920   5.146  18.246  0.00  0.00    +0.000 A 
ATOM      6  N   UNL     1       5.973   5.375  19.547  0.00  0.00    +0.000 NA
ATOM      7  N   UNL     1       7.294   5.457  19.919  0.00  0.00    +0.000 NA
ATOM      8  C   UNL     1       8.015   5.273  18.836  0.00  0.00    +0.000 A 
ATOM      9  N   UNL     1       7.205   5.072  17.755  0.00  0.00    +0.000 N 
ATOM     10  N   UNL     1       7.604   4.845  16.475  0.00  0.00    +0.000 NA
ENDROOT
BRANCH   4  11
ATOM     11  N   UNL     1       3.498   5.014  17.752  0.00  0.00    +0.000 N 
ATOM     12  H   UNL     1       3.132   4.177  18.197  0.00  0.00    +0.000 HD
BRANCH  11  13
ATOM     13  C   UNL     1       2.816   6.275  18.067  0.00  0.00    +0.000 C 
BRANCH  13  14
ATOM     14  C   UNL     1       2.414   6.385  19.538  0.00  0.00    +0.000 C 
BRANCH  14  15
ATOM     15  C   UNL     1       1.994   5.035  20.077  0.00  0.00    +0.000 A 
ATOM     16  C   UNL     1       2.495   4.559  21.298  0.00  0.00    +0.000 A 
ATOM     17  C   UNL     1       2.155   3.283  21.754  0.00  0.00    +0.000 A 
ATOM     18  C   UNL     1       1.315   2.469  20.995  0.00  0.00    +0.000 A 
ATOM     19  C   UNL     1       0.813   2.930  19.781  0.00  0.00    +0.000 A 
ATOM     20  C   UNL     1       1.152   4.206  19.323  0.00  0.00    +0.000 A 
ENDBRANCH  14  15
ENDBRANCH  13  14
ENDBRANCH  11  13
ENDBRANCH   4  11
TORSDOF 4
ENDMDL
MODEL 5
REMARK VINA RESULT:      -7.3      1.520      2.548
REMARK  Name = 
REMARK  5 active torsions:
REMARK  status: ('A' for Active; 'I' for Inactive)
REMARK    1  A    between atoms: C_1  and  C_2
REMARK    2  A    between atoms: C_4  and  N_5
REMARK    3  A    between atoms: N_5  and  C_6
REMARK    4  A    between atoms: C_6  and  C_7
REMARK    5  A    between atoms: C_7  and  C_8
REMARK                            x       y       z     vdW  Elec       q    Type
REMARK                         _______ _______ _______ _____ _____    ______ ____
ROOT
ATOM      1  C   UNL     1       6.428   4.382  13.732  0.00  0.00    +0.000 C 
ATOM      2  C   UNL     1       6.432   4.840  15.171  0.00  0.00    +0.000 A 
ATOM      3  C   UNL     1       5.371   5.807  15.589  0.00  0.00    +0.000 A 
ATOM      4  C   UNL     1       5.352   6.262  16.857  0.00  0.00    +0.000 A 
ATOM      5  C   UNL     1       6.367   5.750  17.728  0.00  0.00    +0.000 A 
ATOM      6  N   UNL     1       6.635   5.945  19.007  0.00  0.00    +0.000 NA
ATOM      7  N   UNL     1       7.724   5.177  19.345  0.00  0.00    +0.000 NA
ATOM      8  C   UNL     1       8.091   4.528  18.264  0.00  0.00    +0.000 A 
ATOM      9  N   UNL     1       7.275   4.847  17.217  0.00  0.00    +0.000 N 
ATOM     10  N   UNL     1       7.356   4.363  15.948  0.00  0.00    +0.000 NA
ENDROOT
BRANCH   4  11
ATOM     11  N   UNL     1       4.395   7.181  17.294  0.00  0.00    +0.000 N 
ATOM     12  H   UNL     1       4.484   8.125  16.928  0.00  0.00    +0.000 HD
BRANCH  11  13
ATOM     13  C   UNL     1       3.063   6.784  17.764  0.00  0.00    +0.000 C 
BRANCH  13  14
ATOM     14  C   UNL     1       3.054   6.333  19.225  0.00  0.00    +0.000 C 
BRANCH  14  15
ATOM     15  C   UNL     1       2.338   5.007  19.368  0.00  0.00    +0.000 A 
ATOM     16  C   UNL     1       2.112   4.187  18.253  0.00  0.00    +0.000 A 
ATOM     17  C   UNL     1       1.390   2.997  18.384  0.00  0.00    +0.000 A 
ATOM     18  C   UNL     1       0.884   2.618  19.626  0.00  0.00    +0.000 A 
ATOM     19  C   UNL     1       1.101   3.426  20.739  0.00  0.00    +0.000 A 
ATOM     20  C   UNL     1       1.822   4.615  20.611  0.00  0.00    +0.000 A 
ENDBRANCH  14  15
ENDBRANCH  13  14
ENDBRANCH  11  13
ENDBRANCH   4  11
TORSDOF 4
ENDMDL
MODEL 6
REMARK VINA RESULT:      -7.2      1.307      1.947
REMARK  Name = 
REMARK  5 active torsions:
REMARK  status: ('A' for Active; 'I' for Inactive)
REMARK    1  A    between atoms: C_1  and  C_2
REMARK    2  A    between atoms: C_4  and  N_5
REMARK    3  A    between atoms: N_5  and  C_6
REMARK    4  A    between atoms: C_6  and  C_7
REMARK    5  A    between atoms: C_7  and  C_8
REMARK                            x       y       z     vdW  Elec       q    Type
REMARK                         _______ _______ _______ _____ _____    ______ ____
ROOT
ATOM      1  C   UNL     1       7.441   5.205  13.858  0.00  0.00    +0.000 C 
ATOM      2  C   UNL     1       6.986   4.972  15.279  0.00  0.00    +0.000 A 
ATOM      3  C   UNL     1       5.878   3.991  15.495  0.00  0.00    +0.000 A 
ATOM      4  C   UNL     1       5.423   3.771  16.744  0.00  0.00    +0.000 A 
ATOM      5  C   UNL     1       6.073   4.500  17.791  0.00  0.00    +0.000 A 
ATOM      6  N   UNL     1       5.915   4.519  19.103  0.00  0.00    +0.000 NA
ATOM      7  N   UNL     1       6.830   5.396  19.638  0.00  0.00    +0.000 NA
ATOM      8  C   UNL     1       7.526   5.887  18.638  0.00  0.00    +0.000 A 
ATOM      9  N   UNL     1       7.096   5.361  17.454  0.00  0.00    +0.000 N 
ATOM     10  N   UNL     1       7.588   5.636  16.217  0.00  0.00    +0.000 NA
ENDROOT
BRANCH   4  11
ATOM     11  N   UNL     1       4.377   2.881  16.999  0.00  0.00    +0.000 N 
ATOM     12  H   UNL     1       4.596   2.100  17.611  0.00  0.00    +0.000 HD
BRANCH  11  13
ATOM     13  C   UNL     1       2.963   3.262  16.905  0.00  0.00    +0.000 C 
BRANCH  13  14
ATOM     14  C   UNL     1       2.057   2.427  17.810  0.00  0.00    +0.000 C 
BRANCH  14  15
ATOM     15  C   UNL     1       2.036   2.998  19.213  0.00  0.00    +0.000 A 
ATOM     16  C   UNL     1       2.348   4.345  19.447  0.00  0.00    +0.000 A 
ATOM     17  C   UNL     1       2.392   4.846  20.750  0.00  0.00    +0.000 A 
ATOM     18  C   UNL     1       2.130   4.007  21.832  0.00  0.00    +0.000 A 
ATOM     19  C   UNL     1       1.821   2.667  21.611  0.00  0.00    +0.000 A 
ATOM     20  C   UNL     1       1.776   2.164  20.309  0.00  0.00    +0.000 A 
ENDBRANCH  14  15
ENDBRANCH  13  14
ENDBRANCH  11  13
ENDBRANCH   4  11
TORSDOF 4
ENDMDL
MODEL 7
REMARK VINA RESULT:      -7.2      1.207      1.862
REMARK  Name = 
REMARK  5 active torsions:
REMARK  status: ('A' for Active; 'I' for Inactive)
REMARK    1  A    between atoms: C_1  and  C_2
REMARK    2  A    between atoms: C_4  and  N_5
REMARK    3  A    between atoms: N_5  and  C_6
REMARK    4  A    between atoms: C_6  and  C_7
REMARK    5  A    between atoms: C_7  and  C_8
REMARK                            x       y       z     vdW  Elec       q    Type
REMARK                         _______ _______ _______ _____ _____    ______ ____
ROOT
ATOM      1  C   UNL     1       6.886   4.862  14.210  0.00  0.00    +0.000 C 
ATOM      2  C   UNL     1       6.587   4.878  15.690  0.00  0.00    +0.000 A 
ATOM      3  C   UNL     1       5.188   4.564  16.113  0.00  0.00    +0.000 A 
ATOM      4  C   UNL     1       4.870   4.593  17.422  0.00  0.00    +0.000 A 
ATOM      5  C   UNL     1       5.936   4.909  18.325  0.00  0.00    +0.000 A 
ATOM      6  N   UNL     1       6.000   5.001  19.641  0.00  0.00    +0.000 NA
ATOM      7  N   UNL     1       7.291   5.317  19.993  0.00  0.00    +0.000 NA
ATOM      8  C   UNL     1       7.984   5.407  18.881  0.00  0.00    +0.000 A 
ATOM      9  N   UNL     1       7.186   5.160  17.801  0.00  0.00    +0.000 N 
ATOM     10  N   UNL     1       7.565   5.162  16.495  0.00  0.00    +0.000 NA
ENDROOT
BRANCH   4  11
ATOM     11  N   UNL     1       3.573   4.327  17.870  0.00  0.00    +0.000 N 
ATOM     12  H   UNL     1       3.417   3.400  18.256  0.00  0.00    +0.000 HD
BRANCH  11  13
ATOM     13  C   UNL     1       2.645   5.380  18.297  0.00  0.00    +0.000 C 
BRANCH  13  14
ATOM     14  C   UNL     1       3.162   6.789  18.003  0.00  0.00    +0.000 C 
BRANCH  14  15
ATOM     15  C   UNL     1       2.229   7.830  18.584  0.00  0.00    +0.000 A 
ATOM     16  C   UNL     1       1.694   8.847  17.780  0.00  0.00    +0.000 A 
ATOM     17  C   UNL     1       0.888   9.842  18.339  0.00  0.00    +0.000 A 
ATOM     18  C   UNL     1       0.612   9.835  19.705  0.00  0.00    +0.000 A 
ATOM     19  C   UNL     1       1.140   8.831  20.513  0.00  0.00    +0.000 A 
ATOM     20  C   UNL     1       1.945   7.835  19.957  0.00  0.00    +0.000 A 
ENDBRANCH  14  15
ENDBRANCH  13  14
ENDBRANCH  11  13
ENDBRANCH   4  11
TORSDOF 4
ENDMDL
MODEL 8
REMARK VINA RESULT:      -7.2      2.006      5.059
REMARK  Name = 
REMARK  5 active torsions:
REMARK  status: ('A' for Active; 'I' for Inactive)
REMARK    1  A    between atoms: C_1  and  C_2
REMARK    2  A    between atoms: C_4  and  N_5
REMARK    3  A    between atoms: N_5  and  C_6
REMARK    4  A    between atoms: C_6  and  C_7
REMARK    5  A    between atoms: C_7  and  C_8
REMARK                            x       y       z     vdW  Elec       q    Type
REMARK                         _______ _______ _______ _____ _____    ______ ____
ROOT
ATOM      1  C   UNL     1       2.358   7.855  18.199  0.00  0.00    +0.000 C 
ATOM      2  C   UNL     1       2.682   6.440  18.613  0.00  0.00    +0.000 A 
ATOM      3  C   UNL     1       3.498   5.615  17.669  0.00  0.00    +0.000 A 
ATOM      4  C   UNL     1       3.789   4.339  17.986  0.00  0.00    +0.000 A 
ATOM      5  C   UNL     1       3.296   3.873  19.248  0.00  0.00    +0.000 A 
ATOM      6  N   UNL     1       3.406   2.720  19.884  0.00  0.00    +0.000 NA
ATOM      7  N   UNL     1       2.750   2.824  21.088  0.00  0.00    +0.000 NA
ATOM      8  C   UNL     1       2.259   4.040  21.158  0.00  0.00    +0.000 A 
ATOM      9  N   UNL     1       2.571   4.745  20.031  0.00  0.00    +0.000 N 
ATOM     10  N   UNL     1       2.232   6.034  19.761  0.00  0.00    +0.000 NA
ENDROOT
BRANCH   4  11
ATOM     11  N   UNL     1       4.530   3.519  17.132  0.00  0.00    +0.000 N 
ATOM     12  H   UNL     1       4.336   2.524  17.191  0.00  0.00    +0.000 HD
BRANCH  11  13
ATOM     13  C   UNL     1       5.117   3.999  15.875  0.00  0.00    +0.000 C 
BRANCH  13  14
ATOM     14  C   UNL     1       6.643   4.082  15.921  0.00  0.00    +0.000 C 
BRANCH  14  15
ATOM     15  C   UNL     1       7.088   5.143  16.905  0.00  0.00    +0.000 A 
ATOM     16  C   UNL     1       7.080   6.501  16.553  0.00  0.00    +0.000 A 
ATOM     17  C   UNL     1       7.557   7.466  17.444  0.00  0.00    +0.000 A 
ATOM     18  C   UNL     1       8.049   7.085  18.692  0.00  0.00    +0.000 A 
ATOM     19  C   UNL     1       8.063   5.740  19.050  0.00  0.00    +0.000 A 
ATOM     20  C   UNL     1       7.587   4.773  18.161  0.00  0.00    +0.000 A 
ENDBRANCH  14  15
ENDBRANCH  13  14
ENDBRANCH  11  13
ENDBRANCH   4  11
TORSDOF 4
ENDMDL
MODEL 9
REMARK VINA RESULT:      -7.2      1.632      2.665
REMARK  Name = 
REMARK  5 active torsions:
REMARK  status: ('A' for Active; 'I' for Inactive)
REMARK    1  A    between atoms: C_1  and  C_2
REMARK    2  A    between atoms: C_4  and  N_5
REMARK    3  A    between atoms: N_5  and  C_6
REMARK    4  A    between atoms: C_6  and  C_7
REMARK    5  A    between atoms: C_7  and  C_8
REMARK                            x       y       z     vdW  Elec       q    Type
REMARK                         _______ _______ _______ _____ _____    ______ ____
ROOT
ATOM      1  C   UNL     1       6.485   4.411  13.790  0.00  0.00    +0.000 C 
ATOM      2  C   UNL     1       6.407   4.827  15.239  0.00  0.00    +0.000 A 
ATOM      3  C   UNL     1       5.234   5.656  15.655  0.00  0.00    +0.000 A 
ATOM      4  C   UNL     1       5.137   6.072  16.933  0.00  0.00    +0.000 A 
ATOM      5  C   UNL     1       6.185   5.654  17.815  0.00  0.00    +0.000 A 
ATOM      6  N   UNL     1       6.403   5.844  19.105  0.00  0.00    +0.000 NA
ATOM      7  N   UNL     1       7.565   5.195  19.450  0.00  0.00    +0.000 NA
ATOM      8  C   UNL     1       8.026   4.621  18.362  0.00  0.00    +0.000 A 
ATOM      9  N   UNL     1       7.201   4.874  17.304  0.00  0.00    +0.000 N 
ATOM     10  N   UNL     1       7.362   4.437  16.026  0.00  0.00    +0.000 NA
ENDROOT
BRANCH   4  11
ATOM     11  N   UNL     1       4.073   6.865  17.370  0.00  0.00    +0.000 N 
ATOM     12  H   UNL     1       3.976   7.769  16.916  0.00  0.00    +0.000 HD
BRANCH  11  13
ATOM     13  C   UNL     1       2.863   6.308  17.988  0.00  0.00    +0.000 C 
BRANCH  13  14
ATOM     14  C   UNL     1       2.676   4.819  17.699  0.00  0.00    +0.000 C 
BRANCH  14  15
ATOM     15  C   UNL     1       2.548   4.039  18.991  0.00  0.00    +0.000 A 
ATOM     16  C   UNL     1       1.381   4.116  19.766  0.00  0.00    +0.000 A 
ATOM     17  C   UNL     1       1.298   3.447  20.990  0.00  0.00    +0.000 A 
ATOM     18  C   UNL     1       2.379   2.700  21.454  0.00  0.00    +0.000 A 
ATOM     19  C   UNL     1       3.543   2.619  20.694  0.00  0.00    +0.000 A 
ATOM     20  C   UNL     1       3.629   3.287  19.470  0.00  0.00    +0.000 A 
ENDBRANCH  14  15
ENDBRANCH  13  14
ENDBRANCH  11  13
ENDBRANCH   4  11
TORSDOF 4
ENDMDL
