MODEL 1
REMARK VINA RESULT:      -8.5      0.000      0.000
REMARK  Name = 
REMARK  8 active torsions:
REMARK  status: ('A' for Active; 'I' for Inactive)
REMARK    1  A    between atoms: C_2  and  C_3
REMARK    2  A    between atoms: C_4  and  C_5
REMARK    3  A    between atoms: N_7  and  C_8
REMARK    4  A    between atoms: C_10  and  C_11
REMARK    5  A    between atoms: C_11  and  O_12
REMARK    6  A    between atoms: N_13  and  C_14
REMARK    7  A    between atoms: C_14  and  C_15
REMARK    8  A    between atoms: N_24  and  O_25
REMARK                            x       y       z     vdW  Elec       q    Type
REMARK                         _______ _______ _______ _____ _____    ______ ____
ROOT
ATOM      1  C   UNL     1       5.619   6.314  17.617  0.00  0.00    +0.000 C 
ATOM      2  C   UNL     1       5.636   5.203  18.657  0.00  0.00    +0.000 C 
ATOM      3  C   UNL     1       4.232   4.615  18.524  0.00  0.00    +0.000 C 
ATOM      4  N   UNL     1       3.350   5.809  18.398  0.00  0.00    +0.000 NA
ATOM      5  C   UNL     1       4.158   6.797  17.627  0.00  0.00    +0.000 C 
ENDROOT
BRANCH   1   8
ATOM      6  C   UNL     1       6.512   4.718  14.537  0.00  0.00    +0.000 A 
ATOM      7  C   UNL     1       5.499   5.048  15.400  0.00  0.00    +0.000 A 
ATOM      8  N   UNL     1       6.114   5.827  16.340  0.00  0.00    +0.000 N 
ATOM      9  N   UNL     1       7.422   5.992  16.046  0.00  0.00    +0.000 NA
ATOM     10  N   UNL     1       7.676   5.305  14.942  0.00  0.00    +0.000 NA
BRANCH   6  12
ATOM     11  C   UNL     1       5.282   3.456  12.856  0.00  0.00    +0.000 C 
ATOM     12  C   UNL     1       6.436   3.884  13.390  0.00  0.00    +0.000 C 
BRANCH  11  14
ATOM     13  O   UNL     1       4.420   2.590  10.806  0.00  0.00    +0.000 OA
ATOM     14  C   UNL     1       5.281   2.568  11.676  0.00  0.00    +0.000 C 
ATOM     15  N   UNL     1       6.364   1.731  11.640  0.00  0.00    +0.000 N 
ATOM     16  H   UNL     1       7.141   1.752  12.290  0.00  0.00    +0.000 HD
BRANCH  15  17
ATOM     17  O   UNL     1       6.515   0.927  10.490  0.00  0.00    +0.000 OA
ATOM     18  H   UNL     1       6.862   1.565   9.829  0.00  0.00    +0.000 HD
ENDBRANCH  15  17
ENDBRANCH  11  14
ENDBRANCH   6  12
ENDBRANCH   1   8
BRANCH   3  19
ATOM     19  C   UNL     1       3.945   3.543  19.588  0.00  0.00    +0.000 C 
BRANCH  19  20
ATOM     20  O   UNL     1       5.036   2.625  19.674  0.00  0.00    +0.000 OA
ATOM     21  H   UNL     1       5.071   2.123  18.841  0.00  0.00    +0.000 HD
ENDBRANCH  19  20
ENDBRANCH   3  19
BRANCH   4  22
ATOM     22  C   UNL     1       2.912   6.354  19.699  0.00  0.00    +0.000 C 
BRANCH  22  23
ATOM     23  C   UNL     1       2.052   7.606  19.619  0.00  0.00    +0.000 A 
ATOM     24  C   UNL     1       1.425   8.135  20.758  0.00  0.00    +0.000 A 
ATOM     25  C   UNL     1       0.732   9.348  20.692  0.00  0.00    +0.000 A 
ATOM     26  C   UNL     1       0.657  10.048  19.490  0.00  0.00    +0.000 A 
ATOM     27  C   UNL     1       1.251   9.524  18.345  0.00  0.00    +0.000 A 
ATOM     28  C   UNL     1       1.942   8.310  18.408  0.00  0.00    +0.000 A 
ENDBRANCH  22  23
ENDBRANCH   4  22
TORSDOF 8
ENDMDL
MODEL 2
REMARK VINA RESULT:      -8.3      4.830      7.354
REMARK  Name = 
REMARK  8 active torsions:
REMARK  status: ('A' for Active; 'I' for Inactive)
REMARK    1  A    between atoms: C_2  and  C_3
REMARK    2  A    between atoms: C_4  and  C_5
REMARK    3  A    between atoms: N_7  and  C_8
REMARK    4  A    between atoms: C_10  and  C_11
REMARK    5  A    between atoms: C_11  and  O_12
REMARK    6  A    between atoms: N_13  and  C_14
REMARK    7  A    between atoms: C_14  and  C_15
REMARK    8  A    between atoms: N_24  and  O_25
REMARK                            x       y       z     vdW  Elec       q    Type
REMARK                         _______ _______ _______ _____ _____    ______ ____
ROOT
ATOM      1  C   UNL     1       7.170   5.474  18.616  0.00  0.00    +0.000 C 
ATOM      2  C   UNL     1       7.283   4.508  17.445  0.00  0.00    +0.000 C 
ATOM      3  C   UNL     1       5.915   4.647  16.778  0.00  0.00    +0.000 C 
ATOM      4  N   UNL     1       4.958   4.676  17.919  0.00  0.00    +0.000 NA
ATOM      5  C   UNL     1       5.682   5.401  19.003  0.00  0.00    +0.000 C 
ENDROOT
BRANCH   1   8
ATOM      6  C   UNL     1       8.398   8.813  18.200  0.00  0.00    +0.000 A 
ATOM      7  C   UNL     1       8.476   7.650  18.922  0.00  0.00    +0.000 A 
ATOM      8  N   UNL     1       7.659   6.790  18.241  0.00  0.00    +0.000 N 
ATOM      9  N   UNL     1       7.141   7.387  17.146  0.00  0.00    +0.000 NA
ATOM     10  N   UNL     1       7.585   8.635  17.118  0.00  0.00    +0.000 NA
BRANCH   6  12
ATOM     11  C   UNL     1       8.687  11.213  17.902  0.00  0.00    +0.000 C 
ATOM     12  C   UNL     1       9.026  10.055  18.487  0.00  0.00    +0.000 C 
BRANCH  11  14
ATOM     13  O   UNL     1       9.967  12.665  19.299  0.00  0.00    +0.000 OA
ATOM     14  C   UNL     1       9.403  12.463  18.232  0.00  0.00    +0.000 C 
ATOM     15  N   UNL     1       9.394  13.367  17.204  0.00  0.00    +0.000 N 
ATOM     16  H   UNL     1       9.019  13.196  16.278  0.00  0.00    +0.000 HD
BRANCH  15  17
ATOM     17  O   UNL     1      10.151  14.545  17.379  0.00  0.00    +0.000 OA
ATOM     18  H   UNL     1      10.101  14.687  18.350  0.00  0.00    +0.000 HD
ENDBRANCH  15  17
ENDBRANCH  11  14
ENDBRANCH   6  12
ENDBRANCH   1   8
BRANCH   3  19
ATOM     19  C   UNL     1       5.725   3.647  15.626  0.00  0.00    +0.000 C 
BRANCH  19  20
ATOM     20  O   UNL     1       6.540   4.012  14.512  0.00  0.00    +0.000 OA
ATOM     21  H   UNL     1       6.235   4.877  14.187  0.00  0.00    +0.000 HD
ENDBRANCH  19  20
ENDBRANCH   3  19
BRANCH   4  22
ATOM     22  C   UNL     1       4.521   3.334  18.353  0.00  0.00    +0.000 C 
BRANCH  22  23
ATOM     23  C   UNL     1       3.358   3.317  19.333  0.00  0.00    +0.000 A 
ATOM     24  C   UNL     1       2.105   3.848  18.987  0.00  0.00    +0.000 A 
ATOM     25  C   UNL     1       1.015   3.724  19.854  0.00  0.00    +0.000 A 
ATOM     26  C   UNL     1       1.160   3.068  21.075  0.00  0.00    +0.000 A 
ATOM     27  C   UNL     1       2.403   2.557  21.443  0.00  0.00    +0.000 A 
ATOM     28  C   UNL     1       3.495   2.683  20.579  0.00  0.00    +0.000 A 
ENDBRANCH  22  23
ENDBRANCH   4  22
TORSDOF 8
ENDMDL
MODEL 3
REMARK VINA RESULT:      -8.3      4.739      7.381
REMARK  Name = 
REMARK  8 active torsions:
REMARK  status: ('A' for Active; 'I' for Inactive)
REMARK    1  A    between atoms: C_2  and  C_3
REMARK    2  A    between atoms: C_4  and  C_5
REMARK    3  A    between atoms: N_7  and  C_8
REMARK    4  A    between atoms: C_10  and  C_11
REMARK    5  A    between atoms: C_11  and  O_12
REMARK    6  A    between atoms: N_13  and  C_14
REMARK    7  A    between atoms: C_14  and  C_15
REMARK    8  A    between atoms: N_24  and  O_25
REMARK                            x       y       z     vdW  Elec       q    Type
REMARK                         _______ _______ _______ _____ _____    ______ ____
ROOT
ATOM      1  C   UNL     1       6.931   5.306  18.236  0.00  0.00    +0.000 C 
ATOM      2  C   UNL     1       6.923   4.562  16.908  0.00  0.00    +0.000 C 
ATOM      3  C   UNL     1       5.547   4.916  16.347  0.00  0.00    +0.000 C 
ATOM      4  N   UNL     1       4.638   4.807  17.523  0.00  0.00    +0.000 NA
ATOM      5  C   UNL     1       5.458   5.270  18.679  0.00  0.00    +0.000 C 
ENDROOT
BRANCH   1   8
ATOM      6  C   UNL     1       8.374   8.582  18.360  0.00  0.00    +0.000 A 
ATOM      7  C   UNL     1       8.365   7.318  18.892  0.00  0.00    +0.000 A 
ATOM      8  N   UNL     1       7.509   6.630  18.077  0.00  0.00    +0.000 N 
ATOM      9  N   UNL     1       7.051   7.421  17.083  0.00  0.00    +0.000 NA
ATOM     10  N   UNL     1       7.573   8.627  17.256  0.00  0.00    +0.000 NA
BRANCH   6  12
ATOM     11  C   UNL     1       9.254  10.841  18.129  0.00  0.00    +0.000 C 
ATOM     12  C   UNL     1       9.073   9.720  18.844  0.00  0.00    +0.000 C 
BRANCH  11  14
ATOM     13  O   UNL     1      11.122  11.873  19.199  0.00  0.00    +0.000 OA
ATOM     14  C   UNL     1      10.015  11.978  18.689  0.00  0.00    +0.000 C 
ATOM     15  N   UNL     1       9.360  13.172  18.552  0.00  0.00    +0.000 N 
ATOM     16  H   UNL     1       8.489  13.308  18.053  0.00  0.00    +0.000 HD
BRANCH  15  17
ATOM     17  O   UNL     1      10.057  14.334  18.949  0.00  0.00    +0.000 OA
ATOM     18  H   UNL     1      10.075  14.864  18.122  0.00  0.00    +0.000 HD
ENDBRANCH  15  17
ENDBRANCH  11  14
ENDBRANCH   6  12
ENDBRANCH   1   8
BRANCH   3  19
ATOM     19  C   UNL     1       5.235   4.157  15.047  0.00  0.00    +0.000 C 
BRANCH  19  20
ATOM     20  O   UNL     1       6.382   3.427  14.611  0.00  0.00    +0.000 OA
ATOM     21  H   UNL     1       6.279   2.504  14.902  0.00  0.00    +0.000 HD
ENDBRANCH  19  20
ENDBRANCH   3  19
BRANCH   4  22
ATOM     22  C   UNL     1       4.113   3.443  17.733  0.00  0.00    +0.000 C 
BRANCH  22  23
ATOM     23  C   UNL     1       3.139   3.296  18.892  0.00  0.00    +0.000 A 
ATOM     24  C   UNL     1       3.514   2.659  20.085  0.00  0.00    +0.000 A 
ATOM     25  C   UNL     1       2.647   2.631  21.181  0.00  0.00    +0.000 A 
ATOM     26  C   UNL     1       1.396   3.240  21.103  0.00  0.00    +0.000 A 
ATOM     27  C   UNL     1       0.999   3.854  19.917  0.00  0.00    +0.000 A 
ATOM     28  C   UNL     1       1.863   3.880  18.819  0.00  0.00    +0.000 A 
ENDBRANCH  22  23
ENDBRANCH   4  22
TORSDOF 8
ENDMDL
MODEL 4
REMARK VINA RESULT:      -8.2      4.738      7.634
REMARK  Name = 
REMARK  8 active torsions:
REMARK  status: ('A' for Active; 'I' for Inactive)
REMARK    1  A    between atoms: C_2  and  C_3
REMARK    2  A    between atoms: C_4  and  C_5
REMARK    3  A    between atoms: N_7  and  C_8
REMARK    4  A    between atoms: C_10  and  C_11
REMARK    5  A    between atoms: C_11  and  O_12
REMARK    6  A    between atoms: N_13  and  C_14
REMARK    7  A    between atoms: C_14  and  C_15
REMARK    8  A    between atoms: N_24  and  O_25
REMARK                            x       y       z     vdW  Elec       q    Type
REMARK                         _______ _______ _______ _____ _____    ______ ____
ROOT
ATOM      1  C   UNL     1       6.903   5.551  18.438  0.00  0.00    +0.000 C 
ATOM      2  C   UNL     1       7.201   4.561  17.321  0.00  0.00    +0.000 C 
ATOM      3  C   UNL     1       5.951   4.669  16.450  0.00  0.00    +0.000 C 
ATOM      4  N   UNL     1       4.830   4.712  17.431  0.00  0.00    +0.000 NA
ATOM      5  C   UNL     1       5.374   5.468  18.595  0.00  0.00    +0.000 C 
ENDROOT
BRANCH   1   8
ATOM      6  C   UNL     1       8.302   8.835  18.139  0.00  0.00    +0.000 A 
ATOM      7  C   UNL     1       8.390   7.608  18.745  0.00  0.00    +0.000 A 
ATOM      8  N   UNL     1       7.432   6.865  18.112  0.00  0.00    +0.000 N 
ATOM      9  N   UNL     1       6.821   7.589  17.149  0.00  0.00    +0.000 NA
ATOM     10  N   UNL     1       7.346   8.806  17.166  0.00  0.00    +0.000 NA
BRANCH   6  12
ATOM     11  C   UNL     1       9.472  10.321  19.674  0.00  0.00    +0.000 C 
ATOM     12  C   UNL     1       9.049  10.005  18.441  0.00  0.00    +0.000 C 
BRANCH  11  14
ATOM     13  O   UNL     1      11.136  11.966  19.205  0.00  0.00    +0.000 OA
ATOM     14  C   UNL     1      10.223  11.569  19.918  0.00  0.00    +0.000 C 
ATOM     15  N   UNL     1       9.772  12.255  21.014  0.00  0.00    +0.000 N 
ATOM     16  H   UNL     1       8.961  12.004  21.568  0.00  0.00    +0.000 HD
BRANCH  15  17
ATOM     17  O   UNL     1      10.348  13.519  21.261  0.00  0.00    +0.000 OA
ATOM     18  H   UNL     1      10.624  13.446  22.201  0.00  0.00    +0.000 HD
ENDBRANCH  15  17
ENDBRANCH  11  14
ENDBRANCH   6  12
ENDBRANCH   1   8
BRANCH   3  19
ATOM     19  C   UNL     1       5.946   3.641  15.307  0.00  0.00    +0.000 C 
BRANCH  19  20
ATOM     20  O   UNL     1       5.372   4.211  14.130  0.00  0.00    +0.000 OA
ATOM     21  H   UNL     1       5.959   4.926  13.826  0.00  0.00    +0.000 HD
ENDBRANCH  19  20
ENDBRANCH   3  19
BRANCH   4  22
ATOM     22  C   UNL     1       4.344   3.374  17.826  0.00  0.00    +0.000 C 
BRANCH  22  23
ATOM     23  C   UNL     1       3.305   3.364  18.937  0.00  0.00    +0.000 A 
ATOM     24  C   UNL     1       2.005   3.850  18.725  0.00  0.00    +0.000 A 
ATOM     25  C   UNL     1       1.029   3.731  19.719  0.00  0.00    +0.000 A 
ATOM     26  C   UNL     1       1.336   3.125  20.935  0.00  0.00    +0.000 A 
ATOM     27  C   UNL     1       2.629   2.661  21.171  0.00  0.00    +0.000 A 
ATOM     28  C   UNL     1       3.607   2.782  20.179  0.00  0.00    +0.000 A 
ENDBRANCH  22  23
ENDBRANCH   4  22
TORSDOF 8
ENDMDL
MODEL 5
REMARK VINA RESULT:      -8.1      3.629      9.046
REMARK  Name = 
REMARK  8 active torsions:
REMARK  status: ('A' for Active; 'I' for Inactive)
REMARK    1  A    between atoms: C_2  and  C_3
REMARK    2  A    between atoms: C_4  and  C_5
REMARK    3  A    between atoms: N_7  and  C_8
REMARK    4  A    between atoms: C_10  and  C_11
REMARK    5  A    between atoms: C_11  and  O_12
REMARK    6  A    between atoms: N_13  and  C_14
REMARK    7  A    between atoms: C_14  and  C_15
REMARK    8  A    between atoms: N_24  and  O_25
REMARK                            x       y       z     vdW  Elec       q    Type
REMARK                         _______ _______ _______ _____ _____    ______ ____
ROOT
ATOM      1  C   UNL     1       3.990   5.234  18.356  0.00  0.00    +0.000 C 
ATOM      2  C   UNL     1       5.282   5.020  19.132  0.00  0.00    +0.000 C 
ATOM      3  C   UNL     1       6.280   5.861  18.338  0.00  0.00    +0.000 C 
ATOM      4  N   UNL     1       5.947   5.568  16.915  0.00  0.00    +0.000 NA
ATOM      5  C   UNL     1       4.465   5.395  16.901  0.00  0.00    +0.000 C 
ENDROOT
BRANCH   1   8
ATOM      6  C   UNL     1       1.879   7.642  19.961  0.00  0.00    +0.000 A 
ATOM      7  C   UNL     1       2.582   6.473  20.093  0.00  0.00    +0.000 A 
ATOM      8  N   UNL     1       3.244   6.355  18.903  0.00  0.00    +0.000 N 
ATOM      9  N   UNL     1       2.986   7.413  18.104  0.00  0.00    +0.000 NA
ATOM     10  N   UNL     1       2.139   8.206  18.745  0.00  0.00    +0.000 NA
BRANCH   6  12
ATOM     11  C   UNL     1       1.338   9.188  21.764  0.00  0.00    +0.000 C 
ATOM     12  C   UNL     1       0.985   8.226  20.898  0.00  0.00    +0.000 C 
BRANCH  11  14
ATOM     13  O   UNL     1       0.424   9.555  23.938  0.00  0.00    +0.000 OA
ATOM     14  C   UNL     1       0.359   9.731  22.728  0.00  0.00    +0.000 C 
ATOM     15  N   UNL     1      -0.617  10.479  22.128  0.00  0.00    +0.000 N 
ATOM     16  H   UNL     1      -0.647  10.722  21.144  0.00  0.00    +0.000 HD
BRANCH  15  17
ATOM     17  O   UNL     1      -1.532  11.139  22.976  0.00  0.00    +0.000 OA
ATOM     18  H   UNL     1      -1.196  10.908  23.870  0.00  0.00    +0.000 HD
ENDBRANCH  15  17
ENDBRANCH  11  14
ENDBRANCH   6  12
ENDBRANCH   1   8
BRANCH   3  19
ATOM     19  C   UNL     1       7.720   5.695  18.850  0.00  0.00    +0.000 C 
BRANCH  19  20
ATOM     20  O   UNL     1       7.723   5.512  20.267  0.00  0.00    +0.000 OA
ATOM     21  H   UNL     1       7.346   4.635  20.457  0.00  0.00    +0.000 HD
ENDBRANCH  19  20
ENDBRANCH   3  19
BRANCH   4  22
ATOM     22  C   UNL     1       6.643   4.380  16.381  0.00  0.00    +0.000 C 
BRANCH  22  23
ATOM     23  C   UNL     1       6.798   4.346  14.869  0.00  0.00    +0.000 A 
ATOM     24  C   UNL     1       5.986   3.526  14.070  0.00  0.00    +0.000 A 
ATOM     25  C   UNL     1       6.062   3.589  12.676  0.00  0.00    +0.000 A 
ATOM     26  C   UNL     1       6.948   4.471  12.060  0.00  0.00    +0.000 A 
ATOM     27  C   UNL     1       7.779   5.273  12.839  0.00  0.00    +0.000 A 
ATOM     28  C   UNL     1       7.707   5.209  14.233  0.00  0.00    +0.000 A 
ENDBRANCH  22  23
ENDBRANCH   4  22
TORSDOF 8
ENDMDL
MODEL 6
REMARK VINA RESULT:      -8.1      4.705      7.440
REMARK  Name = 
REMARK  8 active torsions:
REMARK  status: ('A' for Active; 'I' for Inactive)
REMARK    1  A    between atoms: C_2  and  C_3
REMARK    2  A    between atoms: C_4  and  C_5
REMARK    3  A    between atoms: N_7  and  C_8
REMARK    4  A    between atoms: C_10  and  C_11
REMARK    5  A    between atoms: C_11  and  O_12
REMARK    6  A    between atoms: N_13  and  C_14
REMARK    7  A    between atoms: C_14  and  C_15
REMARK    8  A    between atoms: N_24  and  O_25
REMARK                            x       y       z     vdW  Elec       q    Type
REMARK                         _______ _______ _______ _____ _____    ______ ____
ROOT
ATOM      1  C   UNL     1       6.774   5.458  18.274  0.00  0.00    +0.000 C 
ATOM      2  C   UNL     1       7.166   4.502  17.155  0.00  0.00    +0.000 C 
ATOM      3  C   UNL     1       6.066   4.743  16.123  0.00  0.00    +0.000 C 
ATOM      4  N   UNL     1       4.819   4.821  16.936  0.00  0.00    +0.000 NA
ATOM      5  C   UNL     1       5.237   5.480  18.207  0.00  0.00    +0.000 C 
ENDROOT
BRANCH   1   8
ATOM      6  C   UNL     1       8.428   8.633  18.367  0.00  0.00    +0.000 A 
ATOM      7  C   UNL     1       8.355   7.369  18.892  0.00  0.00    +0.000 A 
ATOM      8  N   UNL     1       7.430   6.743  18.102  0.00  0.00    +0.000 N 
ATOM      9  N   UNL     1       6.992   7.570  17.129  0.00  0.00    +0.000 NA
ATOM     10  N   UNL     1       7.596   8.739  17.290  0.00  0.00    +0.000 NA
BRANCH   6  12
ATOM     11  C   UNL     1       9.208  10.939  18.270  0.00  0.00    +0.000 C 
ATOM     12  C   UNL     1       9.214   9.721  18.833  0.00  0.00    +0.000 C 
BRANCH  11  14
ATOM     13  O   UNL     1       9.703  13.172  18.951  0.00  0.00    +0.000 OA
ATOM     14  C   UNL     1      10.073  12.016  18.794  0.00  0.00    +0.000 C 
ATOM     15  N   UNL     1      11.330  11.579  19.116  0.00  0.00    +0.000 N 
ATOM     16  H   UNL     1      11.638  10.614  19.088  0.00  0.00    +0.000 HD
BRANCH  15  17
ATOM     17  O   UNL     1      12.193  12.508  19.735  0.00  0.00    +0.000 OA
ATOM     18  H   UNL     1      12.589  11.978  20.461  0.00  0.00    +0.000 HD
ENDBRANCH  15  17
ENDBRANCH  11  14
ENDBRANCH   6  12
ENDBRANCH   1   8
BRANCH   3  19
ATOM     19  C   UNL     1       6.161   3.774  14.933  0.00  0.00    +0.000 C 
BRANCH  19  20
ATOM     20  O   UNL     1       6.682   4.447  13.786  0.00  0.00    +0.000 OA
ATOM     21  H   UNL     1       5.944   4.902  13.344  0.00  0.00    +0.000 HD
ENDBRANCH  19  20
ENDBRANCH   3  19
BRANCH   4  22
ATOM     22  C   UNL     1       4.194   3.506  17.179  0.00  0.00    +0.000 C 
BRANCH  22  23
ATOM     23  C   UNL     1       3.283   3.437  18.394  0.00  0.00    +0.000 A 
ATOM     24  C   UNL     1       1.948   3.868  18.332  0.00  0.00    +0.000 A 
ATOM     25  C   UNL     1       1.091   3.694  19.423  0.00  0.00    +0.000 A 
ATOM     26  C   UNL     1       1.553   3.087  20.589  0.00  0.00    +0.000 A 
ATOM     27  C   UNL     1       2.882   2.678  20.676  0.00  0.00    +0.000 A 
ATOM     28  C   UNL     1       3.742   2.854  19.588  0.00  0.00    +0.000 A 
ENDBRANCH  22  23
ENDBRANCH   4  22
TORSDOF 8
ENDMDL
MODEL 7
REMARK VINA RESULT:      -8.1      3.814      8.468
REMARK  Name = 
REMARK  8 active torsions:
REMARK  status: ('A' for Active; 'I' for Inactive)
REMARK    1  A    between atoms: C_2  and  C_3
REMARK    2  A    between atoms: C_4  and  C_5
REMARK    3  A    between atoms: N_7  and  C_8
REMARK    4  A    between atoms: C_10  and  C_11
REMARK    5  A    between atoms: C_11  and  O_12
REMARK    6  A    between atoms: N_13  and  C_14
REMARK    7  A    between atoms: C_14  and  C_15
REMARK    8  A    between atoms: N_24  and  O_25
REMARK                            x       y       z     vdW  Elec       q    Type
REMARK                         _______ _______ _______ _____ _____    ______ ____
ROOT
ATOM      1  C   UNL     1       4.115   5.397  17.812  0.00  0.00    +0.000 C 
ATOM      2  C   UNL     1       5.298   5.240  18.757  0.00  0.00    +0.000 C 
ATOM      3  C   UNL     1       6.332   6.182  18.141  0.00  0.00    +0.000 C 
ATOM      4  N   UNL     1       6.223   5.929  16.677  0.00  0.00    +0.000 NA
ATOM      5  C   UNL     1       4.776   5.653  16.446  0.00  0.00    +0.000 C 
ENDROOT
BRANCH   1   8
ATOM      6  C   UNL     1       2.172   8.281  18.668  0.00  0.00    +0.000 A 
ATOM      7  C   UNL     1       2.809   7.589  17.670  0.00  0.00    +0.000 A 
ATOM      8  N   UNL     1       3.218   6.438  18.284  0.00  0.00    +0.000 N 
ATOM      9  N   UNL     1       2.821   6.415  19.575  0.00  0.00    +0.000 NA
ATOM     10  N   UNL     1       2.183   7.550  19.821  0.00  0.00    +0.000 NA
BRANCH   6  12
ATOM     11  C   UNL     1       0.384   9.876  19.106  0.00  0.00    +0.000 C 
ATOM     12  C   UNL     1       1.584   9.572  18.588  0.00  0.00    +0.000 C 
BRANCH  11  14
ATOM     13  O   UNL     1      -0.089  12.104  19.820  0.00  0.00    +0.000 OA
ATOM     14  C   UNL     1      -0.177  11.236  18.962  0.00  0.00    +0.000 C 
ATOM     15  N   UNL     1      -0.783  11.434  17.751  0.00  0.00    +0.000 N 
ATOM     16  H   UNL     1      -0.791  10.770  16.985  0.00  0.00    +0.000 HD
BRANCH  15  17
ATOM     17  O   UNL     1      -1.246  12.737  17.471  0.00  0.00    +0.000 OA
ATOM     18  H   UNL     1      -1.962  12.854  18.133  0.00  0.00    +0.000 HD
ENDBRANCH  15  17
ENDBRANCH  11  14
ENDBRANCH   6  12
ENDBRANCH   1   8
BRANCH   3  19
ATOM     19  C   UNL     1       7.694   6.095  18.848  0.00  0.00    +0.000 C 
BRANCH  19  20
ATOM     20  O   UNL     1       7.546   5.504  20.140  0.00  0.00    +0.000 OA
ATOM     21  H   UNL     1       6.692   5.037  20.160  0.00  0.00    +0.000 HD
ENDBRANCH  19  20
ENDBRANCH   3  19
BRANCH   4  22
ATOM     22  C   UNL     1       7.075   4.817  16.209  0.00  0.00    +0.000 C 
BRANCH  22  23
ATOM     23  C   UNL     1       7.041   4.562  14.710  0.00  0.00    +0.000 A 
ATOM     24  C   UNL     1       6.171   3.613  14.149  0.00  0.00    +0.000 A 
ATOM     25  C   UNL     1       6.071   3.471  12.762  0.00  0.00    +0.000 A 
ATOM     26  C   UNL     1       6.834   4.273  11.917  0.00  0.00    +0.000 A 
ATOM     27  C   UNL     1       7.721   5.201  12.457  0.00  0.00    +0.000 A 
ATOM     28  C   UNL     1       7.826   5.343  13.844  0.00  0.00    +0.000 A 
ENDBRANCH  22  23
ENDBRANCH   4  22
TORSDOF 8
ENDMDL
MODEL 8
REMARK VINA RESULT:      -8.1      0.960      1.379
REMARK  Name = 
REMARK  8 active torsions:
REMARK  status: ('A' for Active; 'I' for Inactive)
REMARK    1  A    between atoms: C_2  and  C_3
REMARK    2  A    between atoms: C_4  and  C_5
REMARK    3  A    between atoms: N_7  and  C_8
REMARK    4  A    between atoms: C_10  and  C_11
REMARK    5  A    between atoms: C_11  and  O_12
REMARK    6  A    between atoms: N_13  and  C_14
REMARK    7  A    between atoms: C_14  and  C_15
REMARK    8  A    between atoms: N_24  and  O_25
REMARK                            x       y       z     vdW  Elec       q    Type
REMARK                         _______ _______ _______ _____ _____    ______ ____
ROOT
ATOM      1  C   UNL     1       5.363   6.261  17.788  0.00  0.00    +0.000 C 
ATOM      2  C   UNL     1       4.770   5.112  18.590  0.00  0.00    +0.000 C 
ATOM      3  C   UNL     1       3.309   5.125  18.143  0.00  0.00    +0.000 C 
ATOM      4  N   UNL     1       2.952   6.571  18.116  0.00  0.00    +0.000 NA
ATOM      5  C   UNL     1       4.198   7.260  17.673  0.00  0.00    +0.000 C 
ENDROOT
BRANCH   1   8
ATOM      6  C   UNL     1       6.376   4.677  14.739  0.00  0.00    +0.000 A 
ATOM      7  C   UNL     1       5.330   5.001  15.564  0.00  0.00    +0.000 A 
ATOM      8  N   UNL     1       5.906   5.779  16.529  0.00  0.00    +0.000 N 
ATOM      9  N   UNL     1       7.224   5.949  16.285  0.00  0.00    +0.000 NA
ATOM     10  N   UNL     1       7.522   5.266  15.189  0.00  0.00    +0.000 NA
BRANCH   6  12
ATOM     11  C   UNL     1       5.223   3.537  12.921  0.00  0.00    +0.000 C 
ATOM     12  C   UNL     1       6.346   3.846  13.588  0.00  0.00    +0.000 C 
BRANCH  11  14
ATOM     13  O   UNL     1       4.401   2.618  10.878  0.00  0.00    +0.000 OA
ATOM     14  C   UNL     1       5.265   2.645  11.745  0.00  0.00    +0.000 C 
ATOM     15  N   UNL     1       6.390   1.866  11.709  0.00  0.00    +0.000 N 
ATOM     16  H   UNL     1       7.167   1.931  12.357  0.00  0.00    +0.000 HD
BRANCH  15  17
ATOM     17  O   UNL     1       6.579   1.065  10.563  0.00  0.00    +0.000 OA
ATOM     18  H   UNL     1       5.929   1.442   9.931  0.00  0.00    +0.000 HD
ENDBRANCH  15  17
ENDBRANCH  11  14
ENDBRANCH   6  12
ENDBRANCH   1   8
BRANCH   3  19
ATOM     19  C   UNL     1       2.449   4.125  18.932  0.00  0.00    +0.000 C 
BRANCH  19  20
ATOM     20  O   UNL     1       2.022   3.059  18.082  0.00  0.00    +0.000 OA
ATOM     21  H   UNL     1       1.873   3.426  17.193  0.00  0.00    +0.000 HD
ENDBRANCH  19  20
ENDBRANCH   3  19
BRANCH   4  22
ATOM     22  C   UNL     1       2.476   7.082  19.417  0.00  0.00    +0.000 C 
BRANCH  22  23
ATOM     23  C   UNL     1       1.618   8.337  19.345  0.00  0.00    +0.000 A 
ATOM     24  C   UNL     1       1.310   8.941  18.116  0.00  0.00    +0.000 A 
ATOM     25  C   UNL     1       0.430  10.025  18.056  0.00  0.00    +0.000 A 
ATOM     26  C   UNL     1      -0.156  10.519  19.220  0.00  0.00    +0.000 A 
ATOM     27  C   UNL     1       0.159   9.947  20.450  0.00  0.00    +0.000 A 
ATOM     28  C   UNL     1       1.042   8.865  20.513  0.00  0.00    +0.000 A 
ENDBRANCH  22  23
ENDBRANCH   4  22
TORSDOF 8
ENDMDL
MODEL 9
REMARK VINA RESULT:      -8.1      3.659      9.076
REMARK  Name = 
REMARK  8 active torsions:
REMARK  status: ('A' for Active; 'I' for Inactive)
REMARK    1  A    between atoms: C_2  and  C_3
REMARK    2  A    between atoms: C_4  and  C_5
REMARK    3  A    between atoms: N_7  and  C_8
REMARK    4  A    between atoms: C_10  and  C_11
REMARK    5  A    between atoms: C_11  and  O_12
REMARK    6  A    between atoms: N_13  and  C_14
REMARK    7  A    between atoms: C_14  and  C_15
REMARK    8  A    between atoms: N_24  and  O_25
REMARK                            x       y       z     vdW  Elec       q    Type
REMARK                         _______ _______ _______ _____ _____    ______ ____
ROOT
ATOM      1  C   UNL     1       3.912   5.542  18.069  0.00  0.00    +0.000 C 
ATOM      2  C   UNL     1       5.106   5.181  18.941  0.00  0.00    +0.000 C 
ATOM      3  C   UNL     1       6.231   5.991  18.299  0.00  0.00    +0.000 C 
ATOM      4  N   UNL     1       6.014   5.816  16.835  0.00  0.00    +0.000 NA
ATOM      5  C   UNL     1       4.532   5.758  16.678  0.00  0.00    +0.000 C 
ENDROOT
BRANCH   1   8
ATOM      6  C   UNL     1       1.864   7.998  19.684  0.00  0.00    +0.000 A 
ATOM      7  C   UNL     1       2.520   6.800  19.806  0.00  0.00    +0.000 A 
ATOM      8  N   UNL     1       3.199   6.680  18.625  0.00  0.00    +0.000 N 
ATOM      9  N   UNL     1       2.996   7.763  17.843  0.00  0.00    +0.000 NA
ATOM     10  N   UNL     1       2.169   8.575  18.486  0.00  0.00    +0.000 NA
BRANCH   6  12
ATOM     11  C   UNL     1       1.356   9.062  21.816  0.00  0.00    +0.000 C 
ATOM     12  C   UNL     1       0.975   8.597  20.616  0.00  0.00    +0.000 C 
BRANCH  11  14
ATOM     13  O   UNL     1       0.409   9.510  23.960  0.00  0.00    +0.000 OA
ATOM     14  C   UNL     1       0.370   9.651  22.745  0.00  0.00    +0.000 C 
ATOM     15  N   UNL     1      -0.581  10.398  22.105  0.00  0.00    +0.000 N 
ATOM     16  H   UNL     1      -0.588  10.612  21.114  0.00  0.00    +0.000 HD
BRANCH  15  17
ATOM     17  O   UNL     1      -1.499  11.099  22.916  0.00  0.00    +0.000 OA
ATOM     18  H   UNL     1      -0.943  11.814  23.296  0.00  0.00    +0.000 HD
ENDBRANCH  15  17
ENDBRANCH  11  14
ENDBRANCH   6  12
ENDBRANCH   1   8
BRANCH   3  19
ATOM     19  C   UNL     1       7.602   5.683  18.925  0.00  0.00    +0.000 C 
BRANCH  19  20
ATOM     20  O   UNL     1       8.379   6.876  19.027  0.00  0.00    +0.000 OA
ATOM     21  H   UNL     1       8.543   7.048  19.972  0.00  0.00    +0.000 HD
ENDBRANCH  19  20
ENDBRANCH   3  19
BRANCH   4  22
ATOM     22  C   UNL     1       6.671   4.615  16.284  0.00  0.00    +0.000 C 
BRANCH  22  23
ATOM     23  C   UNL     1       6.736   4.552  14.765  0.00  0.00    +0.000 A 
ATOM     24  C   UNL     1       7.673   5.307  14.042  0.00  0.00    +0.000 A 
ATOM     25  C   UNL     1       7.796   5.153  12.658  0.00  0.00    +0.000 A 
ATOM     26  C   UNL     1       6.988   4.245  11.978  0.00  0.00    +0.000 A 
ATOM     27  C   UNL     1       6.035   3.507  12.677  0.00  0.00    +0.000 A 
ATOM     28  C   UNL     1       5.908   3.661  14.061  0.00  0.00    +0.000 A 
ENDBRANCH  22  23
ENDBRANCH   4  22
TORSDOF 8
ENDMDL
