MODEL 1
REMARK VINA RESULT:      -7.3      0.000      0.000
REMARK  Name = 
REMARK  7 active torsions:
REMARK  status: ('A' for Active; 'I' for Inactive)
REMARK    1  A    between atoms: C_2  and  C_21
REMARK    2  A    between atoms: N_3  and  C_4
REMARK    3  A    between atoms: C_7  and  C_8
REMARK    4  A    between atoms: C_8  and  C_9
REMARK    5  A    between atoms: C_9  and  N_10
REMARK    6  A    between atoms: N_10  and  C_11
REMARK    7  A    between atoms: C_11  and  C_12
REMARK                            x       y       z     vdW  Elec       q    Type
REMARK                         _______ _______ _______ _____ _____    ______ ____
ROOT
ATOM      1  C   UNL     1       2.314   7.365  19.247  0.00  0.00    +0.000 A 
ATOM      2  C   UNL     1       3.054   7.312  18.047  0.00  0.00    +0.000 A 
ATOM      3  C   UNL     1       3.579   6.102  17.583  0.00  0.00    +0.000 A 
ATOM      4  C   UNL     1       3.406   4.916  18.314  0.00  0.00    +0.000 A 
ATOM      5  C   UNL     1       2.697   4.966  19.524  0.00  0.00    +0.000 A 
ATOM      6  C   UNL     1       2.165   6.174  19.984  0.00  0.00    +0.000 A 
ENDROOT
BRANCH   1   9
ATOM      7  N   UNL     1       0.865   9.641  17.820  0.00  0.00    +0.000 NA
ATOM      8  C   UNL     1       1.155   9.681  19.076  0.00  0.00    +0.000 C 
ATOM      9  N   UNL     1       1.738   8.568  19.782  0.00  0.00    +0.000 N 
ATOM     10  H   UNL     1       1.012   8.845  17.197  0.00  0.00    +0.000 HD
ATOM     11  H   UNL     1       1.667   8.608  20.809  0.00  0.00    +0.000 HD
BRANCH   8  12
ATOM     12  C   UNL     1       0.711  10.882  19.829  0.00  0.00    +0.000 A 
ATOM     13  C   UNL     1      -0.397  10.933  20.672  0.00  0.00    +0.000 A 
ATOM     14  C   UNL     1      -0.563  12.170  21.305  0.00  0.00    +0.000 A 
ATOM     15  C   UNL     1       0.406  13.100  20.963  0.00  0.00    +0.000 A 
ATOM     16  S   UNL     1       1.472  12.385  19.873  0.00  0.00    +0.000 S 
ENDBRANCH   8  12
ENDBRANCH   1   9
BRANCH   4  17
ATOM     17  C   UNL     1       3.982   3.614  17.804  0.00  0.00    +0.000 C 
BRANCH  17  18
ATOM     18  C   UNL     1       4.393   3.732  16.329  0.00  0.00    +0.000 C 
BRANCH  18  19
ATOM     19  N   UNL     1       5.827   3.459  16.167  0.00  0.00    +0.000 NA
ATOM     20  H   UNL     1       5.947   2.707  15.449  0.00  0.00    +0.000 HD
BRANCH  19  21
ATOM     21  C   UNL     1       6.516   4.668  15.695  0.00  0.00    +0.000 C 
BRANCH  21  22
ATOM     22  C   UNL     1       7.095   5.431  16.857  0.00  0.00    +0.000 A 
ATOM     23  C   UNL     1       7.508   4.759  18.020  0.00  0.00    +0.000 A 
ATOM     24  C   UNL     1       8.050   5.475  19.092  0.00  0.00    +0.000 A 
ATOM     25  C   UNL     1       8.183   6.863  19.012  0.00  0.00    +0.000 A 
ATOM     26  C   UNL     1       7.774   7.540  17.858  0.00  0.00    +0.000 A 
ATOM     27 CL   UNL     1       7.943   9.283  17.758  0.00  0.00    +0.000 Cl
ATOM     28  C   UNL     1       7.233   6.826  16.783  0.00  0.00    +0.000 A 
ENDBRANCH  21  22
ENDBRANCH  19  21
ENDBRANCH  18  19
ENDBRANCH  17  18
ENDBRANCH   4  17
TORSDOF 7
ENDMDL
MODEL 2
REMARK VINA RESULT:      -7.2      1.681      2.203
REMARK  Name = 
REMARK  7 active torsions:
REMARK  status: ('A' for Active; 'I' for Inactive)
REMARK    1  A    between atoms: C_2  and  C_21
REMARK    2  A    between atoms: N_3  and  C_4
REMARK    3  A    between atoms: C_7  and  C_8
REMARK    4  A    between atoms: C_8  and  C_9
REMARK    5  A    between atoms: C_9  and  N_10
REMARK    6  A    between atoms: N_10  and  C_11
REMARK    7  A    between atoms: C_11  and  C_12
REMARK                            x       y       z     vdW  Elec       q    Type
REMARK                         _______ _______ _______ _____ _____    ______ ____
ROOT
ATOM      1  C   UNL     1       1.700   7.331  20.173  0.00  0.00    +0.000 A 
ATOM      2  C   UNL     1       2.661   7.304  19.140  0.00  0.00    +0.000 A 
ATOM      3  C   UNL     1       3.317   6.116  18.805  0.00  0.00    +0.000 A 
ATOM      4  C   UNL     1       3.058   4.928  19.507  0.00  0.00    +0.000 A 
ATOM      5  C   UNL     1       2.126   4.954  20.556  0.00  0.00    +0.000 A 
ATOM      6  C   UNL     1       1.463   6.140  20.886  0.00  0.00    +0.000 A 
ENDROOT
BRANCH   1   9
ATOM      7  N   UNL     1       2.054   9.107  22.629  0.00  0.00    +0.000 NA
ATOM      8  C   UNL     1       1.091   9.271  21.787  0.00  0.00    +0.000 C 
ATOM      9  N   UNL     1       0.980   8.511  20.568  0.00  0.00    +0.000 N 
ATOM     10  H   UNL     1       2.822   8.441  22.538  0.00  0.00    +0.000 HD
ATOM     11  H   UNL     1       0.352   8.907  19.853  0.00  0.00    +0.000 HD
BRANCH   8  12
ATOM     12  C   UNL     1       0.166  10.405  22.036  0.00  0.00    +0.000 A 
ATOM     13  C   UNL     1      -0.826  10.429  23.014  0.00  0.00    +0.000 A 
ATOM     14  C   UNL     1      -1.524  11.641  23.077  0.00  0.00    +0.000 A 
ATOM     15  C   UNL     1      -1.090  12.575  22.150  0.00  0.00    +0.000 A 
ATOM     16  S   UNL     1       0.161  11.896  21.251  0.00  0.00    +0.000 S 
ENDBRANCH   8  12
ENDBRANCH   1   9
BRANCH   4  17
ATOM     17  C   UNL     1       3.777   3.651  19.138  0.00  0.00    +0.000 C 
BRANCH  17  18
ATOM     18  C   UNL     1       3.757   3.423  17.620  0.00  0.00    +0.000 C 
BRANCH  18  19
ATOM     19  N   UNL     1       5.115   3.197  17.110  0.00  0.00    +0.000 NA
ATOM     20  H   UNL     1       5.118   2.322  16.535  0.00  0.00    +0.000 HD
BRANCH  19  21
ATOM     21  C   UNL     1       5.520   4.319  16.253  0.00  0.00    +0.000 C 
BRANCH  21  22
ATOM     22  C   UNL     1       6.373   5.291  17.026  0.00  0.00    +0.000 A 
ATOM     23  C   UNL     1       6.521   6.618  16.588  0.00  0.00    +0.000 A 
ATOM     24  C   UNL     1       7.311   7.514  17.315  0.00  0.00    +0.000 A 
ATOM     25  C   UNL     1       7.956   7.095  18.481  0.00  0.00    +0.000 A 
ATOM     26  C   UNL     1       7.813   5.776  18.925  0.00  0.00    +0.000 A 
ATOM     27 CL   UNL     1       8.622   5.251  20.389  0.00  0.00    +0.000 Cl
ATOM     28  C   UNL     1       7.023   4.876  18.200  0.00  0.00    +0.000 A 
ENDBRANCH  21  22
ENDBRANCH  19  21
ENDBRANCH  18  19
ENDBRANCH  17  18
ENDBRANCH   4  17
TORSDOF 7
ENDMDL
MODEL 3
REMARK VINA RESULT:      -6.9      1.750      2.587
REMARK  Name = 
REMARK  7 active torsions:
REMARK  status: ('A' for Active; 'I' for Inactive)
REMARK    1  A    between atoms: C_2  and  C_21
REMARK    2  A    between atoms: N_3  and  C_4
REMARK    3  A    between atoms: C_7  and  C_8
REMARK    4  A    between atoms: C_8  and  C_9
REMARK    5  A    between atoms: C_9  and  N_10
REMARK    6  A    between atoms: N_10  and  C_11
REMARK    7  A    between atoms: C_11  and  C_12
REMARK                            x       y       z     vdW  Elec       q    Type
REMARK                         _______ _______ _______ _____ _____    ______ ____
ROOT
ATOM      1  C   UNL     1       1.726   8.526  19.458  0.00  0.00    +0.000 A 
ATOM      2  C   UNL     1       2.304   7.865  18.353  0.00  0.00    +0.000 A 
ATOM      3  C   UNL     1       2.495   6.480  18.368  0.00  0.00    +0.000 A 
ATOM      4  C   UNL     1       2.142   5.716  19.493  0.00  0.00    +0.000 A 
ATOM      5  C   UNL     1       1.595   6.370  20.607  0.00  0.00    +0.000 A 
ATOM      6  C   UNL     1       1.396   7.754  20.590  0.00  0.00    +0.000 A 
ENDROOT
BRANCH   1   9
ATOM      7  N   UNL     1      -0.229  10.246  17.867  0.00  0.00    +0.000 NA
ATOM      8  C   UNL     1       0.641  10.749  18.675  0.00  0.00    +0.000 C 
ATOM      9  N   UNL     1       1.491   9.942  19.513  0.00  0.00    +0.000 N 
ATOM     10  H   UNL     1      -0.409   9.251  17.726  0.00  0.00    +0.000 HD
ATOM     11  H   UNL     1       1.935  10.435  20.302  0.00  0.00    +0.000 HD
BRANCH   8  12
ATOM     12  C   UNL     1       0.629  12.225  18.840  0.00  0.00    +0.000 A 
ATOM     13  C   UNL     1      -0.399  13.069  18.423  0.00  0.00    +0.000 A 
ATOM     14  C   UNL     1      -0.189  14.413  18.749  0.00  0.00    +0.000 A 
ATOM     15  C   UNL     1       1.005  14.638  19.417  0.00  0.00    +0.000 A 
ATOM     16  S   UNL     1       1.799  13.166  19.605  0.00  0.00    +0.000 S 
ENDBRANCH   8  12
ENDBRANCH   1   9
BRANCH   4  17
ATOM     17  C   UNL     1       2.358   4.220  19.498  0.00  0.00    +0.000 C 
BRANCH  17  18
ATOM     18  C   UNL     1       1.621   3.552  18.328  0.00  0.00    +0.000 C 
BRANCH  18  19
ATOM     19  N   UNL     1       2.505   3.424  17.164  0.00  0.00    +0.000 NA
ATOM     20  H   UNL     1       2.610   4.364  16.715  0.00  0.00    +0.000 HD
BRANCH  19  21
ATOM     21  C   UNL     1       3.832   2.961  17.591  0.00  0.00    +0.000 C 
BRANCH  21  22
ATOM     22  C   UNL     1       4.897   3.923  17.136  0.00  0.00    +0.000 A 
ATOM     23  C   UNL     1       5.043   4.235  15.773  0.00  0.00    +0.000 A 
ATOM     24  C   UNL     1       6.032   5.133  15.360  0.00  0.00    +0.000 A 
ATOM     25  C   UNL     1       6.880   5.725  16.299  0.00  0.00    +0.000 A 
ATOM     26  C   UNL     1       6.740   5.421  17.658  0.00  0.00    +0.000 A 
ATOM     27 CL   UNL     1       7.803   6.165  18.837  0.00  0.00    +0.000 Cl
ATOM     28  C   UNL     1       5.751   4.522  18.075  0.00  0.00    +0.000 A 
ENDBRANCH  21  22
ENDBRANCH  19  21
ENDBRANCH  18  19
ENDBRANCH  17  18
ENDBRANCH   4  17
TORSDOF 7
ENDMDL
MODEL 4
REMARK VINA RESULT:      -6.9      1.247      1.691
REMARK  Name = 
REMARK  7 active torsions:
REMARK  status: ('A' for Active; 'I' for Inactive)
REMARK    1  A    between atoms: C_2  and  C_21
REMARK    2  A    between atoms: N_3  and  C_4
REMARK    3  A    between atoms: C_7  and  C_8
REMARK    4  A    between atoms: C_8  and  C_9
REMARK    5  A    between atoms: C_9  and  N_10
REMARK    6  A    between atoms: N_10  and  C_11
REMARK    7  A    between atoms: C_11  and  C_12
REMARK                            x       y       z     vdW  Elec       q    Type
REMARK                         _______ _______ _______ _____ _____    ______ ____
ROOT
ATOM      1  C   UNL     1       1.980   8.193  19.228  0.00  0.00    +0.000 A 
ATOM      2  C   UNL     1       1.819   7.233  20.250  0.00  0.00    +0.000 A 
ATOM      3  C   UNL     1       2.236   5.912  20.061  0.00  0.00    +0.000 A 
ATOM      4  C   UNL     1       2.797   5.501  18.841  0.00  0.00    +0.000 A 
ATOM      5  C   UNL     1       2.932   6.443  17.810  0.00  0.00    +0.000 A 
ATOM      6  C   UNL     1       2.523   7.767  18.001  0.00  0.00    +0.000 A 
ENDROOT
BRANCH   1   9
ATOM      7  N   UNL     1      -0.128   9.767  17.681  0.00  0.00    +0.000 NA
ATOM      8  C   UNL     1       0.663  10.320  18.536  0.00  0.00    +0.000 C 
ATOM      9  N   UNL     1       1.584   9.569  19.352  0.00  0.00    +0.000 N 
ATOM     10  H   UNL     1      -0.191   8.768  17.484  0.00  0.00    +0.000 HD
ATOM     11  H   UNL     1       1.953  10.064  20.177  0.00  0.00    +0.000 HD
BRANCH   8  12
ATOM     12  C   UNL     1       0.480  11.774  18.779  0.00  0.00    +0.000 A 
ATOM     13  C   UNL     1       1.477  12.645  19.212  0.00  0.00    +0.000 A 
ATOM     14  C   UNL     1       1.056  13.976  19.309  0.00  0.00    +0.000 A 
ATOM     15  C   UNL     1      -0.272  14.162  18.958  0.00  0.00    +0.000 A 
ATOM     16  S   UNL     1      -0.924  12.671  18.528  0.00  0.00    +0.000 S 
ENDBRANCH   8  12
ENDBRANCH   1   9
BRANCH   4  17
ATOM     17  C   UNL     1       3.240   4.069  18.648  0.00  0.00    +0.000 C 
BRANCH  17  18
ATOM     18  C   UNL     1       3.504   3.767  17.166  0.00  0.00    +0.000 C 
BRANCH  18  19
ATOM     19  N   UNL     1       4.932   3.520  16.933  0.00  0.00    +0.000 NA
ATOM     20  H   UNL     1       5.032   2.676  16.321  0.00  0.00    +0.000 HD
BRANCH  19  21
ATOM     21  C   UNL     1       5.533   4.670  16.243  0.00  0.00    +0.000 C 
BRANCH  21  22
ATOM     22  C   UNL     1       6.463   5.410  17.168  0.00  0.00    +0.000 A 
ATOM     23  C   UNL     1       7.111   4.739  18.218  0.00  0.00    +0.000 A 
ATOM     24  C   UNL     1       7.978   5.434  19.068  0.00  0.00    +0.000 A 
ATOM     25  C   UNL     1       8.203   6.799  18.877  0.00  0.00    +0.000 A 
ATOM     26  C   UNL     1       7.562   7.475  17.833  0.00  0.00    +0.000 A 
ATOM     27 CL   UNL     1       7.846   9.188  17.592  0.00  0.00    +0.000 Cl
ATOM     28  C   UNL     1       6.695   6.782  16.980  0.00  0.00    +0.000 A 
ENDBRANCH  21  22
ENDBRANCH  19  21
ENDBRANCH  18  19
ENDBRANCH  17  18
ENDBRANCH   4  17
TORSDOF 7
ENDMDL
MODEL 5
REMARK VINA RESULT:      -6.9      2.653      3.985
REMARK  Name = 
REMARK  7 active torsions:
REMARK  status: ('A' for Active; 'I' for Inactive)
REMARK    1  A    between atoms: C_2  and  C_21
REMARK    2  A    between atoms: N_3  and  C_4
REMARK    3  A    between atoms: C_7  and  C_8
REMARK    4  A    between atoms: C_8  and  C_9
REMARK    5  A    between atoms: C_9  and  N_10
REMARK    6  A    between atoms: N_10  and  C_11
REMARK    7  A    between atoms: C_11  and  C_12
REMARK                            x       y       z     vdW  Elec       q    Type
REMARK                         _______ _______ _______ _____ _____    ______ ____
ROOT
ATOM      1  C   UNL     1       0.665   9.945  20.500  0.00  0.00    +0.000 A 
ATOM      2  C   UNL     1       1.123   8.752  21.099  0.00  0.00    +0.000 A 
ATOM      3  C   UNL     1       1.820   7.798  20.351  0.00  0.00    +0.000 A 
ATOM      4  C   UNL     1       2.056   7.990  18.980  0.00  0.00    +0.000 A 
ATOM      5  C   UNL     1       1.577   9.160  18.371  0.00  0.00    +0.000 A 
ATOM      6  C   UNL     1       0.888  10.118  19.120  0.00  0.00    +0.000 A 
ENDROOT
BRANCH   1   9
ATOM      7  N   UNL     1      -0.798   9.825  23.175  0.00  0.00    +0.000 NA
ATOM      8  C   UNL     1      -0.826  10.866  22.414  0.00  0.00    +0.000 C 
ATOM      9  N   UNL     1      -0.049  10.973  21.205  0.00  0.00    +0.000 N 
ATOM     10  H   UNL     1      -0.246   8.981  23.015  0.00  0.00    +0.000 HD
ATOM     11  H   UNL     1       0.069  11.928  20.836  0.00  0.00    +0.000 HD
BRANCH   8  12
ATOM     12  C   UNL     1      -1.576  12.045  22.916  0.00  0.00    +0.000 A 
ATOM     13  C   UNL     1      -2.867  12.010  23.438  0.00  0.00    +0.000 A 
ATOM     14  C   UNL     1      -3.323  13.252  23.893  0.00  0.00    +0.000 A 
ATOM     15  C   UNL     1      -2.399  14.272  23.729  0.00  0.00    +0.000 A 
ATOM     16  S   UNL     1      -1.014  13.631  23.019  0.00  0.00    +0.000 S 
ENDBRANCH   8  12
ENDBRANCH   1   9
BRANCH   4  17
ATOM     17  C   UNL     1       2.807   6.950  18.181  0.00  0.00    +0.000 C 
BRANCH  17  18
ATOM     18  C   UNL     1       2.375   5.530  18.578  0.00  0.00    +0.000 C 
BRANCH  18  19
ATOM     19  N   UNL     1       3.430   4.863  19.350  0.00  0.00    +0.000 NA
ATOM     20  H   UNL     1       3.031   4.549  20.265  0.00  0.00    +0.000 HD
BRANCH  19  21
ATOM     21  C   UNL     1       3.912   3.682  18.621  0.00  0.00    +0.000 C 
BRANCH  21  22
ATOM     22  C   UNL     1       5.074   4.047  17.736  0.00  0.00    +0.000 A 
ATOM     23  C   UNL     1       6.249   4.587  18.285  0.00  0.00    +0.000 A 
ATOM     24  C   UNL     1       7.326   4.918  17.456  0.00  0.00    +0.000 A 
ATOM     25  C   UNL     1       7.239   4.713  16.077  0.00  0.00    +0.000 A 
ATOM     26  C   UNL     1       6.073   4.174  15.522  0.00  0.00    +0.000 A 
ATOM     27 CL   UNL     1       5.964   3.916  13.792  0.00  0.00    +0.000 Cl
ATOM     28  C   UNL     1       4.994   3.842  16.349  0.00  0.00    +0.000 A 
ENDBRANCH  21  22
ENDBRANCH  19  21
ENDBRANCH  18  19
ENDBRANCH  17  18
ENDBRANCH   4  17
TORSDOF 7
ENDMDL
MODEL 6
REMARK VINA RESULT:      -6.9      4.308      7.015
REMARK  Name = 
REMARK  7 active torsions:
REMARK  status: ('A' for Active; 'I' for Inactive)
REMARK    1  A    between atoms: C_2  and  C_21
REMARK    2  A    between atoms: N_3  and  C_4
REMARK    3  A    between atoms: C_7  and  C_8
REMARK    4  A    between atoms: C_8  and  C_9
REMARK    5  A    between atoms: C_9  and  N_10
REMARK    6  A    between atoms: N_10  and  C_11
REMARK    7  A    between atoms: C_11  and  C_12
REMARK                            x       y       z     vdW  Elec       q    Type
REMARK                         _______ _______ _______ _____ _____    ______ ____
ROOT
ATOM      1  C   UNL     1       7.886   8.283  17.868  0.00  0.00    +0.000 A 
ATOM      2  C   UNL     1       6.740   7.937  17.120  0.00  0.00    +0.000 A 
ATOM      3  C   UNL     1       6.135   6.686  17.275  0.00  0.00    +0.000 A 
ATOM      4  C   UNL     1       6.669   5.733  18.158  0.00  0.00    +0.000 A 
ATOM      5  C   UNL     1       7.826   6.058  18.882  0.00  0.00    +0.000 A 
ATOM      6  C   UNL     1       8.426   7.312  18.734  0.00  0.00    +0.000 A 
ENDROOT
BRANCH   1   9
ATOM      7  N   UNL     1       9.236   9.955  20.034  0.00  0.00    +0.000 NA
ATOM      8  C   UNL     1       9.091  10.373  18.823  0.00  0.00    +0.000 C 
ATOM      9  N   UNL     1       8.556   9.550  17.768  0.00  0.00    +0.000 N 
ATOM     10  H   UNL     1       8.994   9.025  20.379  0.00  0.00    +0.000 HD
ATOM     11  H   UNL     1       8.743   9.878  16.809  0.00  0.00    +0.000 HD
BRANCH   8  12
ATOM     12  C   UNL     1       9.654  11.709  18.502  0.00  0.00    +0.000 A 
ATOM     13  C   UNL     1      10.995  12.066  18.639  0.00  0.00    +0.000 A 
ATOM     14  C   UNL     1      11.274  13.370  18.214  0.00  0.00    +0.000 A 
ATOM     15  C   UNL     1      10.159  14.049  17.746  0.00  0.00    +0.000 A 
ATOM     16  S   UNL     1       8.826  13.028  17.859  0.00  0.00    +0.000 S 
ENDBRANCH   8  12
ENDBRANCH   1   9
BRANCH   4  17
ATOM     17  C   UNL     1       6.008   4.382  18.314  0.00  0.00    +0.000 C 
BRANCH  17  18
ATOM     18  C   UNL     1       5.429   3.893  16.978  0.00  0.00    +0.000 C 
BRANCH  18  19
ATOM     19  N   UNL     1       4.312   2.968  17.206  0.00  0.00    +0.000 NA
ATOM     20  H   UNL     1       4.378   2.593  18.181  0.00  0.00    +0.000 HD
BRANCH  19  21
ATOM     21  C   UNL     1       3.036   3.683  17.067  0.00  0.00    +0.000 C 
BRANCH  21  22
ATOM     22  C   UNL     1       2.573   4.198  18.404  0.00  0.00    +0.000 A 
ATOM     23  C   UNL     1       2.526   5.579  18.661  0.00  0.00    +0.000 A 
ATOM     24  C   UNL     1       2.091   6.049  19.904  0.00  0.00    +0.000 A 
ATOM     25  C   UNL     1       1.699   5.148  20.897  0.00  0.00    +0.000 A 
ATOM     26  C   UNL     1       1.742   3.772  20.649  0.00  0.00    +0.000 A 
ATOM     27 CL   UNL     1       1.250   2.640  21.896  0.00  0.00    +0.000 Cl
ATOM     28  C   UNL     1       2.177   3.298  19.406  0.00  0.00    +0.000 A 
ENDBRANCH  21  22
ENDBRANCH  19  21
ENDBRANCH  18  19
ENDBRANCH  17  18
ENDBRANCH   4  17
TORSDOF 7
ENDMDL
MODEL 7
REMARK VINA RESULT:      -6.9      4.161      7.020
REMARK  Name = 
REMARK  7 active torsions:
REMARK  status: ('A' for Active; 'I' for Inactive)
REMARK    1  A    between atoms: C_2  and  C_21
REMARK    2  A    between atoms: N_3  and  C_4
REMARK    3  A    between atoms: C_7  and  C_8
REMARK    4  A    between atoms: C_8  and  C_9
REMARK    5  A    between atoms: C_9  and  N_10
REMARK    6  A    between atoms: N_10  and  C_11
REMARK    7  A    between atoms: C_11  and  C_12
REMARK                            x       y       z     vdW  Elec       q    Type
REMARK                         _______ _______ _______ _____ _____    ______ ____
ROOT
ATOM      1  C   UNL     1       7.736   7.908  17.819  0.00  0.00    +0.000 A 
ATOM      2  C   UNL     1       8.158   6.847  18.650  0.00  0.00    +0.000 A 
ATOM      3  C   UNL     1       7.417   5.665  18.731  0.00  0.00    +0.000 A 
ATOM      4  C   UNL     1       6.221   5.513  18.012  0.00  0.00    +0.000 A 
ATOM      5  C   UNL     1       5.778   6.575  17.208  0.00  0.00    +0.000 A 
ATOM      6  C   UNL     1       6.523   7.755  17.119  0.00  0.00    +0.000 A 
ENDROOT
BRANCH   1   9
ATOM      7  N   UNL     1       9.048   9.661  19.944  0.00  0.00    +0.000 NA
ATOM      8  C   UNL     1       8.965  10.015  18.707  0.00  0.00    +0.000 C 
ATOM      9  N   UNL     1       8.448   9.148  17.678  0.00  0.00    +0.000 N 
ATOM     10  H   UNL     1       8.765   8.759  20.329  0.00  0.00    +0.000 HD
ATOM     11  H   UNL     1       8.683   9.416  16.711  0.00  0.00    +0.000 HD
BRANCH   8  12
ATOM     12  C   UNL     1       9.581  11.314  18.336  0.00  0.00    +0.000 A 
ATOM     13  C   UNL     1       8.890  12.411  17.825  0.00  0.00    +0.000 A 
ATOM     14  C   UNL     1       9.698  13.533  17.611  0.00  0.00    +0.000 A 
ATOM     15  C   UNL     1      11.027  13.328  17.946  0.00  0.00    +0.000 A 
ATOM     16  S   UNL     1      11.199  11.751  18.510  0.00  0.00    +0.000 S 
ENDBRANCH   8  12
ENDBRANCH   1   9
BRANCH   4  17
ATOM     17  C   UNL     1       5.426   4.231  18.112  0.00  0.00    +0.000 C 
BRANCH  17  18
ATOM     18  C   UNL     1       4.566   4.212  19.384  0.00  0.00    +0.000 C 
BRANCH  18  19
ATOM     19  N   UNL     1       4.190   5.576  19.776  0.00  0.00    +0.000 NA
ATOM     20  H   UNL     1       4.496   6.239  19.026  0.00  0.00    +0.000 HD
BRANCH  19  21
ATOM     21  C   UNL     1       2.730   5.671  19.914  0.00  0.00    +0.000 C 
BRANCH  21  22
ATOM     22  C   UNL     1       2.249   7.032  19.484  0.00  0.00    +0.000 A 
ATOM     23  C   UNL     1       2.427   7.469  18.161  0.00  0.00    +0.000 A 
ATOM     24  C   UNL     1       1.973   8.733  17.770  0.00  0.00    +0.000 A 
ATOM     25  C   UNL     1       1.339   9.567  18.693  0.00  0.00    +0.000 A 
ATOM     26  C   UNL     1       1.157   9.140  20.013  0.00  0.00    +0.000 A 
ATOM     27 CL   UNL     1       0.360  10.187  21.172  0.00  0.00    +0.000 Cl
ATOM     28  C   UNL     1       1.610   7.876  20.407  0.00  0.00    +0.000 A 
ENDBRANCH  21  22
ENDBRANCH  19  21
ENDBRANCH  18  19
ENDBRANCH  17  18
ENDBRANCH   4  17
TORSDOF 7
ENDMDL
MODEL 8
REMARK VINA RESULT:      -6.9      1.358      1.884
REMARK  Name = 
REMARK  7 active torsions:
REMARK  status: ('A' for Active; 'I' for Inactive)
REMARK    1  A    between atoms: C_2  and  C_21
REMARK    2  A    between atoms: N_3  and  C_4
REMARK    3  A    between atoms: C_7  and  C_8
REMARK    4  A    between atoms: C_8  and  C_9
REMARK    5  A    between atoms: C_9  and  N_10
REMARK    6  A    between atoms: N_10  and  C_11
REMARK    7  A    between atoms: C_11  and  C_12
REMARK                            x       y       z     vdW  Elec       q    Type
REMARK                         _______ _______ _______ _____ _____    ______ ____
ROOT
ATOM      1  C   UNL     1       1.872   7.701  19.996  0.00  0.00    +0.000 A 
ATOM      2  C   UNL     1       1.797   6.434  20.613  0.00  0.00    +0.000 A 
ATOM      3  C   UNL     1       2.291   5.295  19.969  0.00  0.00    +0.000 A 
ATOM      4  C   UNL     1       2.847   5.379  18.683  0.00  0.00    +0.000 A 
ATOM      5  C   UNL     1       2.897   6.631  18.050  0.00  0.00    +0.000 A 
ATOM      6  C   UNL     1       2.411   7.772  18.696  0.00  0.00    +0.000 A 
ENDROOT
BRANCH   1   9
ATOM      7  N   UNL     1      -0.608   8.191  21.705  0.00  0.00    +0.000 NA
ATOM      8  C   UNL     1       0.162   9.146  21.309  0.00  0.00    +0.000 C 
ATOM      9  N   UNL     1       1.394   8.915  20.597  0.00  0.00    +0.000 N 
ATOM     10  H   UNL     1      -0.445   7.193  21.563  0.00  0.00    +0.000 HD
ATOM     11  H   UNL     1       2.053   9.708  20.579  0.00  0.00    +0.000 HD
BRANCH   8  12
ATOM     12  C   UNL     1      -0.183  10.518  21.759  0.00  0.00    +0.000 A 
ATOM     13  C   UNL     1       0.299  11.694  21.187  0.00  0.00    +0.000 A 
ATOM     14  C   UNL     1      -0.226  12.856  21.764  0.00  0.00    +0.000 A 
ATOM     15  C   UNL     1      -1.118  12.605  22.796  0.00  0.00    +0.000 A 
ATOM     16  S   UNL     1      -1.255  10.938  22.990  0.00  0.00    +0.000 S 
ENDBRANCH   8  12
ENDBRANCH   1   9
BRANCH   4  17
ATOM     17  C   UNL     1       3.373   4.140  17.996  0.00  0.00    +0.000 C 
BRANCH  17  18
ATOM     18  C   UNL     1       4.170   4.504  16.734  0.00  0.00    +0.000 C 
BRANCH  18  19
ATOM     19  N   UNL     1       5.287   3.572  16.540  0.00  0.00    +0.000 NA
ATOM     20  H   UNL     1       4.998   2.838  15.851  0.00  0.00    +0.000 HD
BRANCH  19  21
ATOM     21  C   UNL     1       6.447   4.290  15.994  0.00  0.00    +0.000 C 
BRANCH  21  22
ATOM     22  C   UNL     1       7.053   5.185  17.043  0.00  0.00    +0.000 A 
ATOM     23  C   UNL     1       7.537   4.649  18.249  0.00  0.00    +0.000 A 
ATOM     24  C   UNL     1       8.103   5.487  19.215  0.00  0.00    +0.000 A 
ATOM     25  C   UNL     1       8.190   6.862  18.986  0.00  0.00    +0.000 A 
ATOM     26  C   UNL     1       7.711   7.404  17.789  0.00  0.00    +0.000 A 
ATOM     27 CL   UNL     1       7.823   9.130  17.502  0.00  0.00    +0.000 Cl
ATOM     28  C   UNL     1       7.145   6.568  16.819  0.00  0.00    +0.000 A 
ENDBRANCH  21  22
ENDBRANCH  19  21
ENDBRANCH  18  19
ENDBRANCH  17  18
ENDBRANCH   4  17
TORSDOF 7
ENDMDL
MODEL 9
REMARK VINA RESULT:      -6.8      2.380      3.831
REMARK  Name = 
REMARK  7 active torsions:
REMARK  status: ('A' for Active; 'I' for Inactive)
REMARK    1  A    between atoms: C_2  and  C_21
REMARK    2  A    between atoms: N_3  and  C_4
REMARK    3  A    between atoms: C_7  and  C_8
REMARK    4  A    between atoms: C_8  and  C_9
REMARK    5  A    between atoms: C_9  and  N_10
REMARK    6  A    between atoms: N_10  and  C_11
REMARK    7  A    between atoms: C_11  and  C_12
REMARK                            x       y       z     vdW  Elec       q    Type
REMARK                         _______ _______ _______ _____ _____    ______ ____
ROOT
ATOM      1  C   UNL     1       0.577  10.020  20.422  0.00  0.00    +0.000 A 
ATOM      2  C   UNL     1       1.019   8.834  21.046  0.00  0.00    +0.000 A 
ATOM      3  C   UNL     1       1.741   7.875  20.329  0.00  0.00    +0.000 A 
ATOM      4  C   UNL     1       2.019   8.055  18.965  0.00  0.00    +0.000 A 
ATOM      5  C   UNL     1       1.557   9.218  18.330  0.00  0.00    +0.000 A 
ATOM      6  C   UNL     1       0.842  10.181  19.048  0.00  0.00    +0.000 A 
ENDROOT
BRANCH   1   9
ATOM      7  N   UNL     1      -0.233  10.249  23.356  0.00  0.00    +0.000 NA
ATOM      8  C   UNL     1      -0.627  11.088  22.459  0.00  0.00    +0.000 C 
ATOM      9  N   UNL     1      -0.161  11.053  21.095  0.00  0.00    +0.000 N 
ATOM     10  H   UNL     1       0.429   9.485  23.211  0.00  0.00    +0.000 HD
ATOM     11  H   UNL     1      -0.315  11.914  20.551  0.00  0.00    +0.000 HD
BRANCH   8  12
ATOM     12  C   UNL     1      -1.471  12.218  22.921  0.00  0.00    +0.000 A 
ATOM     13  C   UNL     1      -2.777  12.100  23.394  0.00  0.00    +0.000 A 
ATOM     14  C   UNL     1      -3.331  13.313  23.820  0.00  0.00    +0.000 A 
ATOM     15  C   UNL     1      -2.471  14.391  23.681  0.00  0.00    +0.000 A 
ATOM     16  S   UNL     1      -1.021  13.838  23.030  0.00  0.00    +0.000 S 
ENDBRANCH   8  12
ENDBRANCH   1   9
BRANCH   4  17
ATOM     17  C   UNL     1       2.797   7.009  18.199  0.00  0.00    +0.000 C 
BRANCH  17  18
ATOM     18  C   UNL     1       2.515   5.601  18.745  0.00  0.00    +0.000 C 
BRANCH  18  19
ATOM     19  N   UNL     1       2.456   4.623  17.652  0.00  0.00    +0.000 NA
ATOM     20  H   UNL     1       2.706   5.104  16.756  0.00  0.00    +0.000 HD
BRANCH  19  21
ATOM     21  C   UNL     1       3.428   3.548  17.891  0.00  0.00    +0.000 C 
BRANCH  21  22
ATOM     22  C   UNL     1       4.807   3.982  17.471  0.00  0.00    +0.000 A 
ATOM     23  C   UNL     1       5.222   3.855  16.135  0.00  0.00    +0.000 A 
ATOM     24  C   UNL     1       6.503   4.265  15.753  0.00  0.00    +0.000 A 
ATOM     25  C   UNL     1       7.378   4.805  16.699  0.00  0.00    +0.000 A 
ATOM     26  C   UNL     1       6.973   4.936  18.032  0.00  0.00    +0.000 A 
ATOM     27 CL   UNL     1       8.071   5.614  19.219  0.00  0.00    +0.000 Cl
ATOM     28  C   UNL     1       5.691   4.526  18.417  0.00  0.00    +0.000 A 
ENDBRANCH  21  22
ENDBRANCH  19  21
ENDBRANCH  18  19
ENDBRANCH  17  18
ENDBRANCH   4  17
TORSDOF 7
ENDMDL
