MODEL 1
REMARK VINA RESULT:      -7.6      0.000      0.000
REMARK  Name = 
REMARK  5 active torsions:
REMARK  status: ('A' for Active; 'I' for Inactive)
REMARK    1  A    between atoms: C_2  and  C_3
REMARK    2  A    between atoms: C_4  and  N_5
REMARK    3  A    between atoms: C_6  and  C_7
REMARK    4  A    between atoms: N_9  and  C_10
REMARK    5  A    between atoms: C_10  and  C_11
REMARK                            x       y       z     vdW  Elec       q    Type
REMARK                         _______ _______ _______ _____ _____    ______ ____
ROOT
ATOM      1  C   UNL     1       3.357   3.804  20.167  0.00  0.00    +0.000 A 
ATOM      2  C   UNL     1       4.566   3.411  19.600  0.00  0.00    +0.000 A 
ATOM      3  C   UNL     1       5.048   4.477  18.733  0.00  0.00    +0.000 A 
ATOM      4  C   UNL     1       4.072   5.455  18.835  0.00  0.00    +0.000 A 
ATOM      5  N   UNL     1       3.101   5.037  19.690  0.00  0.00    +0.000 N 
ATOM      6  C   UNL     1       2.039   6.008  19.883  0.00  0.00    +0.000 C 
ATOM      7  C   UNL     1       2.280   6.976  18.715  0.00  0.00    +0.000 C 
ATOM      8  C   UNL     1       3.772   6.815  18.332  0.00  0.00    +0.000 C 
ENDROOT
BRANCH   3   9
ATOM      9  C   UNL     1       6.252   4.642  17.897  0.00  0.00    +0.000 C 
ATOM     10  O   UNL     1       7.364   4.300  18.262  0.00  0.00    +0.000 OA
ATOM     11  N   UNL     1       6.001   5.182  16.654  0.00  0.00    +0.000 N 
ATOM     12  H   UNL     1       5.098   5.587  16.509  0.00  0.00    +0.000 HD
BRANCH  11  13
ATOM     13  C   UNL     1       7.048   5.416  15.669  0.00  0.00    +0.000 C 
BRANCH  13  14
ATOM     14  C   UNL     1       6.746   4.769  14.330  0.00  0.00    +0.000 A 
ATOM     15  C   UNL     1       5.624   3.953  14.108  0.00  0.00    +0.000 A 
ATOM     16  C   UNL     1       5.398   3.355  12.860  0.00  0.00    +0.000 A 
ATOM     17  C   UNL     1       6.291   3.564  11.814  0.00  0.00    +0.000 A 
ATOM     18  C   UNL     1       7.400   4.384  12.011  0.00  0.00    +0.000 A 
ATOM     19  C   UNL     1       7.619   4.990  13.253  0.00  0.00    +0.000 A 
ENDBRANCH  13  14
ENDBRANCH  11  13
ENDBRANCH   3   9
BRANCH   2  20
ATOM     20  N   UNL     1       5.114   2.208  19.876  0.00  0.00    +0.000 N 
ATOM     21  H   UNL     1       5.493   1.621  19.130  0.00  0.00    +0.000 HD
ATOM     22  H   UNL     1       5.182   1.756  20.776  0.00  0.00    +0.000 HD
ENDBRANCH   2  20
BRANCH   1  24
ATOM     23  N   UNL     1       1.839   2.527  21.822  0.00  0.00    +0.000 NA
ATOM     24  C   UNL     1       2.527   3.103  21.078  0.00  0.00    +0.000 C 
ENDBRANCH   1  24
TORSDOF 5
ENDMDL
MODEL 2
REMARK VINA RESULT:      -7.6      0.084      1.052
REMARK  Name = 
REMARK  5 active torsions:
REMARK  status: ('A' for Active; 'I' for Inactive)
REMARK    1  A    between atoms: C_2  and  C_3
REMARK    2  A    between atoms: C_4  and  N_5
REMARK    3  A    between atoms: C_6  and  C_7
REMARK    4  A    between atoms: N_9  and  C_10
REMARK    5  A    between atoms: C_10  and  C_11
REMARK                            x       y       z     vdW  Elec       q    Type
REMARK                         _______ _______ _______ _____ _____    ______ ____
ROOT
ATOM      1  C   UNL     1       3.340   3.839  20.156  0.00  0.00    +0.000 A 
ATOM      2  C   UNL     1       4.545   3.430  19.593  0.00  0.00    +0.000 A 
ATOM      3  C   UNL     1       5.050   4.494  18.736  0.00  0.00    +0.000 A 
ATOM      4  C   UNL     1       4.090   5.488  18.840  0.00  0.00    +0.000 A 
ATOM      5  N   UNL     1       3.107   5.080  19.686  0.00  0.00    +0.000 N 
ATOM      6  C   UNL     1       2.061   6.067  19.881  0.00  0.00    +0.000 C 
ATOM      7  C   UNL     1       2.324   7.039  18.722  0.00  0.00    +0.000 C 
ATOM      8  C   UNL     1       3.816   6.857  18.345  0.00  0.00    +0.000 C 
ENDROOT
BRANCH   3   9
ATOM      9  C   UNL     1       6.261   4.645  17.908  0.00  0.00    +0.000 C 
ATOM     10  O   UNL     1       7.368   4.299  18.284  0.00  0.00    +0.000 OA
ATOM     11  N   UNL     1       6.023   5.178  16.659  0.00  0.00    +0.000 N 
ATOM     12  H   UNL     1       5.124   5.587  16.504  0.00  0.00    +0.000 HD
BRANCH  11  13
ATOM     13  C   UNL     1       7.079   5.397  15.680  0.00  0.00    +0.000 C 
BRANCH  13  14
ATOM     14  C   UNL     1       6.773   4.760  14.338  0.00  0.00    +0.000 A 
ATOM     15  C   UNL     1       7.607   4.897  13.216  0.00  0.00    +0.000 A 
ATOM     16  C   UNL     1       7.271   4.311  11.987  0.00  0.00    +0.000 A 
ATOM     17  C   UNL     1       6.096   3.577  11.862  0.00  0.00    +0.000 A 
ATOM     18  C   UNL     1       5.265   3.416  12.968  0.00  0.00    +0.000 A 
ATOM     19  C   UNL     1       5.606   3.992  14.197  0.00  0.00    +0.000 A 
ENDBRANCH  13  14
ENDBRANCH  11  13
ENDBRANCH   3   9
BRANCH   2  20
ATOM     20  N   UNL     1       5.071   2.216  19.863  0.00  0.00    +0.000 N 
ATOM     21  H   UNL     1       4.665   1.368  19.463  0.00  0.00    +0.000 HD
ATOM     22  H   UNL     1       5.849   2.005  20.472  0.00  0.00    +0.000 HD
ENDBRANCH   2  20
BRANCH   1  24
ATOM     23  N   UNL     1       1.803   2.571  21.799  0.00  0.00    +0.000 NA
ATOM     24  C   UNL     1       2.493   3.145  21.058  0.00  0.00    +0.000 C 
ENDBRANCH   1  24
TORSDOF 5
ENDMDL
MODEL 3
REMARK VINA RESULT:      -7.1      5.031      7.859
REMARK  Name = 
REMARK  5 active torsions:
REMARK  status: ('A' for Active; 'I' for Inactive)
REMARK    1  A    between atoms: C_2  and  C_3
REMARK    2  A    between atoms: C_4  and  N_5
REMARK    3  A    between atoms: C_6  and  C_7
REMARK    4  A    between atoms: N_9  and  C_10
REMARK    5  A    between atoms: C_10  and  C_11
REMARK                            x       y       z     vdW  Elec       q    Type
REMARK                         _______ _______ _______ _____ _____    ______ ____
ROOT
ATOM      1  C   UNL     1       0.168  11.908  20.234  0.00  0.00    +0.000 A 
ATOM      2  C   UNL     1       0.868  11.384  19.151  0.00  0.00    +0.000 A 
ATOM      3  C   UNL     1       1.072   9.958  19.368  0.00  0.00    +0.000 A 
ATOM      4  C   UNL     1       0.476   9.720  20.596  0.00  0.00    +0.000 A 
ATOM      5  N   UNL     1      -0.054  10.878  21.072  0.00  0.00    +0.000 N 
ATOM      6  C   UNL     1      -0.727  10.726  22.350  0.00  0.00    +0.000 C 
ATOM      7  C   UNL     1      -0.215   9.355  22.816  0.00  0.00    +0.000 C 
ATOM      8  C   UNL     1       0.210   8.602  21.530  0.00  0.00    +0.000 C 
ENDROOT
BRANCH   3   9
ATOM      9  C   UNL     1       1.718   8.892  18.579  0.00  0.00    +0.000 C 
ATOM     10  O   UNL     1       1.865   8.959  17.371  0.00  0.00    +0.000 OA
ATOM     11  N   UNL     1       2.169   7.831  19.335  0.00  0.00    +0.000 N 
ATOM     12  H   UNL     1       1.854   7.783  20.283  0.00  0.00    +0.000 HD
BRANCH  11  13
ATOM     13  C   UNL     1       2.847   6.680  18.754  0.00  0.00    +0.000 C 
BRANCH  13  14
ATOM     14  C   UNL     1       2.153   5.370  19.077  0.00  0.00    +0.000 A 
ATOM     15  C   UNL     1       1.768   5.006  20.378  0.00  0.00    +0.000 A 
ATOM     16  C   UNL     1       1.151   3.772  20.632  0.00  0.00    +0.000 A 
ATOM     17  C   UNL     1       0.910   2.884  19.589  0.00  0.00    +0.000 A 
ATOM     18  C   UNL     1       1.271   3.235  18.290  0.00  0.00    +0.000 A 
ATOM     19  C   UNL     1       1.876   4.471  18.034  0.00  0.00    +0.000 A 
ENDBRANCH  13  14
ENDBRANCH  11  13
ENDBRANCH   3   9
BRANCH   2  20
ATOM     20  N   UNL     1       1.251  12.164  18.117  0.00  0.00    +0.000 N 
ATOM     21  H   UNL     1       0.590  12.802  17.669  0.00  0.00    +0.000 HD
ATOM     22  H   UNL     1       2.155  12.190  17.670  0.00  0.00    +0.000 HD
ENDBRANCH   2  20
BRANCH   1  24
ATOM     23  N   UNL     1      -0.620  14.332  20.652  0.00  0.00    +0.000 NA
ATOM     24  C   UNL     1      -0.264  13.240  20.460  0.00  0.00    +0.000 C 
ENDBRANCH   1  24
TORSDOF 5
ENDMDL
MODEL 4
REMARK VINA RESULT:      -7.1      3.777      6.360
REMARK  Name = 
REMARK  5 active torsions:
REMARK  status: ('A' for Active; 'I' for Inactive)
REMARK    1  A    between atoms: C_2  and  C_3
REMARK    2  A    between atoms: C_4  and  N_5
REMARK    3  A    between atoms: C_6  and  C_7
REMARK    4  A    between atoms: N_9  and  C_10
REMARK    5  A    between atoms: C_10  and  C_11
REMARK                            x       y       z     vdW  Elec       q    Type
REMARK                         _______ _______ _______ _____ _____    ______ ____
ROOT
ATOM      1  C   UNL     1       4.290   2.955  19.808  0.00  0.00    +0.000 A 
ATOM      2  C   UNL     1       4.792   4.151  19.304  0.00  0.00    +0.000 A 
ATOM      3  C   UNL     1       3.727   4.848  18.596  0.00  0.00    +0.000 A 
ATOM      4  C   UNL     1       2.637   4.002  18.719  0.00  0.00    +0.000 A 
ATOM      5  N   UNL     1       2.994   2.908  19.443  0.00  0.00    +0.000 N 
ATOM      6  C   UNL     1       1.907   1.968  19.649  0.00  0.00    +0.000 C 
ATOM      7  C   UNL     1       0.878   2.442  18.613  0.00  0.00    +0.000 C 
ATOM      8  C   UNL     1       1.207   3.931  18.339  0.00  0.00    +0.000 C 
ENDROOT
BRANCH   3   9
ATOM      9  C   UNL     1       3.654   6.138  17.883  0.00  0.00    +0.000 C 
ATOM     10  O   UNL     1       4.293   6.372  16.872  0.00  0.00    +0.000 OA
ATOM     11  N   UNL     1       2.772   7.038  18.442  0.00  0.00    +0.000 N 
ATOM     12  H   UNL     1       2.427   6.826  19.356  0.00  0.00    +0.000 HD
BRANCH  11  13
ATOM     13  C   UNL     1       2.540   8.364  17.887  0.00  0.00    +0.000 C 
BRANCH  13  14
ATOM     14  C   UNL     1       1.395   9.090  18.568  0.00  0.00    +0.000 A 
ATOM     15  C   UNL     1       0.426   9.824  17.865  0.00  0.00    +0.000 A 
ATOM     16  C   UNL     1      -0.601  10.502  18.540  0.00  0.00    +0.000 A 
ATOM     17  C   UNL     1      -0.673  10.455  19.928  0.00  0.00    +0.000 A 
ATOM     18  C   UNL     1       0.270   9.718  20.641  0.00  0.00    +0.000 A 
ATOM     19  C   UNL     1       1.287   9.033  19.967  0.00  0.00    +0.000 A 
ENDBRANCH  13  14
ENDBRANCH  11  13
ENDBRANCH   3   9
BRANCH   2  20
ATOM     20  N   UNL     1       6.080   4.509  19.496  0.00  0.00    +0.000 N 
ATOM     21  H   UNL     1       6.664   4.019  20.176  0.00  0.00    +0.000 HD
ATOM     22  H   UNL     1       6.580   5.266  19.052  0.00  0.00    +0.000 HD
ENDBRANCH   2  20
BRANCH   1  24
ATOM     23  N   UNL     1       5.500   1.142  21.192  0.00  0.00    +0.000 NA
ATOM     24  C   UNL     1       4.951   1.957  20.569  0.00  0.00    +0.000 C 
ENDBRANCH   1  24
TORSDOF 5
ENDMDL
MODEL 5
REMARK VINA RESULT:      -7.1      0.999      1.222
REMARK  Name = 
REMARK  5 active torsions:
REMARK  status: ('A' for Active; 'I' for Inactive)
REMARK    1  A    between atoms: C_2  and  C_3
REMARK    2  A    between atoms: C_4  and  N_5
REMARK    3  A    between atoms: C_6  and  C_7
REMARK    4  A    between atoms: N_9  and  C_10
REMARK    5  A    between atoms: C_10  and  C_11
REMARK                            x       y       z     vdW  Elec       q    Type
REMARK                         _______ _______ _______ _____ _____    ______ ____
ROOT
ATOM      1  C   UNL     1       3.472   4.394  19.542  0.00  0.00    +0.000 A 
ATOM      2  C   UNL     1       4.544   3.790  18.892  0.00  0.00    +0.000 A 
ATOM      3  C   UNL     1       5.075   4.715  17.899  0.00  0.00    +0.000 A 
ATOM      4  C   UNL     1       4.263   5.832  18.019  0.00  0.00    +0.000 A 
ATOM      5  N   UNL     1       3.342   5.618  18.995  0.00  0.00    +0.000 N 
ATOM      6  C   UNL     1       2.456   6.748  19.215  0.00  0.00    +0.000 C 
ATOM      7  C   UNL     1       2.701   7.591  17.955  0.00  0.00    +0.000 C 
ATOM      8  C   UNL     1       4.106   7.186  17.441  0.00  0.00    +0.000 C 
ENDROOT
BRANCH   3   9
ATOM      9  C   UNL     1       6.191   4.644  16.938  0.00  0.00    +0.000 C 
ATOM     10  O   UNL     1       7.343   4.431  17.276  0.00  0.00    +0.000 OA
ATOM     11  N   UNL     1       5.810   4.806  15.624  0.00  0.00    +0.000 N 
ATOM     12  H   UNL     1       4.884   5.145  15.459  0.00  0.00    +0.000 HD
BRANCH  11  13
ATOM     13  C   UNL     1       6.755   4.758  14.516  0.00  0.00    +0.000 C 
BRANCH  13  14
ATOM     14  C   UNL     1       6.239   3.946  13.343  0.00  0.00    +0.000 A 
ATOM     15  C   UNL     1       4.879   3.875  12.997  0.00  0.00    +0.000 A 
ATOM     16  C   UNL     1       4.445   3.091  11.919  0.00  0.00    +0.000 A 
ATOM     17  C   UNL     1       5.365   2.365  11.170  0.00  0.00    +0.000 A 
ATOM     18  C   UNL     1       6.720   2.436  11.487  0.00  0.00    +0.000 A 
ATOM     19  C   UNL     1       7.154   3.228  12.556  0.00  0.00    +0.000 A 
ENDBRANCH  13  14
ENDBRANCH  11  13
ENDBRANCH   3   9
BRANCH   2  20
ATOM     20  N   UNL     1       4.943   2.539  19.208  0.00  0.00    +0.000 N 
ATOM     21  H   UNL     1       4.377   1.728  18.951  0.00  0.00    +0.000 HD
ATOM     22  H   UNL     1       5.768   2.270  19.725  0.00  0.00    +0.000 HD
ENDBRANCH   2  20
BRANCH   1  24
ATOM     23  N   UNL     1       1.989   3.460  21.439  0.00  0.00    +0.000 NA
ATOM     24  C   UNL     1       2.655   3.885  20.584  0.00  0.00    +0.000 C 
ENDBRANCH   1  24
TORSDOF 5
ENDMDL
MODEL 6
REMARK VINA RESULT:      -7.0      3.778      6.358
REMARK  Name = 
REMARK  5 active torsions:
REMARK  status: ('A' for Active; 'I' for Inactive)
REMARK    1  A    between atoms: C_2  and  C_3
REMARK    2  A    between atoms: C_4  and  N_5
REMARK    3  A    between atoms: C_6  and  C_7
REMARK    4  A    between atoms: N_9  and  C_10
REMARK    5  A    between atoms: C_10  and  C_11
REMARK                            x       y       z     vdW  Elec       q    Type
REMARK                         _______ _______ _______ _____ _____    ______ ____
ROOT
ATOM      1  C   UNL     1       4.291   2.963  19.788  0.00  0.00    +0.000 A 
ATOM      2  C   UNL     1       4.789   4.160  19.281  0.00  0.00    +0.000 A 
ATOM      3  C   UNL     1       3.718   4.859  18.586  0.00  0.00    +0.000 A 
ATOM      4  C   UNL     1       2.628   4.014  18.718  0.00  0.00    +0.000 A 
ATOM      5  N   UNL     1       2.991   2.918  19.436  0.00  0.00    +0.000 N 
ATOM      6  C   UNL     1       1.905   1.978  19.651  0.00  0.00    +0.000 C 
ATOM      7  C   UNL     1       0.866   2.456  18.626  0.00  0.00    +0.000 C 
ATOM      8  C   UNL     1       1.194   3.945  18.352  0.00  0.00    +0.000 C 
ENDROOT
BRANCH   3   9
ATOM      9  C   UNL     1       3.639   6.151  17.876  0.00  0.00    +0.000 C 
ATOM     10  O   UNL     1       4.298   6.401  16.882  0.00  0.00    +0.000 OA
ATOM     11  N   UNL     1       2.727   7.032  18.417  0.00  0.00    +0.000 N 
ATOM     12  H   UNL     1       2.363   6.810  19.321  0.00  0.00    +0.000 HD
BRANCH  11  13
ATOM     13  C   UNL     1       2.485   8.356  17.861  0.00  0.00    +0.000 C 
BRANCH  13  14
ATOM     14  C   UNL     1       1.392   9.108  18.598  0.00  0.00    +0.000 A 
ATOM     15  C   UNL     1       1.253   9.083  19.996  0.00  0.00    +0.000 A 
ATOM     16  C   UNL     1       0.212   9.773  20.633  0.00  0.00    +0.000 A 
ATOM     17  C   UNL     1      -0.705  10.500  19.882  0.00  0.00    +0.000 A 
ATOM     18  C   UNL     1      -0.574  10.550  18.496  0.00  0.00    +0.000 A 
ATOM     19  C   UNL     1       0.472   9.870  17.861  0.00  0.00    +0.000 A 
ENDBRANCH  13  14
ENDBRANCH  11  13
ENDBRANCH   3   9
BRANCH   2  20
ATOM     20  N   UNL     1       6.079   4.516  19.462  0.00  0.00    +0.000 N 
ATOM     21  H   UNL     1       6.321   5.368  19.972  0.00  0.00    +0.000 HD
ATOM     22  H   UNL     1       6.901   4.044  19.114  0.00  0.00    +0.000 HD
ENDBRANCH   2  20
BRANCH   1  24
ATOM     23  N   UNL     1       5.500   1.138  21.158  0.00  0.00    +0.000 NA
ATOM     24  C   UNL     1       4.958   1.963  20.540  0.00  0.00    +0.000 C 
ENDBRANCH   1  24
TORSDOF 5
ENDMDL
MODEL 7
REMARK VINA RESULT:      -7.0      1.010      1.517
REMARK  Name = 
REMARK  5 active torsions:
REMARK  status: ('A' for Active; 'I' for Inactive)
REMARK    1  A    between atoms: C_2  and  C_3
REMARK    2  A    between atoms: C_4  and  N_5
REMARK    3  A    between atoms: C_6  and  C_7
REMARK    4  A    between atoms: N_9  and  C_10
REMARK    5  A    between atoms: C_10  and  C_11
REMARK                            x       y       z     vdW  Elec       q    Type
REMARK                         _______ _______ _______ _____ _____    ______ ____
ROOT
ATOM      1  C   UNL     1       3.603   4.467  19.556  0.00  0.00    +0.000 A 
ATOM      2  C   UNL     1       4.680   3.853  18.923  0.00  0.00    +0.000 A 
ATOM      3  C   UNL     1       5.208   4.754  17.910  0.00  0.00    +0.000 A 
ATOM      4  C   UNL     1       4.392   5.870  17.999  0.00  0.00    +0.000 A 
ATOM      5  N   UNL     1       3.469   5.677  18.979  0.00  0.00    +0.000 N 
ATOM      6  C   UNL     1       2.577   6.807  19.168  0.00  0.00    +0.000 C 
ATOM      7  C   UNL     1       2.822   7.621  17.888  0.00  0.00    +0.000 C 
ATOM      8  C   UNL     1       4.229   7.210  17.387  0.00  0.00    +0.000 C 
ENDROOT
BRANCH   3   9
ATOM      9  C   UNL     1       6.328   4.665  16.953  0.00  0.00    +0.000 C 
ATOM     10  O   UNL     1       7.475   4.436  17.297  0.00  0.00    +0.000 OA
ATOM     11  N   UNL     1       5.954   4.829  15.637  0.00  0.00    +0.000 N 
ATOM     12  H   UNL     1       5.034   5.180  15.467  0.00  0.00    +0.000 HD
BRANCH  11  13
ATOM     13  C   UNL     1       6.903   4.764  14.534  0.00  0.00    +0.000 C 
BRANCH  13  14
ATOM     14  C   UNL     1       6.380   3.958  13.360  0.00  0.00    +0.000 A 
ATOM     15  C   UNL     1       7.216   3.232  12.494  0.00  0.00    +0.000 A 
ATOM     16  C   UNL     1       6.690   2.521  11.406  0.00  0.00    +0.000 A 
ATOM     17  C   UNL     1       5.320   2.525  11.167  0.00  0.00    +0.000 A 
ATOM     18  C   UNL     1       4.474   3.225  12.024  0.00  0.00    +0.000 A 
ATOM     19  C   UNL     1       4.997   3.925  13.116  0.00  0.00    +0.000 A 
ENDBRANCH  13  14
ENDBRANCH  11  13
ENDBRANCH   3   9
BRANCH   2  20
ATOM     20  N   UNL     1       5.083   2.612  19.271  0.00  0.00    +0.000 N 
ATOM     21  H   UNL     1       5.957   2.468  19.781  0.00  0.00    +0.000 HD
ATOM     22  H   UNL     1       4.628   1.736  19.059  0.00  0.00    +0.000 HD
ENDBRANCH   2  20
BRANCH   1  24
ATOM     23  N   UNL     1       2.119   3.574  21.471  0.00  0.00    +0.000 NA
ATOM     24  C   UNL     1       2.786   3.980  20.607  0.00  0.00    +0.000 C 
ENDBRANCH   1  24
TORSDOF 5
ENDMDL
MODEL 8
REMARK VINA RESULT:      -7.0      5.109      8.013
REMARK  Name = 
REMARK  5 active torsions:
REMARK  status: ('A' for Active; 'I' for Inactive)
REMARK    1  A    between atoms: C_2  and  C_3
REMARK    2  A    between atoms: C_4  and  N_5
REMARK    3  A    between atoms: C_6  and  C_7
REMARK    4  A    between atoms: N_9  and  C_10
REMARK    5  A    between atoms: C_10  and  C_11
REMARK                            x       y       z     vdW  Elec       q    Type
REMARK                         _______ _______ _______ _____ _____    ______ ____
ROOT
ATOM      1  C   UNL     1      -0.569  11.838  20.301  0.00  0.00    +0.000 A 
ATOM      2  C   UNL     1       0.129  11.402  19.179  0.00  0.00    +0.000 A 
ATOM      3  C   UNL     1       0.735  10.110  19.473  0.00  0.00    +0.000 A 
ATOM      4  C   UNL     1       0.357   9.856  20.782  0.00  0.00    +0.000 A 
ATOM      5  N   UNL     1      -0.414  10.880  21.235  0.00  0.00    +0.000 N 
ATOM      6  C   UNL     1      -0.883  10.694  22.597  0.00  0.00    +0.000 C 
ATOM      7  C   UNL     1       0.027   9.561  23.093  0.00  0.00    +0.000 C 
ATOM      8  C   UNL     1       0.504   8.813  21.823  0.00  0.00    +0.000 C 
ENDROOT
BRANCH   3   9
ATOM      9  C   UNL     1       1.560   9.171  18.689  0.00  0.00    +0.000 C 
ATOM     10  O   UNL     1       1.943   9.413  17.557  0.00  0.00    +0.000 OA
ATOM     11  N   UNL     1       1.887   8.015  19.364  0.00  0.00    +0.000 N 
ATOM     12  H   UNL     1       1.391   7.830  20.213  0.00  0.00    +0.000 HD
BRANCH  11  13
ATOM     13  C   UNL     1       2.705   6.963  18.777  0.00  0.00    +0.000 C 
BRANCH  13  14
ATOM     14  C   UNL     1       2.140   5.577  19.025  0.00  0.00    +0.000 A 
ATOM     15  C   UNL     1       1.930   4.640  17.999  0.00  0.00    +0.000 A 
ATOM     16  C   UNL     1       1.382   3.378  18.272  0.00  0.00    +0.000 A 
ATOM     17  C   UNL     1       1.035   3.034  19.574  0.00  0.00    +0.000 A 
ATOM     18  C   UNL     1       1.252   3.944  20.606  0.00  0.00    +0.000 A 
ATOM     19  C   UNL     1       1.809   5.199  20.336  0.00  0.00    +0.000 A 
ENDBRANCH  13  14
ENDBRANCH  11  13
ENDBRANCH   3   9
BRANCH   2  20
ATOM     20  N   UNL     1       0.176  12.140  18.049  0.00  0.00    +0.000 N 
ATOM     21  H   UNL     1      -0.530  12.027  17.319  0.00  0.00    +0.000 HD
ATOM     22  H   UNL     1       0.876  12.819  17.788  0.00  0.00    +0.000 HD
ENDBRANCH   2  20
BRANCH   1  24
ATOM     23  N   UNL     1      -1.943  14.000  20.626  0.00  0.00    +0.000 NA
ATOM     24  C   UNL     1      -1.321  13.027  20.481  0.00  0.00    +0.000 C 
ENDBRANCH   1  24
TORSDOF 5
ENDMDL
MODEL 9
REMARK VINA RESULT:      -6.9      3.392      7.766
REMARK  Name = 
REMARK  5 active torsions:
REMARK  status: ('A' for Active; 'I' for Inactive)
REMARK    1  A    between atoms: C_2  and  C_3
REMARK    2  A    between atoms: C_4  and  N_5
REMARK    3  A    between atoms: C_6  and  C_7
REMARK    4  A    between atoms: N_9  and  C_10
REMARK    5  A    between atoms: C_10  and  C_11
REMARK                            x       y       z     vdW  Elec       q    Type
REMARK                         _______ _______ _______ _____ _____    ______ ____
ROOT
ATOM      1  C   UNL     1       4.067   4.635  19.029  0.00  0.00    +0.000 A 
ATOM      2  C   UNL     1       3.171   5.646  19.366  0.00  0.00    +0.000 A 
ATOM      3  C   UNL     1       3.245   6.695  18.360  0.00  0.00    +0.000 A 
ATOM      4  C   UNL     1       4.205   6.237  17.472  0.00  0.00    +0.000 A 
ATOM      5  N   UNL     1       4.659   5.024  17.884  0.00  0.00    +0.000 N 
ATOM      6  C   UNL     1       5.657   4.446  17.001  0.00  0.00    +0.000 C 
ATOM      7  C   UNL     1       6.062   5.656  16.146  0.00  0.00    +0.000 C 
ATOM      8  C   UNL     1       4.865   6.638  16.207  0.00  0.00    +0.000 C 
ENDROOT
BRANCH   3   9
ATOM      9  C   UNL     1       2.541   7.978  18.174  0.00  0.00    +0.000 C 
ATOM     10  O   UNL     1       2.553   8.593  17.122  0.00  0.00    +0.000 OA
ATOM     11  N   UNL     1       1.841   8.399  19.285  0.00  0.00    +0.000 N 
ATOM     12  H   UNL     1       2.028   7.925  20.145  0.00  0.00    +0.000 HD
BRANCH  11  13
ATOM     13  C   UNL     1       1.067   9.632  19.309  0.00  0.00    +0.000 C 
BRANCH  13  14
ATOM     14  C   UNL     1       0.397   9.876  20.648  0.00  0.00    +0.000 A 
ATOM     15  C   UNL     1      -0.373  11.017  20.924  0.00  0.00    +0.000 A 
ATOM     16  C   UNL     1      -0.953  11.212  22.186  0.00  0.00    +0.000 A 
ATOM     17  C   UNL     1      -0.772  10.268  23.191  0.00  0.00    +0.000 A 
ATOM     18  C   UNL     1      -0.024   9.122  22.931  0.00  0.00    +0.000 A 
ATOM     19  C   UNL     1       0.545   8.922  21.668  0.00  0.00    +0.000 A 
ENDBRANCH  13  14
ENDBRANCH  11  13
ENDBRANCH   3   9
BRANCH   2  20
ATOM     20  N   UNL     1       2.406   5.566  20.476  0.00  0.00    +0.000 N 
ATOM     21  H   UNL     1       2.106   4.660  20.842  0.00  0.00    +0.000 HD
ATOM     22  H   UNL     1       2.036   6.329  21.023  0.00  0.00    +0.000 HD
ENDBRANCH   2  20
BRANCH   1  24
ATOM     23  N   UNL     1       4.560   2.413  20.250  0.00  0.00    +0.000 NA
ATOM     24  C   UNL     1       4.334   3.415  19.702  0.00  0.00    +0.000 C 
ENDBRANCH   1  24
TORSDOF 5
ENDMDL
