MODEL 1
REMARK VINA RESULT:      -7.7      0.000      0.000
REMARK  Name = 
REMARK  6 active torsions:
REMARK  status: ('A' for Active; 'I' for Inactive)
REMARK    1  A    between atoms: C_1  and  O_2
REMARK    2  A    between atoms: O_2  and  C_3
REMARK    3  A    between atoms: C_7  and  C_8
REMARK    4  A    between atoms: C_8  and  C_9
REMARK    5  A    between atoms: C_9  and  C_10
REMARK    6  A    between atoms: C_9  and  N_16
REMARK                            x       y       z     vdW  Elec       q    Type
REMARK                         _______ _______ _______ _____ _____    ______ ____
ROOT
ATOM      1  C   UNL     1       3.112   5.117  18.267  0.00  0.00    +0.000 C 
ENDROOT
BRANCH   1   2
ATOM      2  N   UNL     1       2.062   4.205  17.725  0.00  0.00    +0.000 NA
ATOM      3  C   UNL     1       2.616   3.019  17.022  0.00  0.00    +0.000 C 
ATOM      4  C   UNL     1       3.194   1.899  17.923  0.00  0.00    +0.000 C 
ATOM      5  N   UNL     1       2.300   1.470  19.000  0.00  0.00    +0.000 NA
ATOM      6  C   UNL     1       1.759   2.632  19.721  0.00  0.00    +0.000 C 
ATOM      7  C   UNL     1       1.139   3.678  18.766  0.00  0.00    +0.000 C 
ATOM      8  H   UNL     1       2.792   0.863  19.648  0.00  0.00    +0.000 HD
ENDBRANCH   1   2
BRANCH   1   9
ATOM      9  C   UNL     1       2.540   6.497  18.661  0.00  0.00    +0.000 A 
ATOM     10  C   UNL     1       2.335   7.515  17.716  0.00  0.00    +0.000 A 
ATOM     11  C   UNL     1       1.833   8.763  18.111  0.00  0.00    +0.000 A 
ATOM     12  C   UNL     1       1.529   9.004  19.452  0.00  0.00    +0.000 A 
ATOM     13  C   UNL     1       1.704   7.996  20.394  0.00  0.00    +0.000 A 
ATOM     14  C   UNL     1       2.196   6.751  20.002  0.00  0.00    +0.000 A 
ENDBRANCH   1   9
BRANCH   1  15
ATOM     15  C   UNL     1       4.317   5.310  17.266  0.00  0.00    +0.000 C 
BRANCH  15  20
ATOM     16  C   UNL     1       7.384   7.558  17.724  0.00  0.00    +0.000 A 
ATOM     17  C   UNL     1       8.115   6.819  18.651  0.00  0.00    +0.000 A 
ATOM     18  C   UNL     1       7.566   5.677  19.234  0.00  0.00    +0.000 A 
ATOM     19  C   UNL     1       6.316   5.217  18.819  0.00  0.00    +0.000 A 
ATOM     20  C   UNL     1       5.595   5.911  17.837  0.00  0.00    +0.000 A 
ATOM     21  C   UNL     1       6.096   7.143  17.388  0.00  0.00    +0.000 A 
BRANCH  16  23
ATOM     22  C   UNL     1       8.514   9.629  18.087  0.00  0.00    +0.000 C 
ATOM     23  O   UNL     1       8.039   8.633  17.189  0.00  0.00    +0.000 OA
ENDBRANCH  16  23
ENDBRANCH  15  20
ENDBRANCH   1  15
TORSDOF 5
ENDMDL
MODEL 2
REMARK VINA RESULT:      -7.5      2.566      5.694
REMARK  Name = 
REMARK  6 active torsions:
REMARK  status: ('A' for Active; 'I' for Inactive)
REMARK    1  A    between atoms: C_1  and  O_2
REMARK    2  A    between atoms: O_2  and  C_3
REMARK    3  A    between atoms: C_7  and  C_8
REMARK    4  A    between atoms: C_8  and  C_9
REMARK    5  A    between atoms: C_9  and  C_10
REMARK    6  A    between atoms: C_9  and  N_16
REMARK                            x       y       z     vdW  Elec       q    Type
REMARK                         _______ _______ _______ _____ _____    ______ ____
ROOT
ATOM      1  C   UNL     1       3.621   5.724  18.472  0.00  0.00    +0.000 C 
ENDROOT
BRANCH   1   2
ATOM      2  N   UNL     1       4.675   5.096  17.622  0.00  0.00    +0.000 NA
ATOM      3  C   UNL     1       5.299   6.044  16.661  0.00  0.00    +0.000 C 
ATOM      4  C   UNL     1       6.312   7.053  17.257  0.00  0.00    +0.000 C 
ATOM      5  N   UNL     1       7.342   6.446  18.103  0.00  0.00    +0.000 NA
ATOM      6  C   UNL     1       6.739   5.521  19.074  0.00  0.00    +0.000 C 
ATOM      7  C   UNL     1       5.792   4.500  18.403  0.00  0.00    +0.000 C 
ATOM      8  H   UNL     1       7.867   7.163  18.592  0.00  0.00    +0.000 HD
ENDBRANCH   1   2
BRANCH   1   9
ATOM      9  C   UNL     1       2.682   4.675  19.108  0.00  0.00    +0.000 A 
ATOM     10  C   UNL     1       1.825   3.878  18.332  0.00  0.00    +0.000 A 
ATOM     11  C   UNL     1       0.971   2.949  18.944  0.00  0.00    +0.000 A 
ATOM     12  C   UNL     1       0.968   2.806  20.332  0.00  0.00    +0.000 A 
ATOM     13  C   UNL     1       1.830   3.572  21.109  0.00  0.00    +0.000 A 
ATOM     14  C   UNL     1       2.686   4.491  20.503  0.00  0.00    +0.000 A 
ENDBRANCH   1   9
BRANCH   1  15
ATOM     15  C   UNL     1       2.767   6.791  17.683  0.00  0.00    +0.000 C 
BRANCH  15  20
ATOM     16  C   UNL     1       1.250   8.764  20.595  0.00  0.00    +0.000 A 
ATOM     17  C   UNL     1       0.745   9.876  19.923  0.00  0.00    +0.000 A 
ATOM     18  C   UNL     1       1.012  10.063  18.567  0.00  0.00    +0.000 A 
ATOM     19  C   UNL     1       1.707   9.086  17.854  0.00  0.00    +0.000 A 
ATOM     20  C   UNL     1       2.164   7.928  18.499  0.00  0.00    +0.000 A 
ATOM     21  C   UNL     1       2.027   7.843  19.893  0.00  0.00    +0.000 A 
BRANCH  16  23
ATOM     22  C   UNL     1      -0.360   9.227  22.295  0.00  0.00    +0.000 C 
ATOM     23  O   UNL     1       0.889   8.665  21.910  0.00  0.00    +0.000 OA
ENDBRANCH  16  23
ENDBRANCH  15  20
ENDBRANCH   1  15
TORSDOF 5
ENDMDL
MODEL 3
REMARK VINA RESULT:      -7.5      1.382      1.950
REMARK  Name = 
REMARK  6 active torsions:
REMARK  status: ('A' for Active; 'I' for Inactive)
REMARK    1  A    between atoms: C_1  and  O_2
REMARK    2  A    between atoms: O_2  and  C_3
REMARK    3  A    between atoms: C_7  and  C_8
REMARK    4  A    between atoms: C_8  and  C_9
REMARK    5  A    between atoms: C_9  and  C_10
REMARK    6  A    between atoms: C_9  and  N_16
REMARK                            x       y       z     vdW  Elec       q    Type
REMARK                         _______ _______ _______ _____ _____    ______ ____
ROOT
ATOM      1  C   UNL     1       3.032   5.221  19.025  0.00  0.00    +0.000 C 
ENDROOT
BRANCH   1   2
ATOM      2  N   UNL     1       2.257   4.119  19.667  0.00  0.00    +0.000 NA
ATOM      3  C   UNL     1       1.467   3.312  18.701  0.00  0.00    +0.000 C 
ATOM      4  C   UNL     1       2.268   2.309  17.834  0.00  0.00    +0.000 C 
ATOM      5  N   UNL     1       3.169   1.440  18.593  0.00  0.00    +0.000 NA
ATOM      6  C   UNL     1       3.974   2.227  19.540  0.00  0.00    +0.000 C 
ATOM      7  C   UNL     1       3.106   3.155  20.418  0.00  0.00    +0.000 C 
ATOM      8  H   UNL     1       3.780   0.928  17.965  0.00  0.00    +0.000 HD
ENDBRANCH   1   2
BRANCH   1   9
ATOM      9  C   UNL     1       2.402   6.607  19.284  0.00  0.00    +0.000 A 
ATOM     10  C   UNL     1       2.320   7.586  18.281  0.00  0.00    +0.000 A 
ATOM     11  C   UNL     1       1.759   8.841  18.556  0.00  0.00    +0.000 A 
ATOM     12  C   UNL     1       1.273   9.128  19.833  0.00  0.00    +0.000 A 
ATOM     13  C   UNL     1       1.325   8.158  20.827  0.00  0.00    +0.000 A 
ATOM     14  C   UNL     1       1.876   6.907  20.555  0.00  0.00    +0.000 A 
ENDBRANCH   1   9
BRANCH   1  15
ATOM     15  C   UNL     1       3.213   5.003  17.471  0.00  0.00    +0.000 C 
BRANCH  15  20
ATOM     16  C   UNL     1       6.791   6.033  16.572  0.00  0.00    +0.000 A 
ATOM     17  C   UNL     1       7.146   5.010  15.695  0.00  0.00    +0.000 A 
ATOM     18  C   UNL     1       6.297   3.920  15.501  0.00  0.00    +0.000 A 
ATOM     19  C   UNL     1       5.044   3.897  16.115  0.00  0.00    +0.000 A 
ATOM     20  C   UNL     1       4.643   4.951  16.947  0.00  0.00    +0.000 A 
ATOM     21  C   UNL     1       5.578   5.952  17.255  0.00  0.00    +0.000 A 
BRANCH  16  23
ATOM     22  C   UNL     1       7.917   7.640  17.930  0.00  0.00    +0.000 C 
ATOM     23  O   UNL     1       7.681   7.069  16.649  0.00  0.00    +0.000 OA
ENDBRANCH  16  23
ENDBRANCH  15  20
ENDBRANCH   1  15
TORSDOF 5
ENDMDL
MODEL 4
REMARK VINA RESULT:      -7.5      2.580      5.265
REMARK  Name = 
REMARK  6 active torsions:
REMARK  status: ('A' for Active; 'I' for Inactive)
REMARK    1  A    between atoms: C_1  and  O_2
REMARK    2  A    between atoms: O_2  and  C_3
REMARK    3  A    between atoms: C_7  and  C_8
REMARK    4  A    between atoms: C_8  and  C_9
REMARK    5  A    between atoms: C_9  and  C_10
REMARK    6  A    between atoms: C_9  and  N_16
REMARK                            x       y       z     vdW  Elec       q    Type
REMARK                         _______ _______ _______ _____ _____    ______ ____
ROOT
ATOM      1  C   UNL     1       3.496   4.365  18.638  0.00  0.00    +0.000 C 
ENDROOT
BRANCH   1   2
ATOM      2  N   UNL     1       3.268   3.027  19.258  0.00  0.00    +0.000 NA
ATOM      3  C   UNL     1       2.827   3.102  20.676  0.00  0.00    +0.000 C 
ATOM      4  C   UNL     1       1.353   3.517  20.912  0.00  0.00    +0.000 C 
ATOM      5  N   UNL     1       0.379   2.760  20.124  0.00  0.00    +0.000 NA
ATOM      6  C   UNL     1       0.790   2.695  18.713  0.00  0.00    +0.000 C 
ATOM      7  C   UNL     1       2.248   2.210  18.548  0.00  0.00    +0.000 C 
ATOM      8  H   UNL     1      -0.540   3.184  20.195  0.00  0.00    +0.000 HD
ENDBRANCH   1   2
BRANCH   1   9
ATOM      9  C   UNL     1       4.779   4.399  17.778  0.00  0.00    +0.000 A 
ATOM     10  C   UNL     1       6.038   4.685  18.331  0.00  0.00    +0.000 A 
ATOM     11  C   UNL     1       7.179   4.727  17.518  0.00  0.00    +0.000 A 
ATOM     12  C   UNL     1       7.074   4.482  16.148  0.00  0.00    +0.000 A 
ATOM     13  C   UNL     1       5.837   4.173  15.592  0.00  0.00    +0.000 A 
ATOM     14  C   UNL     1       4.702   4.123  16.400  0.00  0.00    +0.000 A 
ENDBRANCH   1   9
BRANCH   1  15
ATOM     15  C   UNL     1       3.545   5.525  19.708  0.00  0.00    +0.000 C 
BRANCH  15  20
ATOM     16  C   UNL     1       1.292   8.622  19.773  0.00  0.00    +0.000 A 
ATOM     17  C   UNL     1       1.441   9.082  18.466  0.00  0.00    +0.000 A 
ATOM     18  C   UNL     1       2.367   8.487  17.609  0.00  0.00    +0.000 A 
ATOM     19  C   UNL     1       3.082   7.365  18.030  0.00  0.00    +0.000 A 
ATOM     20  C   UNL     1       2.895   6.847  19.319  0.00  0.00    +0.000 A 
ATOM     21  C   UNL     1       2.082   7.561  20.213  0.00  0.00    +0.000 A 
BRANCH  16  23
ATOM     22  C   UNL     1      -0.544  10.146  19.820  0.00  0.00    +0.000 C 
ATOM     23  O   UNL     1       0.326   9.254  20.507  0.00  0.00    +0.000 OA
ENDBRANCH  16  23
ENDBRANCH  15  20
ENDBRANCH   1  15
TORSDOF 5
ENDMDL
MODEL 5
REMARK VINA RESULT:      -7.5      1.405      2.261
REMARK  Name = 
REMARK  6 active torsions:
REMARK  status: ('A' for Active; 'I' for Inactive)
REMARK    1  A    between atoms: C_1  and  O_2
REMARK    2  A    between atoms: O_2  and  C_3
REMARK    3  A    between atoms: C_7  and  C_8
REMARK    4  A    between atoms: C_8  and  C_9
REMARK    5  A    between atoms: C_9  and  C_10
REMARK    6  A    between atoms: C_9  and  N_16
REMARK                            x       y       z     vdW  Elec       q    Type
REMARK                         _______ _______ _______ _____ _____    ______ ____
ROOT
ATOM      1  C   UNL     1       3.039   5.316  19.013  0.00  0.00    +0.000 C 
ENDROOT
BRANCH   1   2
ATOM      2  N   UNL     1       2.281   4.237  19.713  0.00  0.00    +0.000 NA
ATOM      3  C   UNL     1       1.420   3.435  18.805  0.00  0.00    +0.000 C 
ATOM      4  C   UNL     1       2.150   2.406  17.905  0.00  0.00    +0.000 C 
ATOM      5  N   UNL     1       3.077   1.528  18.623  0.00  0.00    +0.000 NA
ATOM      6  C   UNL     1       3.951   2.309  19.511  0.00  0.00    +0.000 C 
ATOM      7  C   UNL     1       3.153   3.265  20.426  0.00  0.00    +0.000 C 
ATOM      8  H   UNL     1       3.640   0.996  17.967  0.00  0.00    +0.000 HD
ENDBRANCH   1   2
BRANCH   1   9
ATOM      9  C   UNL     1       2.416   6.710  19.241  0.00  0.00    +0.000 A 
ATOM     10  C   UNL     1       1.886   7.094  20.483  0.00  0.00    +0.000 A 
ATOM     11  C   UNL     1       1.310   8.362  20.650  0.00  0.00    +0.000 A 
ATOM     12  C   UNL     1       1.260   9.257  19.580  0.00  0.00    +0.000 A 
ATOM     13  C   UNL     1       1.804   8.898  18.351  0.00  0.00    +0.000 A 
ATOM     14  C   UNL     1       2.384   7.641  18.185  0.00  0.00    +0.000 A 
ENDBRANCH   1   9
BRANCH   1  15
ATOM     15  C   UNL     1       3.179   5.045  17.464  0.00  0.00    +0.000 C 
BRANCH  15  20
ATOM     16  C   UNL     1       6.828   5.853  16.623  0.00  0.00    +0.000 A 
ATOM     17  C   UNL     1       7.084   4.909  15.631  0.00  0.00    +0.000 A 
ATOM     18  C   UNL     1       6.140   3.926  15.331  0.00  0.00    +0.000 A 
ATOM     19  C   UNL     1       4.895   3.944  15.960  0.00  0.00    +0.000 A 
ATOM     20  C   UNL     1       4.595   4.928  16.912  0.00  0.00    +0.000 A 
ATOM     21  C   UNL     1       5.617   5.801  17.314  0.00  0.00    +0.000 A 
BRANCH  16  23
ATOM     22  C   UNL     1       7.474   7.958  17.544  0.00  0.00    +0.000 C 
ATOM     23  O   UNL     1       7.807   6.792  16.801  0.00  0.00    +0.000 OA
ENDBRANCH  16  23
ENDBRANCH  15  20
ENDBRANCH   1  15
TORSDOF 5
ENDMDL
MODEL 6
REMARK VINA RESULT:      -7.4      2.590      5.182
REMARK  Name = 
REMARK  6 active torsions:
REMARK  status: ('A' for Active; 'I' for Inactive)
REMARK    1  A    between atoms: C_1  and  O_2
REMARK    2  A    between atoms: O_2  and  C_3
REMARK    3  A    between atoms: C_7  and  C_8
REMARK    4  A    between atoms: C_8  and  C_9
REMARK    5  A    between atoms: C_9  and  C_10
REMARK    6  A    between atoms: C_9  and  N_16
REMARK                            x       y       z     vdW  Elec       q    Type
REMARK                         _______ _______ _______ _____ _____    ______ ____
ROOT
ATOM      1  C   UNL     1       3.520   4.366  18.580  0.00  0.00    +0.000 C 
ENDROOT
BRANCH   1   2
ATOM      2  N   UNL     1       3.290   3.025  19.194  0.00  0.00    +0.000 NA
ATOM      3  C   UNL     1       2.875   3.093  20.620  0.00  0.00    +0.000 C 
ATOM      4  C   UNL     1       1.409   3.520  20.884  0.00  0.00    +0.000 C 
ATOM      5  N   UNL     1       0.415   2.777  20.108  0.00  0.00    +0.000 NA
ATOM      6  C   UNL     1       0.800   2.719  18.690  0.00  0.00    +0.000 C 
ATOM      7  C   UNL     1       2.251   2.222  18.496  0.00  0.00    +0.000 C 
ATOM      8  H   UNL     1      -0.499   3.209  20.198  0.00  0.00    +0.000 HD
ENDBRANCH   1   2
BRANCH   1   9
ATOM      9  C   UNL     1       4.781   4.392  17.688  0.00  0.00    +0.000 A 
ATOM     10  C   UNL     1       4.722   4.142  16.308  0.00  0.00    +0.000 A 
ATOM     11  C   UNL     1       5.889   4.154  15.531  0.00  0.00    +0.000 A 
ATOM     12  C   UNL     1       7.124   4.418  16.126  0.00  0.00    +0.000 A 
ATOM     13  C   UNL     1       7.193   4.692  17.487  0.00  0.00    +0.000 A 
ATOM     14  C   UNL     1       6.033   4.688  18.260  0.00  0.00    +0.000 A 
ENDBRANCH   1   9
BRANCH   1  15
ATOM     15  C   UNL     1       3.610   5.516  19.658  0.00  0.00    +0.000 C 
BRANCH  15  20
ATOM     16  C   UNL     1       1.291   8.558  19.856  0.00  0.00    +0.000 A 
ATOM     17  C   UNL     1       1.397   9.053  18.558  0.00  0.00    +0.000 A 
ATOM     18  C   UNL     1       2.314   8.500  17.664  0.00  0.00    +0.000 A 
ATOM     19  C   UNL     1       3.064   7.385  18.038  0.00  0.00    +0.000 A 
ATOM     20  C   UNL     1       2.921   6.831  19.318  0.00  0.00    +0.000 A 
ATOM     21  C   UNL     1       2.115   7.505  20.250  0.00  0.00    +0.000 A 
BRANCH  16  23
ATOM     22  C   UNL     1       0.624   9.350  22.006  0.00  0.00    +0.000 C 
ATOM     23  O   UNL     1       0.330   9.150  20.628  0.00  0.00    +0.000 OA
ENDBRANCH  16  23
ENDBRANCH  15  20
ENDBRANCH   1  15
TORSDOF 5
ENDMDL
MODEL 7
REMARK VINA RESULT:      -7.4      2.609      5.765
REMARK  Name = 
REMARK  6 active torsions:
REMARK  status: ('A' for Active; 'I' for Inactive)
REMARK    1  A    between atoms: C_1  and  O_2
REMARK    2  A    between atoms: O_2  and  C_3
REMARK    3  A    between atoms: C_7  and  C_8
REMARK    4  A    between atoms: C_8  and  C_9
REMARK    5  A    between atoms: C_9  and  C_10
REMARK    6  A    between atoms: C_9  and  N_16
REMARK                            x       y       z     vdW  Elec       q    Type
REMARK                         _______ _______ _______ _____ _____    ______ ____
ROOT
ATOM      1  C   UNL     1       3.550   5.868  18.474  0.00  0.00    +0.000 C 
ENDROOT
BRANCH   1   2
ATOM      2  N   UNL     1       4.557   5.245  17.567  0.00  0.00    +0.000 NA
ATOM      3  C   UNL     1       5.234   6.223  16.675  0.00  0.00    +0.000 C 
ATOM      4  C   UNL     1       6.312   7.117  17.338  0.00  0.00    +0.000 C 
ATOM      5  N   UNL     1       7.307   6.383  18.123  0.00  0.00    +0.000 NA
ATOM      6  C   UNL     1       6.651   5.424  19.026  0.00  0.00    +0.000 C 
ATOM      7  C   UNL     1       5.639   4.520  18.288  0.00  0.00    +0.000 C 
ATOM      8  H   UNL     1       7.879   7.026  18.661  0.00  0.00    +0.000 HD
ENDBRANCH   1   2
BRANCH   1   9
ATOM      9  C   UNL     1       2.649   4.816  19.158  0.00  0.00    +0.000 A 
ATOM     10  C   UNL     1       2.639   4.637  20.551  0.00  0.00    +0.000 A 
ATOM     11  C   UNL     1       1.823   3.659  21.137  0.00  0.00    +0.000 A 
ATOM     12  C   UNL     1       1.008   2.855  20.339  0.00  0.00    +0.000 A 
ATOM     13  C   UNL     1       0.990   3.039  18.961  0.00  0.00    +0.000 A 
ATOM     14  C   UNL     1       1.795   4.016  18.376  0.00  0.00    +0.000 A 
ENDBRANCH   1   9
BRANCH   1  15
ATOM     15  C   UNL     1       2.651   6.935  17.735  0.00  0.00    +0.000 C 
BRANCH  15  20
ATOM     16  C   UNL     1       1.144   8.882  20.668  0.00  0.00    +0.000 A 
ATOM     17  C   UNL     1       0.781  10.070  20.036  0.00  0.00    +0.000 A 
ATOM     18  C   UNL     1       1.144  10.303  18.709  0.00  0.00    +0.000 A 
ATOM     19  C   UNL     1       1.792   9.305  17.981  0.00  0.00    +0.000 A 
ATOM     20  C   UNL     1       2.104   8.078  18.581  0.00  0.00    +0.000 A 
ATOM     21  C   UNL     1       1.877   7.932  19.959  0.00  0.00    +0.000 A 
BRANCH  16  23
ATOM     22  C   UNL     1      -0.063   9.817  22.503  0.00  0.00    +0.000 C 
ATOM     23  O   UNL     1       0.698   8.747  21.954  0.00  0.00    +0.000 OA
ENDBRANCH  16  23
ENDBRANCH  15  20
ENDBRANCH   1  15
TORSDOF 5
ENDMDL
MODEL 8
REMARK VINA RESULT:      -7.3      1.718      2.513
REMARK  Name = 
REMARK  6 active torsions:
REMARK  status: ('A' for Active; 'I' for Inactive)
REMARK    1  A    between atoms: C_1  and  O_2
REMARK    2  A    between atoms: O_2  and  C_3
REMARK    3  A    between atoms: C_7  and  C_8
REMARK    4  A    between atoms: C_8  and  C_9
REMARK    5  A    between atoms: C_9  and  C_10
REMARK    6  A    between atoms: C_9  and  N_16
REMARK                            x       y       z     vdW  Elec       q    Type
REMARK                         _______ _______ _______ _____ _____    ______ ____
ROOT
ATOM      1  C   UNL     1       2.957   5.179  18.962  0.00  0.00    +0.000 C 
ENDROOT
BRANCH   1   2
ATOM      2  N   UNL     1       2.066   4.130  19.541  0.00  0.00    +0.000 NA
ATOM      3  C   UNL     1       1.395   3.292  18.512  0.00  0.00    +0.000 C 
ATOM      4  C   UNL     1       2.280   2.227  17.817  0.00  0.00    +0.000 C 
ATOM      5  N   UNL     1       3.038   1.378  18.738  0.00  0.00    +0.000 NA
ATOM      6  C   UNL     1       3.726   2.194  19.750  0.00  0.00    +0.000 C 
ATOM      7  C   UNL     1       2.771   3.187  20.450  0.00  0.00    +0.000 C 
ATOM      8  H   UNL     1       3.715   0.820  18.228  0.00  0.00    +0.000 HD
ENDBRANCH   1   2
BRANCH   1   9
ATOM      9  C   UNL     1       2.396   6.602  19.172  0.00  0.00    +0.000 A 
ATOM     10  C   UNL     1       1.876   7.023  20.407  0.00  0.00    +0.000 A 
ATOM     11  C   UNL     1       1.357   8.317  20.557  0.00  0.00    +0.000 A 
ATOM     12  C   UNL     1       1.355   9.202  19.478  0.00  0.00    +0.000 A 
ATOM     13  C   UNL     1       1.890   8.806  18.257  0.00  0.00    +0.000 A 
ATOM     14  C   UNL     1       2.414   7.522  18.107  0.00  0.00    +0.000 A 
ENDBRANCH   1   9
BRANCH   1  15
ATOM     15  C   UNL     1       3.247   4.944  17.428  0.00  0.00    +0.000 C 
BRANCH  15  20
ATOM     16  C   UNL     1       7.060   4.637  17.613  0.00  0.00    +0.000 A 
ATOM     17  C   UNL     1       7.383   4.568  16.259  0.00  0.00    +0.000 A 
ATOM     18  C   UNL     1       6.378   4.479  15.297  0.00  0.00    +0.000 A 
ATOM     19  C   UNL     1       5.039   4.552  15.682  0.00  0.00    +0.000 A 
ATOM     20  C   UNL     1       4.696   4.690  17.034  0.00  0.00    +0.000 A 
ATOM     21  C   UNL     1       5.718   4.612  17.993  0.00  0.00    +0.000 A 
BRANCH  16  23
ATOM     22  C   UNL     1       7.999   5.677  19.545  0.00  0.00    +0.000 C 
ATOM     23  O   UNL     1       8.126   4.765  18.461  0.00  0.00    +0.000 OA
ENDBRANCH  16  23
ENDBRANCH  15  20
ENDBRANCH   1  15
TORSDOF 5
ENDMDL
MODEL 9
REMARK VINA RESULT:      -7.3      1.823      2.467
REMARK  Name = 
REMARK  6 active torsions:
REMARK  status: ('A' for Active; 'I' for Inactive)
REMARK    1  A    between atoms: C_1  and  O_2
REMARK    2  A    between atoms: O_2  and  C_3
REMARK    3  A    between atoms: C_7  and  C_8
REMARK    4  A    between atoms: C_8  and  C_9
REMARK    5  A    between atoms: C_9  and  C_10
REMARK    6  A    between atoms: C_9  and  N_16
REMARK                            x       y       z     vdW  Elec       q    Type
REMARK                         _______ _______ _______ _____ _____    ______ ____
ROOT
ATOM      1  C   UNL     1       2.696   5.806  19.204  0.00  0.00    +0.000 C 
ENDROOT
BRANCH   1   2
ATOM      2  N   UNL     1       1.703   4.729  19.489  0.00  0.00    +0.000 NA
ATOM      3  C   UNL     1       1.463   3.827  18.332  0.00  0.00    +0.000 C 
ATOM      4  C   UNL     1       2.575   2.789  18.035  0.00  0.00    +0.000 C 
ATOM      5  N   UNL     1       3.000   2.010  19.199  0.00  0.00    +0.000 NA
ATOM      6  C   UNL     1       3.262   2.891  20.347  0.00  0.00    +0.000 C 
ATOM      7  C   UNL     1       2.085   3.853  20.629  0.00  0.00    +0.000 C 
ATOM      8  H   UNL     1       3.834   1.473  18.981  0.00  0.00    +0.000 HD
ENDBRANCH   1   2
BRANCH   1   9
ATOM      9  C   UNL     1       2.106   7.217  19.416  0.00  0.00    +0.000 A 
ATOM     10  C   UNL     1       1.587   7.628  20.654  0.00  0.00    +0.000 A 
ATOM     11  C   UNL     1       1.040   8.911  20.807  0.00  0.00    +0.000 A 
ATOM     12  C   UNL     1       1.011   9.793  19.726  0.00  0.00    +0.000 A 
ATOM     13  C   UNL     1       1.545   9.407  18.501  0.00  0.00    +0.000 A 
ATOM     14  C   UNL     1       2.095   8.135  18.349  0.00  0.00    +0.000 A 
ENDBRANCH   1   9
BRANCH   1  15
ATOM     15  C   UNL     1       3.303   5.698  17.751  0.00  0.00    +0.000 C 
BRANCH  15  20
ATOM     16  C   UNL     1       6.807   5.146  16.306  0.00  0.00    +0.000 A 
ATOM     17  C   UNL     1       7.543   4.948  17.473  0.00  0.00    +0.000 A 
ATOM     18  C   UNL     1       6.949   5.129  18.722  0.00  0.00    +0.000 A 
ATOM     19  C   UNL     1       5.587   5.419  18.808  0.00  0.00    +0.000 A 
ATOM     20  C   UNL     1       4.816   5.555  17.646  0.00  0.00    +0.000 A 
ATOM     21  C   UNL     1       5.470   5.531  16.405  0.00  0.00    +0.000 A 
BRANCH  16  23
ATOM     22  C   UNL     1       6.733   4.396  14.042  0.00  0.00    +0.000 C 
ATOM     23  O   UNL     1       7.482   4.898  15.143  0.00  0.00    +0.000 OA
ENDBRANCH  16  23
ENDBRANCH  15  20
ENDBRANCH   1  15
TORSDOF 5
ENDMDL
