MODEL 1
REMARK VINA RESULT:      -8.7      0.000      0.000
REMARK  Name = 
REMARK  9 active torsions:
REMARK  status: ('A' for Active; 'I' for Inactive)
REMARK    1  A    between atoms: C_1  and  C_2
REMARK    2  A    between atoms: C_5  and  N_6
REMARK    3  A    between atoms: C_7  and  C_8
REMARK    4  A    between atoms: C_8  and  C_9
REMARK    5  A    between atoms: N_13  and  C_14
REMARK    6  A    between atoms: C_17  and  S_18
REMARK    7  A    between atoms: S_18  and  C_19
REMARK    8  A    between atoms: C_19  and  C_20
REMARK    9  A    between atoms: N_22  and  C_23
REMARK                            x       y       z     vdW  Elec       q    Type
REMARK                         _______ _______ _______ _____ _____    ______ ____
ROOT
ATOM      1  N   UNL     1       3.244   6.427  17.798  0.00  0.00    +0.000 N 
ATOM      2  C   UNL     1       2.942   5.069  17.643  0.00  0.00    +0.000 A 
ATOM      3  N   UNL     1       3.905   4.482  16.952  0.00  0.00    +0.000 NA
ATOM      4  N   UNL     1       4.864   5.400  16.660  0.00  0.00    +0.000 NA
ATOM      5  C   UNL     1       4.495   6.546  17.180  0.00  0.00    +0.000 A 
ENDROOT
BRANCH   1  10
ATOM      6  C   UNL     1      -0.060  10.349  20.413  0.00  0.00    +0.000 C 
ATOM      7  C   UNL     1       0.857   9.379  19.730  0.00  0.00    +0.000 A 
ATOM      8  C   UNL     1       1.120   9.468  18.360  0.00  0.00    +0.000 A 
ATOM      9  C   UNL     1       1.916   8.510  17.720  0.00  0.00    +0.000 A 
ATOM     10  C   UNL     1       2.482   7.454  18.441  0.00  0.00    +0.000 A 
ATOM     11  C   UNL     1       2.256   7.405  19.824  0.00  0.00    +0.000 A 
ATOM     12  C   UNL     1       1.431   8.339  20.456  0.00  0.00    +0.000 A 
ENDBRANCH   1  10
BRANCH   2  13
ATOM     13  C   UNL     1       1.729   4.314  18.087  0.00  0.00    +0.000 C 
BRANCH  13  14
ATOM     14  C   UNL     1       1.789   3.670  19.442  0.00  0.00    +0.000 A 
ATOM     15  C   UNL     1       1.268   4.130  20.643  0.00  0.00    +0.000 A 
ATOM     16  C   UNL     1       1.726   3.283  21.677  0.00  0.00    +0.000 A 
ATOM     17  C   UNL     1       2.505   2.315  21.090  0.00  0.00    +0.000 A 
ATOM     18  N   UNL     1       2.514   2.534  19.736  0.00  0.00    +0.000 N 
ATOM     19  C   UNL     1       3.211   1.687  18.787  0.00  0.00    +0.000 C 
ENDBRANCH  13  14
ENDBRANCH   2  13
BRANCH   5  20
ATOM     20  S   UNL     1       5.537   7.945  17.226  0.00  0.00    +0.000 S 
BRANCH  20  21
ATOM     21  C   UNL     1       7.187   7.193  17.228  0.00  0.00    +0.000 C 
BRANCH  21  22
ATOM     22  C   UNL     1       8.115   7.948  18.175  0.00  0.00    +0.000 C 
ATOM     23  O   UNL     1       8.680   7.353  19.090  0.00  0.00    +0.000 OA
ATOM     24  N   UNL     1       8.262   9.299  17.878  0.00  0.00    +0.000 N 
ATOM     25  H   UNL     1       7.590   9.691  17.228  0.00  0.00    +0.000 HD
BRANCH  24  26
ATOM     26  C   UNL     1       9.103  10.219  18.551  0.00  0.00    +0.000 A 
ATOM     27  C   UNL     1       9.104  10.373  19.952  0.00  0.00    +0.000 A 
ATOM     28  C   UNL     1       9.912  11.331  20.584  0.00  0.00    +0.000 A 
ATOM     29  C   UNL     1      10.703  12.123  19.785  0.00  0.00    +0.000 A 
ATOM     30  C   UNL     1      10.735  11.963  18.420  0.00  0.00    +0.000 A 
ATOM     31  C   UNL     1       9.966  11.011  17.776  0.00  0.00    +0.000 A 
ATOM     32  O   UNL     1      11.582  12.847  17.822  0.00  0.00    +0.000 OA
ATOM     33  C   UNL     1      12.008  13.629  18.960  0.00  0.00    +0.000 C 
ATOM     34  O   UNL     1      11.516  13.121  20.216  0.00  0.00    +0.000 OA
ENDBRANCH  24  26
ENDBRANCH  21  22
ENDBRANCH  20  21
ENDBRANCH   5  20
TORSDOF 7
ENDMDL
MODEL 2
REMARK VINA RESULT:      -8.3      5.267      9.211
REMARK  Name = 
REMARK  9 active torsions:
REMARK  status: ('A' for Active; 'I' for Inactive)
REMARK    1  A    between atoms: C_1  and  C_2
REMARK    2  A    between atoms: C_5  and  N_6
REMARK    3  A    between atoms: C_7  and  C_8
REMARK    4  A    between atoms: C_8  and  C_9
REMARK    5  A    between atoms: N_13  and  C_14
REMARK    6  A    between atoms: C_17  and  S_18
REMARK    7  A    between atoms: S_18  and  C_19
REMARK    8  A    between atoms: C_19  and  C_20
REMARK    9  A    between atoms: N_22  and  C_23
REMARK                            x       y       z     vdW  Elec       q    Type
REMARK                         _______ _______ _______ _____ _____    ______ ____
ROOT
ATOM      1  N   UNL     1      -0.777  11.568  20.359  0.00  0.00    +0.000 N 
ATOM      2  C   UNL     1      -0.280  12.825  20.723  0.00  0.00    +0.000 A 
ATOM      3  N   UNL     1       0.274  12.746  21.922  0.00  0.00    +0.000 NA
ATOM      4  N   UNL     1       0.191  11.464  22.365  0.00  0.00    +0.000 NA
ATOM      5  C   UNL     1      -0.404  10.755  21.436  0.00  0.00    +0.000 A 
ENDROOT
BRANCH   1  10
ATOM      6  C   UNL     1      -3.405  10.202  15.423  0.00  0.00    +0.000 C 
ATOM      7  C   UNL     1      -2.770  10.512  16.745  0.00  0.00    +0.000 A 
ATOM      8  C   UNL     1      -3.364  11.400  17.646  0.00  0.00    +0.000 A 
ATOM      9  C   UNL     1      -2.722  11.741  18.844  0.00  0.00    +0.000 A 
ATOM     10  C   UNL     1      -1.482  11.186  19.173  0.00  0.00    +0.000 A 
ATOM     11  C   UNL     1      -0.920  10.255  18.286  0.00  0.00    +0.000 A 
ATOM     12  C   UNL     1      -1.542   9.943  17.075  0.00  0.00    +0.000 A 
ENDBRANCH   1  10
BRANCH   2  13
ATOM     13  C   UNL     1      -0.364  14.126  19.987  0.00  0.00    +0.000 C 
BRANCH  13  14
ATOM     14  C   UNL     1       0.822  14.507  19.149  0.00  0.00    +0.000 A 
ATOM     15  C   UNL     1       1.765  13.680  18.555  0.00  0.00    +0.000 A 
ATOM     16  C   UNL     1       2.791  14.491  18.021  0.00  0.00    +0.000 A 
ATOM     17  C   UNL     1       2.451  15.797  18.285  0.00  0.00    +0.000 A 
ATOM     18  N   UNL     1       1.245  15.803  18.938  0.00  0.00    +0.000 N 
ATOM     19  C   UNL     1       0.557  17.012  19.348  0.00  0.00    +0.000 C 
ENDBRANCH  13  14
ENDBRANCH   2  13
BRANCH   5  20
ATOM     20  S   UNL     1      -0.525   9.016  21.502  0.00  0.00    +0.000 S 
BRANCH  20  21
ATOM     21  C   UNL     1       1.214   8.517  21.633  0.00  0.00    +0.000 C 
BRANCH  21  22
ATOM     22  C   UNL     1       1.698   7.919  20.316  0.00  0.00    +0.000 C 
ATOM     23  O   UNL     1       1.711   8.603  19.295  0.00  0.00    +0.000 OA
ATOM     24  N   UNL     1       2.126   6.598  20.408  0.00  0.00    +0.000 N 
ATOM     25  H   UNL     1       1.873   6.103  21.256  0.00  0.00    +0.000 HD
BRANCH  24  26
ATOM     26  C   UNL     1       2.676   5.820  19.360  0.00  0.00    +0.000 A 
ATOM     27  C   UNL     1       1.949   4.818  18.686  0.00  0.00    +0.000 A 
ATOM     28  C   UNL     1       2.540   4.029  17.688  0.00  0.00    +0.000 A 
ATOM     29  C   UNL     1       3.862   4.263  17.391  0.00  0.00    +0.000 A 
ATOM     30  C   UNL     1       4.575   5.257  18.018  0.00  0.00    +0.000 A 
ATOM     31  C   UNL     1       4.009   6.064  18.989  0.00  0.00    +0.000 A 
ATOM     32  O   UNL     1       5.863   5.319  17.578  0.00  0.00    +0.000 OA
ATOM     33  C   UNL     1       5.893   4.198  16.667  0.00  0.00    +0.000 C 
ATOM     34  O   UNL     1       4.605   3.577  16.486  0.00  0.00    +0.000 OA
ENDBRANCH  24  26
ENDBRANCH  21  22
ENDBRANCH  20  21
ENDBRANCH   5  20
TORSDOF 7
ENDMDL
MODEL 3
REMARK VINA RESULT:      -8.2      1.667      2.341
REMARK  Name = 
REMARK  9 active torsions:
REMARK  status: ('A' for Active; 'I' for Inactive)
REMARK    1  A    between atoms: C_1  and  C_2
REMARK    2  A    between atoms: C_5  and  N_6
REMARK    3  A    between atoms: C_7  and  C_8
REMARK    4  A    between atoms: C_8  and  C_9
REMARK    5  A    between atoms: N_13  and  C_14
REMARK    6  A    between atoms: C_17  and  S_18
REMARK    7  A    between atoms: S_18  and  C_19
REMARK    8  A    between atoms: C_19  and  C_20
REMARK    9  A    between atoms: N_22  and  C_23
REMARK                            x       y       z     vdW  Elec       q    Type
REMARK                         _______ _______ _______ _____ _____    ______ ____
ROOT
ATOM      1  N   UNL     1       5.272   5.357  17.424  0.00  0.00    +0.000 N 
ATOM      2  C   UNL     1       5.076   4.248  16.592  0.00  0.00    +0.000 A 
ATOM      3  N   UNL     1       6.246   3.835  16.132  0.00  0.00    +0.000 NA
ATOM      4  N   UNL     1       7.228   4.615  16.653  0.00  0.00    +0.000 NA
ATOM      5  C   UNL     1       6.664   5.500  17.440  0.00  0.00    +0.000 A 
ENDROOT
BRANCH   1  10
ATOM      6  C   UNL     1       1.154   8.319  20.146  0.00  0.00    +0.000 C 
ATOM      7  C   UNL     1       2.275   7.604  19.453  0.00  0.00    +0.000 A 
ATOM      8  C   UNL     1       2.699   7.982  18.177  0.00  0.00    +0.000 A 
ATOM      9  C   UNL     1       3.694   7.257  17.508  0.00  0.00    +0.000 A 
ATOM     10  C   UNL     1       4.299   6.151  18.112  0.00  0.00    +0.000 A 
ATOM     11  C   UNL     1       3.905   5.813  19.415  0.00  0.00    +0.000 A 
ATOM     12  C   UNL     1       2.886   6.512  20.066  0.00  0.00    +0.000 A 
ENDBRANCH   1  10
BRANCH   2  13
ATOM     13  C   UNL     1       3.797   3.595  16.171  0.00  0.00    +0.000 C 
BRANCH  13  14
ATOM     14  C   UNL     1       2.790   3.320  17.249  0.00  0.00    +0.000 A 
ATOM     15  C   UNL     1       1.650   4.042  17.574  0.00  0.00    +0.000 A 
ATOM     16  C   UNL     1       1.114   3.509  18.768  0.00  0.00    +0.000 A 
ATOM     17  C   UNL     1       1.925   2.464  19.143  0.00  0.00    +0.000 A 
ATOM     18  N   UNL     1       2.918   2.334  18.205  0.00  0.00    +0.000 N 
ATOM     19  C   UNL     1       3.944   1.310  18.255  0.00  0.00    +0.000 C 
ENDBRANCH  13  14
ENDBRANCH   2  13
BRANCH   5  20
ATOM     20  S   UNL     1       7.578   6.564  18.478  0.00  0.00    +0.000 S 
BRANCH  20  21
ATOM     21  C   UNL     1       7.562   8.118  17.542  0.00  0.00    +0.000 C 
BRANCH  21  22
ATOM     22  C   UNL     1       8.442   9.160  18.226  0.00  0.00    +0.000 C 
ATOM     23  O   UNL     1       9.045   8.877  19.258  0.00  0.00    +0.000 OA
ATOM     24  N   UNL     1       8.502  10.383  17.564  0.00  0.00    +0.000 N 
ATOM     25  H   UNL     1       7.804  10.538  16.844  0.00  0.00    +0.000 HD
BRANCH  24  26
ATOM     26  C   UNL     1       9.283  11.502  17.940  0.00  0.00    +0.000 A 
ATOM     27  C   UNL     1      10.671  11.581  17.710  0.00  0.00    +0.000 A 
ATOM     28  C   UNL     1      11.426  12.682  18.143  0.00  0.00    +0.000 A 
ATOM     29  C   UNL     1      10.762  13.685  18.809  0.00  0.00    +0.000 A 
ATOM     30  C   UNL     1       9.404  13.637  19.014  0.00  0.00    +0.000 A 
ATOM     31  C   UNL     1       8.635  12.573  18.576  0.00  0.00    +0.000 A 
ATOM     32  O   UNL     1       8.950  14.727  19.692  0.00  0.00    +0.000 OA
ATOM     33  C   UNL     1      10.191  15.418  19.958  0.00  0.00    +0.000 C 
ATOM     34  O   UNL     1      11.332  14.802  19.330  0.00  0.00    +0.000 OA
ENDBRANCH  24  26
ENDBRANCH  21  22
ENDBRANCH  20  21
ENDBRANCH   5  20
TORSDOF 7
ENDMDL
MODEL 4
REMARK VINA RESULT:      -8.2      4.413      6.246
REMARK  Name = 
REMARK  9 active torsions:
REMARK  status: ('A' for Active; 'I' for Inactive)
REMARK    1  A    between atoms: C_1  and  C_2
REMARK    2  A    between atoms: C_5  and  N_6
REMARK    3  A    between atoms: C_7  and  C_8
REMARK    4  A    between atoms: C_8  and  C_9
REMARK    5  A    between atoms: N_13  and  C_14
REMARK    6  A    between atoms: C_17  and  S_18
REMARK    7  A    between atoms: S_18  and  C_19
REMARK    8  A    between atoms: C_19  and  C_20
REMARK    9  A    between atoms: N_22  and  C_23
REMARK                            x       y       z     vdW  Elec       q    Type
REMARK                         _______ _______ _______ _____ _____    ______ ____
ROOT
ATOM      1  N   UNL     1       2.933   6.201  19.421  0.00  0.00    +0.000 N 
ATOM      2  C   UNL     1       2.309   5.520  20.474  0.00  0.00    +0.000 A 
ATOM      3  N   UNL     1       1.398   6.307  21.025  0.00  0.00    +0.000 NA
ATOM      4  N   UNL     1       1.370   7.489  20.355  0.00  0.00    +0.000 NA
ATOM      5  C   UNL     1       2.254   7.425  19.389  0.00  0.00    +0.000 A 
ENDROOT
BRANCH   1  10
ATOM      6  C   UNL     1       7.109   4.140  16.037  0.00  0.00    +0.000 C 
ATOM      7  C   UNL     1       6.044   4.748  16.901  0.00  0.00    +0.000 A 
ATOM      8  C   UNL     1       6.343   5.276  18.159  0.00  0.00    +0.000 A 
ATOM      9  C   UNL     1       5.327   5.770  18.989  0.00  0.00    +0.000 A 
ATOM     10  C   UNL     1       3.994   5.762  18.567  0.00  0.00    +0.000 A 
ATOM     11  C   UNL     1       3.712   5.279  17.281  0.00  0.00    +0.000 A 
ATOM     12  C   UNL     1       4.720   4.752  16.469  0.00  0.00    +0.000 A 
ENDBRANCH   1  10
BRANCH   2  13
ATOM     13  C   UNL     1       2.590   4.154  21.015  0.00  0.00    +0.000 C 
BRANCH  13  14
ATOM     14  C   UNL     1       2.876   3.074  20.013  0.00  0.00    +0.000 A 
ATOM     15  C   UNL     1       4.081   2.442  19.741  0.00  0.00    +0.000 A 
ATOM     16  C   UNL     1       3.907   1.627  18.601  0.00  0.00    +0.000 A 
ATOM     17  C   UNL     1       2.596   1.762  18.206  0.00  0.00    +0.000 A 
ATOM     18  N   UNL     1       1.970   2.612  19.081  0.00  0.00    +0.000 N 
ATOM     19  C   UNL     1       0.566   2.966  18.996  0.00  0.00    +0.000 C 
ENDBRANCH  13  14
ENDBRANCH   2  13
BRANCH   5  20
ATOM     20  S   UNL     1       2.396   8.647  18.152  0.00  0.00    +0.000 S 
BRANCH  20  21
ATOM     21  C   UNL     1       0.870   9.601  18.380  0.00  0.00    +0.000 C 
BRANCH  21  22
ATOM     22  C   UNL     1       1.180  10.964  18.992  0.00  0.00    +0.000 C 
ATOM     23  O   UNL     1       1.130  11.119  20.209  0.00  0.00    +0.000 OA
ATOM     24  N   UNL     1       1.536  11.940  18.066  0.00  0.00    +0.000 N 
ATOM     25  H   UNL     1       1.342  11.729  17.094  0.00  0.00    +0.000 HD
BRANCH  24  26
ATOM     26  C   UNL     1       1.930  13.269  18.359  0.00  0.00    +0.000 A 
ATOM     27  C   UNL     1       1.011  14.284  18.693  0.00  0.00    +0.000 A 
ATOM     28  C   UNL     1       1.428  15.604  18.926  0.00  0.00    +0.000 A 
ATOM     29  C   UNL     1       2.772  15.875  18.812  0.00  0.00    +0.000 A 
ATOM     30  C   UNL     1       3.683  14.889  18.519  0.00  0.00    +0.000 A 
ATOM     31  C   UNL     1       3.299  13.577  18.307  0.00  0.00    +0.000 A 
ATOM     32  O   UNL     1       4.955  15.371  18.453  0.00  0.00    +0.000 OA
ATOM     33  C   UNL     1       4.722  16.783  18.656  0.00  0.00    +0.000 C 
ATOM     34  O   UNL     1       3.349  17.094  18.965  0.00  0.00    +0.000 OA
ENDBRANCH  24  26
ENDBRANCH  21  22
ENDBRANCH  20  21
ENDBRANCH   5  20
TORSDOF 7
ENDMDL
MODEL 5
REMARK VINA RESULT:      -8.1      5.002      7.951
REMARK  Name = 
REMARK  9 active torsions:
REMARK  status: ('A' for Active; 'I' for Inactive)
REMARK    1  A    between atoms: C_1  and  C_2
REMARK    2  A    between atoms: C_5  and  N_6
REMARK    3  A    between atoms: C_7  and  C_8
REMARK    4  A    between atoms: C_8  and  C_9
REMARK    5  A    between atoms: N_13  and  C_14
REMARK    6  A    between atoms: C_17  and  S_18
REMARK    7  A    between atoms: S_18  and  C_19
REMARK    8  A    between atoms: C_19  and  C_20
REMARK    9  A    between atoms: N_22  and  C_23
REMARK                            x       y       z     vdW  Elec       q    Type
REMARK                         _______ _______ _______ _____ _____    ______ ____
ROOT
ATOM      1  N   UNL     1       2.906   6.101  19.489  0.00  0.00    +0.000 N 
ATOM      2  C   UNL     1       2.211   5.494  20.543  0.00  0.00    +0.000 A 
ATOM      3  N   UNL     1       1.351   6.359  21.055  0.00  0.00    +0.000 NA
ATOM      4  N   UNL     1       1.425   7.524  20.358  0.00  0.00    +0.000 NA
ATOM      5  C   UNL     1       2.322   7.371  19.414  0.00  0.00    +0.000 A 
ENDROOT
BRANCH   1  10
ATOM      6  C   UNL     1       7.202   4.241  16.139  0.00  0.00    +0.000 C 
ATOM      7  C   UNL     1       6.064   4.652  17.025  0.00  0.00    +0.000 A 
ATOM      8  C   UNL     1       4.741   4.604  16.579  0.00  0.00    +0.000 A 
ATOM      9  C   UNL     1       3.695   5.064  17.389  0.00  0.00    +0.000 A 
ATOM     10  C   UNL     1       3.950   5.565  18.669  0.00  0.00    +0.000 A 
ATOM     11  C   UNL     1       5.276   5.559  19.127  0.00  0.00    +0.000 A 
ATOM     12  C   UNL     1       6.323   5.135  18.306  0.00  0.00    +0.000 A 
ENDBRANCH   1  10
BRANCH   2  13
ATOM     13  C   UNL     1       2.378   4.124  21.120  0.00  0.00    +0.000 C 
BRANCH  13  14
ATOM     14  C   UNL     1       2.759   3.028  20.168  0.00  0.00    +0.000 A 
ATOM     15  C   UNL     1       3.993   2.417  20.001  0.00  0.00    +0.000 A 
ATOM     16  C   UNL     1       3.920   1.573  18.870  0.00  0.00    +0.000 A 
ATOM     17  C   UNL     1       2.641   1.673  18.375  0.00  0.00    +0.000 A 
ATOM     18  N   UNL     1       1.934   2.528  19.182  0.00  0.00    +0.000 N 
ATOM     19  C   UNL     1       0.535   2.851  18.983  0.00  0.00    +0.000 C 
ENDBRANCH  13  14
ENDBRANCH   2  13
BRANCH   5  20
ATOM     20  S   UNL     1       2.580   8.549  18.154  0.00  0.00    +0.000 S 
BRANCH  20  21
ATOM     21  C   UNL     1       0.894   9.129  17.820  0.00  0.00    +0.000 C 
BRANCH  21  22
ATOM     22  C   UNL     1       0.611  10.416  18.589  0.00  0.00    +0.000 C 
ATOM     23  O   UNL     1       1.325  11.402  18.426  0.00  0.00    +0.000 OA
ATOM     24  N   UNL     1      -0.503  10.353  19.421  0.00  0.00    +0.000 N 
ATOM     25  H   UNL     1      -0.873   9.427  19.607  0.00  0.00    +0.000 HD
BRANCH  24  26
ATOM     26  C   UNL     1      -1.027  11.413  20.201  0.00  0.00    +0.000 A 
ATOM     27  C   UNL     1      -2.042  12.275  19.739  0.00  0.00    +0.000 A 
ATOM     28  C   UNL     1      -2.502  13.349  20.517  0.00  0.00    +0.000 A 
ATOM     29  C   UNL     1      -1.923  13.535  21.750  0.00  0.00    +0.000 A 
ATOM     30  C   UNL     1      -0.955  12.684  22.226  0.00  0.00    +0.000 A 
ATOM     31  C   UNL     1      -0.500  11.605  21.488  0.00  0.00    +0.000 A 
ATOM     32  O   UNL     1      -0.517  13.048  23.464  0.00  0.00    +0.000 OA
ATOM     33  C   UNL     1      -1.262  14.269  23.667  0.00  0.00    +0.000 C 
ATOM     34  O   UNL     1      -2.214  14.537  22.619  0.00  0.00    +0.000 OA
ENDBRANCH  24  26
ENDBRANCH  21  22
ENDBRANCH  20  21
ENDBRANCH   5  20
TORSDOF 7
ENDMDL
MODEL 6
REMARK VINA RESULT:      -8.1      5.099      8.995
REMARK  Name = 
REMARK  9 active torsions:
REMARK  status: ('A' for Active; 'I' for Inactive)
REMARK    1  A    between atoms: C_1  and  C_2
REMARK    2  A    between atoms: C_5  and  N_6
REMARK    3  A    between atoms: C_7  and  C_8
REMARK    4  A    between atoms: C_8  and  C_9
REMARK    5  A    between atoms: N_13  and  C_14
REMARK    6  A    between atoms: C_17  and  S_18
REMARK    7  A    between atoms: S_18  and  C_19
REMARK    8  A    between atoms: C_19  and  C_20
REMARK    9  A    between atoms: N_22  and  C_23
REMARK                            x       y       z     vdW  Elec       q    Type
REMARK                         _______ _______ _______ _____ _____    ______ ____
ROOT
ATOM      1  N   UNL     1       2.680   6.933  19.092  0.00  0.00    +0.000 N 
ATOM      2  C   UNL     1       2.232   6.302  20.259  0.00  0.00    +0.000 A 
ATOM      3  N   UNL     1       1.451   7.133  20.931  0.00  0.00    +0.000 NA
ATOM      4  N   UNL     1       1.338   8.295  20.237  0.00  0.00    +0.000 NA
ATOM      5  C   UNL     1       2.038   8.176  19.136  0.00  0.00    +0.000 A 
ENDROOT
BRANCH   1  10
ATOM      6  C   UNL     1       6.354   4.733  15.244  0.00  0.00    +0.000 C 
ATOM      7  C   UNL     1       5.370   5.352  16.191  0.00  0.00    +0.000 A 
ATOM      8  C   UNL     1       5.587   6.619  16.739  0.00  0.00    +0.000 A 
ATOM      9  C   UNL     1       4.699   7.153  17.683  0.00  0.00    +0.000 A 
ATOM     10  C   UNL     1       3.566   6.437  18.082  0.00  0.00    +0.000 A 
ATOM     11  C   UNL     1       3.330   5.190  17.486  0.00  0.00    +0.000 A 
ATOM     12  C   UNL     1       4.235   4.641  16.573  0.00  0.00    +0.000 A 
ENDBRANCH   1  10
BRANCH   2  13
ATOM     13  C   UNL     1       2.567   4.944  20.789  0.00  0.00    +0.000 C 
BRANCH  13  14
ATOM     14  C   UNL     1       2.073   3.767  19.999  0.00  0.00    +0.000 A 
ATOM     15  C   UNL     1       0.787   3.508  19.545  0.00  0.00    +0.000 A 
ATOM     16  C   UNL     1       0.763   2.202  19.007  0.00  0.00    +0.000 A 
ATOM     17  C   UNL     1       2.034   1.692  19.128  0.00  0.00    +0.000 A 
ATOM     18  N   UNL     1       2.829   2.654  19.698  0.00  0.00    +0.000 N 
ATOM     19  C   UNL     1       4.246   2.481  19.952  0.00  0.00    +0.000 C 
ENDBRANCH  13  14
ENDBRANCH   2  13
BRANCH   5  20
ATOM     20  S   UNL     1       1.995   9.357  17.852  0.00  0.00    +0.000 S 
BRANCH  20  21
ATOM     21  C   UNL     1       1.798  10.910  18.769  0.00  0.00    +0.000 C 
BRANCH  21  22
ATOM     22  C   UNL     1       0.413  11.501  18.523  0.00  0.00    +0.000 C 
ATOM     23  O   UNL     1       0.284  12.705  18.311  0.00  0.00    +0.000 OA
ATOM     24  N   UNL     1      -0.619  10.568  18.534  0.00  0.00    +0.000 N 
ATOM     25  H   UNL     1      -0.396   9.656  18.917  0.00  0.00    +0.000 HD
BRANCH  24  26
ATOM     26  C   UNL     1      -1.988  10.829  18.278  0.00  0.00    +0.000 A 
ATOM     27  C   UNL     1      -2.676  10.294  17.171  0.00  0.00    +0.000 A 
ATOM     28  C   UNL     1      -4.018  10.614  16.916  0.00  0.00    +0.000 A 
ATOM     29  C   UNL     1      -4.642  11.478  17.786  0.00  0.00    +0.000 A 
ATOM     30  C   UNL     1      -3.993  11.983  18.887  0.00  0.00    +0.000 A 
ATOM     31  C   UNL     1      -2.677  11.664  19.172  0.00  0.00    +0.000 A 
ATOM     32  O   UNL     1      -4.789  12.817  19.612  0.00  0.00    +0.000 OA
ATOM     33  C   UNL     1      -5.979  12.838  18.793  0.00  0.00    +0.000 C 
ATOM     34  O   UNL     1      -5.918  11.927  17.677  0.00  0.00    +0.000 OA
ENDBRANCH  24  26
ENDBRANCH  21  22
ENDBRANCH  20  21
ENDBRANCH   5  20
TORSDOF 7
ENDMDL
MODEL 7
REMARK VINA RESULT:      -8.1      4.909      6.812
REMARK  Name = 
REMARK  9 active torsions:
REMARK  status: ('A' for Active; 'I' for Inactive)
REMARK    1  A    between atoms: C_1  and  C_2
REMARK    2  A    between atoms: C_5  and  N_6
REMARK    3  A    between atoms: C_7  and  C_8
REMARK    4  A    between atoms: C_8  and  C_9
REMARK    5  A    between atoms: N_13  and  C_14
REMARK    6  A    between atoms: C_17  and  S_18
REMARK    7  A    between atoms: S_18  and  C_19
REMARK    8  A    between atoms: C_19  and  C_20
REMARK    9  A    between atoms: N_22  and  C_23
REMARK                            x       y       z     vdW  Elec       q    Type
REMARK                         _______ _______ _______ _____ _____    ______ ____
ROOT
ATOM      1  N   UNL     1       2.916   6.078  19.448  0.00  0.00    +0.000 N 
ATOM      2  C   UNL     1       2.265   5.453  20.519  0.00  0.00    +0.000 A 
ATOM      3  N   UNL     1       1.402   6.298  21.059  0.00  0.00    +0.000 NA
ATOM      4  N   UNL     1       1.432   7.466  20.366  0.00  0.00    +0.000 NA
ATOM      5  C   UNL     1       2.304   7.336  19.395  0.00  0.00    +0.000 A 
ENDROOT
BRANCH   1  10
ATOM      6  C   UNL     1       7.152   4.318  15.969  0.00  0.00    +0.000 C 
ATOM      7  C   UNL     1       6.031   4.703  16.889  0.00  0.00    +0.000 A 
ATOM      8  C   UNL     1       4.698   4.640  16.476  0.00  0.00    +0.000 A 
ATOM      9  C   UNL     1       3.666   5.076  17.317  0.00  0.00    +0.000 A 
ATOM     10  C   UNL     1       3.947   5.566  18.596  0.00  0.00    +0.000 A 
ATOM     11  C   UNL     1       5.283   5.574  19.021  0.00  0.00    +0.000 A 
ATOM     12  C   UNL     1       6.316   5.175  18.168  0.00  0.00    +0.000 A 
ENDBRANCH   1  10
BRANCH   2  13
ATOM     13  C   UNL     1       2.477   4.084  21.086  0.00  0.00    +0.000 C 
BRANCH  13  14
ATOM     14  C   UNL     1       2.825   2.995  20.114  0.00  0.00    +0.000 A 
ATOM     15  C   UNL     1       4.052   2.381  19.905  0.00  0.00    +0.000 A 
ATOM     16  C   UNL     1       3.942   1.546  18.771  0.00  0.00    +0.000 A 
ATOM     17  C   UNL     1       2.648   1.651  18.317  0.00  0.00    +0.000 A 
ATOM     18  N   UNL     1       1.969   2.503  19.151  0.00  0.00    +0.000 N 
ATOM     19  C   UNL     1       0.565   2.830  18.999  0.00  0.00    +0.000 C 
ENDBRANCH  13  14
ENDBRANCH   2  13
BRANCH   5  20
ATOM     20  S   UNL     1       2.502   8.523  18.132  0.00  0.00    +0.000 S 
BRANCH  20  21
ATOM     21  C   UNL     1       0.934   9.432  18.213  0.00  0.00    +0.000 C 
BRANCH  21  22
ATOM     22  C   UNL     1       1.135  10.783  18.892  0.00  0.00    +0.000 C 
ATOM     23  O   UNL     1       1.149  10.861  20.118  0.00  0.00    +0.000 OA
ATOM     24  N   UNL     1       1.322  11.845  18.013  0.00  0.00    +0.000 N 
ATOM     25  H   UNL     1       1.088  11.670  17.041  0.00  0.00    +0.000 HD
BRANCH  24  26
ATOM     26  C   UNL     1       1.588  13.190  18.367  0.00  0.00    +0.000 A 
ATOM     27  C   UNL     1       2.893  13.710  18.476  0.00  0.00    +0.000 A 
ATOM     28  C   UNL     1       3.124  15.034  18.881  0.00  0.00    +0.000 A 
ATOM     29  C   UNL     1       2.027  15.809  19.176  0.00  0.00    +0.000 A 
ATOM     30  C   UNL     1       0.748  15.325  19.045  0.00  0.00    +0.000 A 
ATOM     31  C   UNL     1       0.494  14.031  18.626  0.00  0.00    +0.000 A 
ATOM     32  O   UNL     1      -0.188  16.253  19.388  0.00  0.00    +0.000 OA
ATOM     33  C   UNL     1       0.656  17.341  19.826  0.00  0.00    +0.000 C 
ATOM     34  O   UNL     1       2.060  17.093  19.616  0.00  0.00    +0.000 OA
ENDBRANCH  24  26
ENDBRANCH  21  22
ENDBRANCH  20  21
ENDBRANCH   5  20
TORSDOF 7
ENDMDL
MODEL 8
REMARK VINA RESULT:      -8.1      4.318      6.039
REMARK  Name = 
REMARK  9 active torsions:
REMARK  status: ('A' for Active; 'I' for Inactive)
REMARK    1  A    between atoms: C_1  and  C_2
REMARK    2  A    between atoms: C_5  and  N_6
REMARK    3  A    between atoms: C_7  and  C_8
REMARK    4  A    between atoms: C_8  and  C_9
REMARK    5  A    between atoms: N_13  and  C_14
REMARK    6  A    between atoms: C_17  and  S_18
REMARK    7  A    between atoms: S_18  and  C_19
REMARK    8  A    between atoms: C_19  and  C_20
REMARK    9  A    between atoms: N_22  and  C_23
REMARK                            x       y       z     vdW  Elec       q    Type
REMARK                         _______ _______ _______ _____ _____    ______ ____
ROOT
ATOM      1  N   UNL     1       2.614   6.685  19.243  0.00  0.00    +0.000 N 
ATOM      2  C   UNL     1       2.088   6.126  20.414  0.00  0.00    +0.000 A 
ATOM      3  N   UNL     1       1.361   7.034  21.043  0.00  0.00    +0.000 NA
ATOM      4  N   UNL     1       1.357   8.182  20.316  0.00  0.00    +0.000 NA
ATOM      5  C   UNL     1       2.073   7.976  19.237  0.00  0.00    +0.000 A 
ENDROOT
BRANCH   1  10
ATOM      6  C   UNL     1       6.128   4.049  15.522  0.00  0.00    +0.000 C 
ATOM      7  C   UNL     1       5.205   4.793  16.441  0.00  0.00    +0.000 A 
ATOM      8  C   UNL     1       5.650   5.886  17.188  0.00  0.00    +0.000 A 
ATOM      9  C   UNL     1       4.800   6.524  18.101  0.00  0.00    +0.000 A 
ATOM     10  C   UNL     1       3.481   6.092  18.270  0.00  0.00    +0.000 A 
ATOM     11  C   UNL     1       3.029   5.028  17.476  0.00  0.00    +0.000 A 
ATOM     12  C   UNL     1       3.887   4.368  16.593  0.00  0.00    +0.000 A 
ENDBRANCH   1  10
BRANCH   2  13
ATOM     13  C   UNL     1       2.300   4.760  20.988  0.00  0.00    +0.000 C 
BRANCH  13  14
ATOM     14  C   UNL     1       1.957   3.594  20.108  0.00  0.00    +0.000 A 
ATOM     15  C   UNL     1       0.712   3.203  19.637  0.00  0.00    +0.000 A 
ATOM     16  C   UNL     1       0.854   1.951  18.997  0.00  0.00    +0.000 A 
ATOM     17  C   UNL     1       2.183   1.607  19.077  0.00  0.00    +0.000 A 
ATOM     18  N   UNL     1       2.850   2.618  19.720  0.00  0.00    +0.000 N 
ATOM     19  C   UNL     1       4.281   2.616  19.957  0.00  0.00    +0.000 C 
ENDBRANCH  13  14
ENDBRANCH   2  13
BRANCH   5  20
ATOM     20  S   UNL     1       2.155   9.120  17.922  0.00  0.00    +0.000 S 
BRANCH  20  21
ATOM     21  C   UNL     1       0.756  10.218  18.282  0.00  0.00    +0.000 C 
BRANCH  21  22
ATOM     22  C   UNL     1       1.244  11.502  18.945  0.00  0.00    +0.000 C 
ATOM     23  O   UNL     1       1.297  11.583  20.170  0.00  0.00    +0.000 OA
ATOM     24  N   UNL     1       1.631  12.498  18.052  0.00  0.00    +0.000 N 
ATOM     25  H   UNL     1       1.348  12.369  17.087  0.00  0.00    +0.000 HD
BRANCH  24  26
ATOM     26  C   UNL     1       2.175  13.761  18.390  0.00  0.00    +0.000 A 
ATOM     27  C   UNL     1       1.379  14.868  18.745  0.00  0.00    +0.000 A 
ATOM     28  C   UNL     1       1.947  16.121  19.023  0.00  0.00    +0.000 A 
ATOM     29  C   UNL     1       3.315  16.234  18.930  0.00  0.00    +0.000 A 
ATOM     30  C   UNL     1       4.106  15.155  18.615  0.00  0.00    +0.000 A 
ATOM     31  C   UNL     1       3.572  13.905  18.359  0.00  0.00    +0.000 A 
ATOM     32  O   UNL     1       5.427  15.484  18.576  0.00  0.00    +0.000 OA
ATOM     33  C   UNL     1       5.361  16.907  18.820  0.00  0.00    +0.000 C 
ATOM     34  O   UNL     1       4.031  17.370  19.126  0.00  0.00    +0.000 OA
ENDBRANCH  24  26
ENDBRANCH  21  22
ENDBRANCH  20  21
ENDBRANCH   5  20
TORSDOF 7
ENDMDL
MODEL 9
REMARK VINA RESULT:      -8.0      4.951      6.510
REMARK  Name = 
REMARK  9 active torsions:
REMARK  status: ('A' for Active; 'I' for Inactive)
REMARK    1  A    between atoms: C_1  and  C_2
REMARK    2  A    between atoms: C_5  and  N_6
REMARK    3  A    between atoms: C_7  and  C_8
REMARK    4  A    between atoms: C_8  and  C_9
REMARK    5  A    between atoms: N_13  and  C_14
REMARK    6  A    between atoms: C_17  and  S_18
REMARK    7  A    between atoms: S_18  and  C_19
REMARK    8  A    between atoms: C_19  and  C_20
REMARK    9  A    between atoms: N_22  and  C_23
REMARK                            x       y       z     vdW  Elec       q    Type
REMARK                         _______ _______ _______ _____ _____    ______ ____
ROOT
ATOM      1  N   UNL     1       2.912   6.135  19.437  0.00  0.00    +0.000 N 
ATOM      2  C   UNL     1       2.259   5.522  20.513  0.00  0.00    +0.000 A 
ATOM      3  N   UNL     1       1.389   6.370  21.037  0.00  0.00    +0.000 NA
ATOM      4  N   UNL     1       1.416   7.529  20.327  0.00  0.00    +0.000 NA
ATOM      5  C   UNL     1       2.294   7.389  19.363  0.00  0.00    +0.000 A 
ENDROOT
BRANCH   1  10
ATOM      6  C   UNL     1       7.172   4.349  16.001  0.00  0.00    +0.000 C 
ATOM      7  C   UNL     1       6.046   4.741  16.911  0.00  0.00    +0.000 A 
ATOM      8  C   UNL     1       4.714   4.654  16.498  0.00  0.00    +0.000 A 
ATOM      9  C   UNL     1       3.676   5.096  17.328  0.00  0.00    +0.000 A 
ATOM     10  C   UNL     1       3.949   5.617  18.597  0.00  0.00    +0.000 A 
ATOM     11  C   UNL     1       5.285   5.649  19.023  0.00  0.00    +0.000 A 
ATOM     12  C   UNL     1       6.323   5.243  18.180  0.00  0.00    +0.000 A 
ENDBRANCH   1  10
BRANCH   2  13
ATOM     13  C   UNL     1       2.474   4.162  21.100  0.00  0.00    +0.000 C 
BRANCH  13  14
ATOM     14  C   UNL     1       2.837   3.062  20.146  0.00  0.00    +0.000 A 
ATOM     15  C   UNL     1       4.069   2.454  19.953  0.00  0.00    +0.000 A 
ATOM     16  C   UNL     1       3.973   1.602  18.830  0.00  0.00    +0.000 A 
ATOM     17  C   UNL     1       2.681   1.693  18.366  0.00  0.00    +0.000 A 
ATOM     18  N   UNL     1       1.991   2.551  19.184  0.00  0.00    +0.000 N 
ATOM     19  C   UNL     1       0.585   2.866  19.017  0.00  0.00    +0.000 C 
ENDBRANCH  13  14
ENDBRANCH   2  13
BRANCH   5  20
ATOM     20  S   UNL     1       2.492   8.560  18.085  0.00  0.00    +0.000 S 
BRANCH  20  21
ATOM     21  C   UNL     1       0.792   9.140  17.831  0.00  0.00    +0.000 C 
BRANCH  21  22
ATOM     22  C   UNL     1       0.641  10.577  18.321  0.00  0.00    +0.000 C 
ATOM     23  O   UNL     1      -0.472  11.025  18.586  0.00  0.00    +0.000 OA
ATOM     24  N   UNL     1       1.842  11.266  18.457  0.00  0.00    +0.000 N 
ATOM     25  H   UNL     1       2.653  10.845  18.017  0.00  0.00    +0.000 HD
BRANCH  24  26
ATOM     26  C   UNL     1       2.001  12.586  18.946  0.00  0.00    +0.000 A 
ATOM     27  C   UNL     1       2.210  13.696  18.103  0.00  0.00    +0.000 A 
ATOM     28  C   UNL     1       2.416  14.983  18.622  0.00  0.00    +0.000 A 
ATOM     29  C   UNL     1       2.413  15.125  19.990  0.00  0.00    +0.000 A 
ATOM     30  C   UNL     1       2.179  14.058  20.823  0.00  0.00    +0.000 A 
ATOM     31  C   UNL     1       1.951  12.783  20.335  0.00  0.00    +0.000 A 
ATOM     32  O   UNL     1       2.221  14.416  22.137  0.00  0.00    +0.000 OA
ATOM     33  C   UNL     1       2.588  15.809  22.028  0.00  0.00    +0.000 C 
ATOM     34  O   UNL     1       2.631  16.281  20.667  0.00  0.00    +0.000 OA
ENDBRANCH  24  26
ENDBRANCH  21  22
ENDBRANCH  20  21
ENDBRANCH   5  20
TORSDOF 7
ENDMDL
