MODEL 1
REMARK VINA RESULT:      -8.1      0.000      0.000
REMARK  Name = 
REMARK  3 active torsions:
REMARK  status: ('A' for Active; 'I' for Inactive)
REMARK    1  A    between atoms: N_3  and  C_4
REMARK    2  A    between atoms: C_15  and  C_16
REMARK    3  A    between atoms: C_16  and  C_17
REMARK                            x       y       z     vdW  Elec       q    Type
REMARK                         _______ _______ _______ _____ _____    ______ ____
ROOT
ATOM      1  O   UNL     1       3.434   4.640  19.910  0.00  0.00    +0.000 OA
ATOM      2  C   UNL     1       3.238   5.812  19.601  0.00  0.00    +0.000 C 
ATOM      3  N   UNL     1       3.881   6.479  18.592  0.00  0.00    +0.000 N 
ATOM      4  N   UNL     1       2.391   6.536  20.387  0.00  0.00    +0.000 N 
ATOM      5  C   UNL     1       1.824   7.771  20.227  0.00  0.00    +0.000 A 
ATOM      6  N   UNL     1       1.208   8.409  21.195  0.00  0.00    +0.000 NA
ATOM      7  N   UNL     1       0.693   9.623  20.779  0.00  0.00    +0.000 NA
ATOM      8  C   UNL     1       0.886   9.824  19.490  0.00  0.00    +0.000 A 
ATOM      9  S   UNL     1       1.753   8.559  18.717  0.00  0.00    +0.000 S 
ATOM     10  H   UNL     1       3.751   7.481  18.577  0.00  0.00    +0.000 HD
ATOM     11  H   UNL     1       2.143   6.070  21.250  0.00  0.00    +0.000 HD
ENDROOT
BRANCH   3  12
ATOM     12  C   UNL     1       4.856   5.977  17.707  0.00  0.00    +0.000 A 
ATOM     13  C   UNL     1       6.194   6.377  17.719  0.00  0.00    +0.000 A 
ATOM     14  C   UNL     1       7.090   5.867  16.776  0.00  0.00    +0.000 A 
ATOM     15  C   UNL     1       6.647   4.955  15.827  0.00  0.00    +0.000 A 
ATOM     16  F   UNL     1       7.502   4.482  14.913  0.00  0.00    +0.000 F 
ATOM     17  C   UNL     1       5.324   4.528  15.814  0.00  0.00    +0.000 A 
ATOM     18  C   UNL     1       4.431   5.031  16.762  0.00  0.00    +0.000 A 
ENDBRANCH   3  12
BRANCH   8  19
ATOM     19  C   UNL     1       0.380  11.000  18.719  0.00  0.00    +0.000 C 
BRANCH  19  20
ATOM     20  C   UNL     1      -1.069  10.871  18.321  0.00  0.00    +0.000 A 
ATOM     21  C   UNL     1      -1.495   9.841  17.471  0.00  0.00    +0.000 A 
ATOM     22  C   UNL     1      -2.844   9.719  17.130  0.00  0.00    +0.000 A 
ATOM     23  C   UNL     1      -3.783  10.618  17.639  0.00  0.00    +0.000 A 
ATOM     24  C   UNL     1      -3.370  11.644  18.487  0.00  0.00    +0.000 A 
ATOM     25  C   UNL     1      -2.024  11.763  18.818  0.00  0.00    +0.000 A 
ATOM     26  F   UNL     1      -1.647  12.755  19.637  0.00  0.00    +0.000 F 
ENDBRANCH  19  20
ENDBRANCH   8  19
TORSDOF 3
ENDMDL
MODEL 2
REMARK VINA RESULT:      -7.9      1.153      1.512
REMARK  Name = 
REMARK  3 active torsions:
REMARK  status: ('A' for Active; 'I' for Inactive)
REMARK    1  A    between atoms: N_3  and  C_4
REMARK    2  A    between atoms: C_15  and  C_16
REMARK    3  A    between atoms: C_16  and  C_17
REMARK                            x       y       z     vdW  Elec       q    Type
REMARK                         _______ _______ _______ _____ _____    ______ ____
ROOT
ATOM      1  O   UNL     1       2.962   4.339  20.409  0.00  0.00    +0.000 OA
ATOM      2  C   UNL     1       2.882   5.525  20.103  0.00  0.00    +0.000 C 
ATOM      3  N   UNL     1       3.656   6.152  19.163  0.00  0.00    +0.000 N 
ATOM      4  N   UNL     1       2.027   6.304  20.827  0.00  0.00    +0.000 N 
ATOM      5  C   UNL     1       1.570   7.580  20.639  0.00  0.00    +0.000 A 
ATOM      6  N   UNL     1       0.924   8.254  21.563  0.00  0.00    +0.000 NA
ATOM      7  N   UNL     1       0.539   9.507  21.125  0.00  0.00    +0.000 NA
ATOM      8  C   UNL     1       0.856   9.706  19.861  0.00  0.00    +0.000 A 
ATOM      9  S   UNL     1       1.688   8.386  19.143  0.00  0.00    +0.000 S 
ATOM     10  H   UNL     1       3.604   7.160  19.153  0.00  0.00    +0.000 HD
ATOM     11  H   UNL     1       1.673   5.850  21.658  0.00  0.00    +0.000 HD
ENDROOT
BRANCH   3  12
ATOM     12  C   UNL     1       4.662   5.585  18.355  0.00  0.00    +0.000 A 
ATOM     13  C   UNL     1       5.949   5.288  18.812  0.00  0.00    +0.000 A 
ATOM     14  C   UNL     1       6.906   4.771  17.936  0.00  0.00    +0.000 A 
ATOM     15  C   UNL     1       6.573   4.550  16.606  0.00  0.00    +0.000 A 
ATOM     16  F   UNL     1       7.497   4.073  15.763  0.00  0.00    +0.000 F 
ATOM     17  C   UNL     1       5.292   4.818  16.137  0.00  0.00    +0.000 A 
ATOM     18  C   UNL     1       4.333   5.325  17.016  0.00  0.00    +0.000 A 
ENDBRANCH   3  12
BRANCH   8  19
ATOM     19  C   UNL     1       0.506  10.925  19.068  0.00  0.00    +0.000 C 
BRANCH  19  20
ATOM     20  C   UNL     1      -0.965  11.030  18.757  0.00  0.00    +0.000 A 
ATOM     21  C   UNL     1      -1.788  11.925  19.455  0.00  0.00    +0.000 A 
ATOM     22  C   UNL     1      -3.145  12.028  19.139  0.00  0.00    +0.000 A 
ATOM     23  C   UNL     1      -3.692  11.249  18.119  0.00  0.00    +0.000 A 
ATOM     24  C   UNL     1      -2.882  10.357  17.417  0.00  0.00    +0.000 A 
ATOM     25  C   UNL     1      -1.533  10.255  17.741  0.00  0.00    +0.000 A 
ATOM     26  F   UNL     1      -0.769   9.394  17.054  0.00  0.00    +0.000 F 
ENDBRANCH  19  20
ENDBRANCH   8  19
TORSDOF 3
ENDMDL
MODEL 3
REMARK VINA RESULT:      -7.9      3.529      8.759
REMARK  Name = 
REMARK  3 active torsions:
REMARK  status: ('A' for Active; 'I' for Inactive)
REMARK    1  A    between atoms: N_3  and  C_4
REMARK    2  A    between atoms: C_15  and  C_16
REMARK    3  A    between atoms: C_16  and  C_17
REMARK                            x       y       z     vdW  Elec       q    Type
REMARK                         _______ _______ _______ _____ _____    ______ ____
ROOT
ATOM      1  O   UNL     1      -0.875  11.923  18.436  0.00  0.00    +0.000 OA
ATOM      2  C   UNL     1      -0.055  11.142  18.912  0.00  0.00    +0.000 C 
ATOM      3  N   UNL     1       0.283  11.062  20.237  0.00  0.00    +0.000 N 
ATOM      4  N   UNL     1       0.648  10.362  18.041  0.00  0.00    +0.000 N 
ATOM      5  C   UNL     1       1.476   9.290  18.236  0.00  0.00    +0.000 A 
ATOM      6  N   UNL     1       2.250   8.800  17.295  0.00  0.00    +0.000 NA
ATOM      7  N   UNL     1       2.967   7.699  17.725  0.00  0.00    +0.000 NA
ATOM      8  C   UNL     1       2.655   7.361  18.961  0.00  0.00    +0.000 A 
ATOM      9  S   UNL     1       1.498   8.400  19.689  0.00  0.00    +0.000 S 
ATOM     10  H   UNL     1       1.098  10.507  20.449  0.00  0.00    +0.000 HD
ATOM     11  H   UNL     1       0.539  10.636  17.074  0.00  0.00    +0.000 HD
ENDROOT
BRANCH   3  12
ATOM     12  C   UNL     1      -0.234  11.820  21.307  0.00  0.00    +0.000 A 
ATOM     13  C   UNL     1      -1.164  11.329  22.228  0.00  0.00    +0.000 A 
ATOM     14  C   UNL     1      -1.665  12.159  23.234  0.00  0.00    +0.000 A 
ATOM     15  C   UNL     1      -1.232  13.475  23.319  0.00  0.00    +0.000 A 
ATOM     16  F   UNL     1      -1.728  14.275  24.271  0.00  0.00    +0.000 F 
ATOM     17  C   UNL     1      -0.291  13.975  22.427  0.00  0.00    +0.000 A 
ATOM     18  C   UNL     1       0.216  13.143  21.427  0.00  0.00    +0.000 A 
ENDBRANCH   3  12
BRANCH   8  19
ATOM     19  C   UNL     1       3.193   6.170  19.687  0.00  0.00    +0.000 C 
BRANCH  19  20
ATOM     20  C   UNL     1       2.408   4.909  19.425  0.00  0.00    +0.000 A 
ATOM     21  C   UNL     1       1.442   4.458  20.336  0.00  0.00    +0.000 A 
ATOM     22  C   UNL     1       0.706   3.301  20.068  0.00  0.00    +0.000 A 
ATOM     23  C   UNL     1       0.918   2.589  18.887  0.00  0.00    +0.000 A 
ATOM     24  C   UNL     1       1.874   3.030  17.974  0.00  0.00    +0.000 A 
ATOM     25  C   UNL     1       2.608   4.180  18.250  0.00  0.00    +0.000 A 
ATOM     26  F   UNL     1       3.522   4.590  17.358  0.00  0.00    +0.000 F 
ENDBRANCH  19  20
ENDBRANCH   8  19
TORSDOF 3
ENDMDL
MODEL 4
REMARK VINA RESULT:      -7.8      0.570      1.073
REMARK  Name = 
REMARK  3 active torsions:
REMARK  status: ('A' for Active; 'I' for Inactive)
REMARK    1  A    between atoms: N_3  and  C_4
REMARK    2  A    between atoms: C_15  and  C_16
REMARK    3  A    between atoms: C_16  and  C_17
REMARK                            x       y       z     vdW  Elec       q    Type
REMARK                         _______ _______ _______ _____ _____    ______ ____
ROOT
ATOM      1  O   UNL     1       3.044   4.467  20.246  0.00  0.00    +0.000 OA
ATOM      2  C   UNL     1       2.923   5.645  19.922  0.00  0.00    +0.000 C 
ATOM      3  N   UNL     1       3.650   6.275  18.947  0.00  0.00    +0.000 N 
ATOM      4  N   UNL     1       2.071   6.414  20.659  0.00  0.00    +0.000 N 
ATOM      5  C   UNL     1       1.575   7.675  20.464  0.00  0.00    +0.000 A 
ATOM      6  N   UNL     1       0.940   8.348  21.396  0.00  0.00    +0.000 NA
ATOM      7  N   UNL     1       0.508   9.582  20.949  0.00  0.00    +0.000 NA
ATOM      8  C   UNL     1       0.779   9.766  19.672  0.00  0.00    +0.000 A 
ATOM      9  S   UNL     1       1.623   8.456  18.951  0.00  0.00    +0.000 S 
ATOM     10  H   UNL     1       3.571   7.281  18.921  0.00  0.00    +0.000 HD
ATOM     11  H   UNL     1       1.756   5.967  21.510  0.00  0.00    +0.000 HD
ENDROOT
BRANCH   3  12
ATOM     12  C   UNL     1       4.645   5.720  18.118  0.00  0.00    +0.000 A 
ATOM     13  C   UNL     1       4.406   5.255  16.822  0.00  0.00    +0.000 A 
ATOM     14  C   UNL     1       5.438   4.674  16.081  0.00  0.00    +0.000 A 
ATOM     15  C   UNL     1       6.706   4.563  16.635  0.00  0.00    +0.000 A 
ATOM     16  F   UNL     1       7.689   3.988  15.930  0.00  0.00    +0.000 F 
ATOM     17  C   UNL     1       6.970   5.041  17.913  0.00  0.00    +0.000 A 
ATOM     18  C   UNL     1       5.941   5.630  18.650  0.00  0.00    +0.000 A 
ENDBRANCH   3  12
BRANCH   8  19
ATOM     19  C   UNL     1       0.372  10.961  18.870  0.00  0.00    +0.000 C 
BRANCH  19  20
ATOM     20  C   UNL     1      -1.058  10.900  18.396  0.00  0.00    +0.000 A 
ATOM     21  C   UNL     1      -1.443  10.021  17.375  0.00  0.00    +0.000 A 
ATOM     22  C   UNL     1      -2.776   9.958  16.962  0.00  0.00    +0.000 A 
ATOM     23  C   UNL     1      -3.740  10.765  17.570  0.00  0.00    +0.000 A 
ATOM     24  C   UNL     1      -3.368  11.642  18.588  0.00  0.00    +0.000 A 
ATOM     25  C   UNL     1      -2.037  11.703  18.989  0.00  0.00    +0.000 A 
ATOM     26  F   UNL     1      -1.698  12.550  19.972  0.00  0.00    +0.000 F 
ENDBRANCH  19  20
ENDBRANCH   8  19
TORSDOF 3
ENDMDL
MODEL 5
REMARK VINA RESULT:      -7.8      2.238      8.172
REMARK  Name = 
REMARK  3 active torsions:
REMARK  status: ('A' for Active; 'I' for Inactive)
REMARK    1  A    between atoms: N_3  and  C_4
REMARK    2  A    between atoms: C_15  and  C_16
REMARK    3  A    between atoms: C_16  and  C_17
REMARK                            x       y       z     vdW  Elec       q    Type
REMARK                         _______ _______ _______ _____ _____    ______ ____
ROOT
ATOM      1  O   UNL     1       0.252   9.439  22.032  0.00  0.00    +0.000 OA
ATOM      2  C   UNL     1       0.710   8.834  21.067  0.00  0.00    +0.000 C 
ATOM      3  N   UNL     1       0.864   9.354  19.809  0.00  0.00    +0.000 N 
ATOM      4  N   UNL     1       0.992   7.509  21.233  0.00  0.00    +0.000 N 
ATOM      5  C   UNL     1       1.664   6.611  20.449  0.00  0.00    +0.000 A 
ATOM      6  N   UNL     1       1.644   5.316  20.664  0.00  0.00    +0.000 NA
ATOM      7  N   UNL     1       2.424   4.622  19.758  0.00  0.00    +0.000 NA
ATOM      8  C   UNL     1       3.056   5.431  18.930  0.00  0.00    +0.000 A 
ATOM      9  S   UNL     1       2.696   7.092  19.182  0.00  0.00    +0.000 S 
ATOM     10  H   UNL     1       1.077   8.686  19.082  0.00  0.00    +0.000 HD
ATOM     11  H   UNL     1       0.630   7.124  22.095  0.00  0.00    +0.000 HD
ENDROOT
BRANCH   3  12
ATOM     12  C   UNL     1       0.561  10.658  19.370  0.00  0.00    +0.000 A 
ATOM     13  C   UNL     1       1.473  11.716  19.391  0.00  0.00    +0.000 A 
ATOM     14  C   UNL     1       1.080  12.993  18.982  0.00  0.00    +0.000 A 
ATOM     15  C   UNL     1      -0.222  13.208  18.551  0.00  0.00    +0.000 A 
ATOM     16  F   UNL     1      -0.602  14.436  18.179  0.00  0.00    +0.000 F 
ATOM     17  C   UNL     1      -1.138  12.163  18.501  0.00  0.00    +0.000 A 
ATOM     18  C   UNL     1      -0.742  10.885  18.900  0.00  0.00    +0.000 A 
ENDBRANCH   3  12
BRANCH   8  19
ATOM     19  C   UNL     1       4.037   5.000  17.888  0.00  0.00    +0.000 C 
BRANCH  19  20
ATOM     20  C   UNL     1       5.399   5.623  18.059  0.00  0.00    +0.000 A 
ATOM     21  C   UNL     1       6.248   5.227  19.102  0.00  0.00    +0.000 A 
ATOM     22  C   UNL     1       7.517   5.796  19.233  0.00  0.00    +0.000 A 
ATOM     23  C   UNL     1       7.956   6.758  18.323  0.00  0.00    +0.000 A 
ATOM     24  C   UNL     1       7.120   7.158  17.281  0.00  0.00    +0.000 A 
ATOM     25  C   UNL     1       5.855   6.591  17.159  0.00  0.00    +0.000 A 
ATOM     26  F   UNL     1       5.067   6.986  16.149  0.00  0.00    +0.000 F 
ENDBRANCH  19  20
ENDBRANCH   8  19
TORSDOF 3
ENDMDL
MODEL 6
REMARK VINA RESULT:      -7.8      3.324      8.127
REMARK  Name = 
REMARK  3 active torsions:
REMARK  status: ('A' for Active; 'I' for Inactive)
REMARK    1  A    between atoms: N_3  and  C_4
REMARK    2  A    between atoms: C_15  and  C_16
REMARK    3  A    between atoms: C_16  and  C_17
REMARK                            x       y       z     vdW  Elec       q    Type
REMARK                         _______ _______ _______ _____ _____    ______ ____
ROOT
ATOM      1  O   UNL     1       2.098  10.232  17.733  0.00  0.00    +0.000 OA
ATOM      2  C   UNL     1       2.351   9.092  18.111  0.00  0.00    +0.000 C 
ATOM      3  N   UNL     1       1.896   8.527  19.273  0.00  0.00    +0.000 N 
ATOM      4  N   UNL     1       3.234   8.365  17.368  0.00  0.00    +0.000 N 
ATOM      5  C   UNL     1       3.584   7.043  17.398  0.00  0.00    +0.000 A 
ATOM      6  N   UNL     1       4.624   6.560  16.756  0.00  0.00    +0.000 NA
ATOM      7  N   UNL     1       4.751   5.194  16.915  0.00  0.00    +0.000 NA
ATOM      8  C   UNL     1       3.761   4.685  17.623  0.00  0.00    +0.000 A 
ATOM      9  S   UNL     1       2.637   5.860  18.177  0.00  0.00    +0.000 S 
ATOM     10  H   UNL     1       2.334   7.657  19.538  0.00  0.00    +0.000 HD
ATOM     11  H   UNL     1       3.722   8.912  16.671  0.00  0.00    +0.000 HD
ENDROOT
BRANCH   3  12
ATOM     12  C   UNL     1       1.053   9.106  20.243  0.00  0.00    +0.000 A 
ATOM     13  C   UNL     1       0.058  10.041  19.948  0.00  0.00    +0.000 A 
ATOM     14  C   UNL     1      -0.706  10.604  20.973  0.00  0.00    +0.000 A 
ATOM     15  C   UNL     1      -0.475  10.228  22.290  0.00  0.00    +0.000 A 
ATOM     16  F   UNL     1      -1.194  10.783  23.273  0.00  0.00    +0.000 F 
ATOM     17  C   UNL     1       0.495   9.282  22.601  0.00  0.00    +0.000 A 
ATOM     18  C   UNL     1       1.251   8.712  21.576  0.00  0.00    +0.000 A 
ENDBRANCH   3  12
BRANCH   8  19
ATOM     19  C   UNL     1       3.564   3.230  17.904  0.00  0.00    +0.000 C 
BRANCH  19  20
ATOM     20  C   UNL     1       2.823   2.968  19.191  0.00  0.00    +0.000 A 
ATOM     21  C   UNL     1       3.513   2.807  20.400  0.00  0.00    +0.000 A 
ATOM     22  C   UNL     1       2.812   2.589  21.589  0.00  0.00    +0.000 A 
ATOM     23  C   UNL     1       1.418   2.537  21.585  0.00  0.00    +0.000 A 
ATOM     24  C   UNL     1       0.722   2.698  20.388  0.00  0.00    +0.000 A 
ATOM     25  C   UNL     1       1.427   2.910  19.207  0.00  0.00    +0.000 A 
ATOM     26  F   UNL     1       0.740   3.065  18.066  0.00  0.00    +0.000 F 
ENDBRANCH  19  20
ENDBRANCH   8  19
TORSDOF 3
ENDMDL
MODEL 7
REMARK VINA RESULT:      -7.8      2.083      8.361
REMARK  Name = 
REMARK  3 active torsions:
REMARK  status: ('A' for Active; 'I' for Inactive)
REMARK    1  A    between atoms: N_3  and  C_4
REMARK    2  A    between atoms: C_15  and  C_16
REMARK    3  A    between atoms: C_16  and  C_17
REMARK                            x       y       z     vdW  Elec       q    Type
REMARK                         _______ _______ _______ _____ _____    ______ ____
ROOT
ATOM      1  O   UNL     1       1.170   9.044  22.026  0.00  0.00    +0.000 OA
ATOM      2  C   UNL     1       1.295   8.353  21.019  0.00  0.00    +0.000 C 
ATOM      3  N   UNL     1       1.068   8.778  19.737  0.00  0.00    +0.000 N 
ATOM      4  N   UNL     1       1.582   7.031  21.196  0.00  0.00    +0.000 N 
ATOM      5  C   UNL     1       1.958   6.051  20.319  0.00  0.00    +0.000 A 
ATOM      6  N   UNL     1       1.974   4.775  20.632  0.00  0.00    +0.000 NA
ATOM      7  N   UNL     1       2.421   3.985  19.589  0.00  0.00    +0.000 NA
ATOM      8  C   UNL     1       2.787   4.705  18.547  0.00  0.00    +0.000 A 
ATOM      9  S   UNL     1       2.563   6.394  18.763  0.00  0.00    +0.000 S 
ATOM     10  H   UNL     1       1.030   8.053  19.035  0.00  0.00    +0.000 HD
ATOM     11  H   UNL     1       1.493   6.723  22.156  0.00  0.00    +0.000 HD
ENDROOT
BRANCH   3  12
ATOM     12  C   UNL     1       0.676  10.062  19.309  0.00  0.00    +0.000 A 
ATOM     13  C   UNL     1       1.576  11.077  18.974  0.00  0.00    +0.000 A 
ATOM     14  C   UNL     1       1.108  12.340  18.604  0.00  0.00    +0.000 A 
ATOM     15  C   UNL     1      -0.258  12.584  18.566  0.00  0.00    +0.000 A 
ATOM     16  F   UNL     1      -0.705  13.800  18.230  0.00  0.00    +0.000 F 
ATOM     17  C   UNL     1      -1.170  11.581  18.873  0.00  0.00    +0.000 A 
ATOM     18  C   UNL     1      -0.702  10.316  19.233  0.00  0.00    +0.000 A 
ENDBRANCH   3  12
BRANCH   8  19
ATOM     19  C   UNL     1       3.390   4.157  17.293  0.00  0.00    +0.000 C 
BRANCH  19  20
ATOM     20  C   UNL     1       4.881   4.366  17.209  0.00  0.00    +0.000 A 
ATOM     21  C   UNL     1       5.652   4.537  18.367  0.00  0.00    +0.000 A 
ATOM     22  C   UNL     1       7.036   4.705  18.275  0.00  0.00    +0.000 A 
ATOM     23  C   UNL     1       7.664   4.697  17.029  0.00  0.00    +0.000 A 
ATOM     24  C   UNL     1       6.907   4.527  15.871  0.00  0.00    +0.000 A 
ATOM     25  C   UNL     1       5.528   4.365  15.971  0.00  0.00    +0.000 A 
ATOM     26  F   UNL     1       4.817   4.200  14.846  0.00  0.00    +0.000 F 
ENDBRANCH  19  20
ENDBRANCH   8  19
TORSDOF 3
ENDMDL
MODEL 8
REMARK VINA RESULT:      -7.7      3.259      8.261
REMARK  Name = 
REMARK  3 active torsions:
REMARK  status: ('A' for Active; 'I' for Inactive)
REMARK    1  A    between atoms: N_3  and  C_4
REMARK    2  A    between atoms: C_15  and  C_16
REMARK    3  A    between atoms: C_16  and  C_17
REMARK                            x       y       z     vdW  Elec       q    Type
REMARK                         _______ _______ _______ _____ _____    ______ ____
ROOT
ATOM      1  O   UNL     1       2.003  10.532  17.997  0.00  0.00    +0.000 OA
ATOM      2  C   UNL     1       2.221   9.368  18.321  0.00  0.00    +0.000 C 
ATOM      3  N   UNL     1       1.739   8.758  19.448  0.00  0.00    +0.000 N 
ATOM      4  N   UNL     1       3.093   8.656  17.551  0.00  0.00    +0.000 N 
ATOM      5  C   UNL     1       3.409   7.325  17.519  0.00  0.00    +0.000 A 
ATOM      6  N   UNL     1       4.442   6.848  16.863  0.00  0.00    +0.000 NA
ATOM      7  N   UNL     1       4.532   5.472  16.955  0.00  0.00    +0.000 NA
ATOM      8  C   UNL     1       3.521   4.955  17.626  0.00  0.00    +0.000 A 
ATOM      9  S   UNL     1       2.422   6.130  18.227  0.00  0.00    +0.000 S 
ATOM     10  H   UNL     1       2.151   7.865  19.674  0.00  0.00    +0.000 HD
ATOM     11  H   UNL     1       3.603   9.223  16.887  0.00  0.00    +0.000 HD
ENDROOT
BRANCH   3  12
ATOM     12  C   UNL     1       0.900   9.310  20.437  0.00  0.00    +0.000 A 
ATOM     13  C   UNL     1      -0.024  10.328  20.191  0.00  0.00    +0.000 A 
ATOM     14  C   UNL     1      -0.787  10.855  21.237  0.00  0.00    +0.000 A 
ATOM     15  C   UNL     1      -0.626  10.360  22.524  0.00  0.00    +0.000 A 
ATOM     16  F   UNL     1      -1.343  10.879  23.528  0.00  0.00    +0.000 F 
ATOM     17  C   UNL     1       0.272   9.331  22.785  0.00  0.00    +0.000 A 
ATOM     18  C   UNL     1       1.027   8.798  21.738  0.00  0.00    +0.000 A 
ENDBRANCH   3  12
BRANCH   8  19
ATOM     19  C   UNL     1       3.283   3.494  17.832  0.00  0.00    +0.000 C 
BRANCH  19  20
ATOM     20  C   UNL     1       2.655   3.176  19.165  0.00  0.00    +0.000 A 
ATOM     21  C   UNL     1       1.263   3.198  19.331  0.00  0.00    +0.000 A 
ATOM     22  C   UNL     1       0.694   2.878  20.566  0.00  0.00    +0.000 A 
ATOM     23  C   UNL     1       1.506   2.523  21.645  0.00  0.00    +0.000 A 
ATOM     24  C   UNL     1       2.891   2.495  21.490  0.00  0.00    +0.000 A 
ATOM     25  C   UNL     1       3.451   2.821  20.258  0.00  0.00    +0.000 A 
ATOM     26  F   UNL     1       4.785   2.786  20.128  0.00  0.00    +0.000 F 
ENDBRANCH  19  20
ENDBRANCH   8  19
TORSDOF 3
ENDMDL
MODEL 9
REMARK VINA RESULT:      -7.7      0.997      1.674
REMARK  Name = 
REMARK  3 active torsions:
REMARK  status: ('A' for Active; 'I' for Inactive)
REMARK    1  A    between atoms: N_3  and  C_4
REMARK    2  A    between atoms: C_15  and  C_16
REMARK    3  A    between atoms: C_16  and  C_17
REMARK                            x       y       z     vdW  Elec       q    Type
REMARK                         _______ _______ _______ _____ _____    ______ ____
ROOT
ATOM      1  O   UNL     1       3.289   4.536  19.921  0.00  0.00    +0.000 OA
ATOM      2  C   UNL     1       3.134   5.720  19.633  0.00  0.00    +0.000 C 
ATOM      3  N   UNL     1       3.816   6.390  18.653  0.00  0.00    +0.000 N 
ATOM      4  N   UNL     1       2.290   6.450  20.418  0.00  0.00    +0.000 N 
ATOM      5  C   UNL     1       1.762   7.705  20.273  0.00  0.00    +0.000 A 
ATOM      6  N   UNL     1       1.144   8.339  21.242  0.00  0.00    +0.000 NA
ATOM      7  N   UNL     1       0.673   9.576  20.843  0.00  0.00    +0.000 NA
ATOM      8  C   UNL     1       0.899   9.800  19.564  0.00  0.00    +0.000 A 
ATOM      9  S   UNL     1       1.746   8.527  18.781  0.00  0.00    +0.000 S 
ATOM     10  H   UNL     1       3.715   7.395  18.658  0.00  0.00    +0.000 HD
ATOM     11  H   UNL     1       2.011   5.974  21.265  0.00  0.00    +0.000 HD
ENDROOT
BRANCH   3  12
ATOM     12  C   UNL     1       4.795   5.879  17.778  0.00  0.00    +0.000 A 
ATOM     13  C   UNL     1       4.515   5.387  16.501  0.00  0.00    +0.000 A 
ATOM     14  C   UNL     1       5.537   4.853  15.712  0.00  0.00    +0.000 A 
ATOM     15  C   UNL     1       6.836   4.815  16.200  0.00  0.00    +0.000 A 
ATOM     16  F   UNL     1       7.810   4.285  15.450  0.00  0.00    +0.000 F 
ATOM     17  C   UNL     1       7.139   5.322  17.459  0.00  0.00    +0.000 A 
ATOM     18  C   UNL     1       6.120   5.864  18.243  0.00  0.00    +0.000 A 
ENDBRANCH   3  12
BRANCH   8  19
ATOM     19  C   UNL     1       0.443  11.006  18.808  0.00  0.00    +0.000 C 
BRANCH  19  20
ATOM     20  C   UNL     1      -1.054  11.067  18.632  0.00  0.00    +0.000 A 
ATOM     21  C   UNL     1      -1.831  11.971  19.369  0.00  0.00    +0.000 A 
ATOM     22  C   UNL     1      -3.213  12.033  19.178  0.00  0.00    +0.000 A 
ATOM     23  C   UNL     1      -3.833  11.200  18.245  0.00  0.00    +0.000 A 
ATOM     24  C   UNL     1      -3.069  10.299  17.505  0.00  0.00    +0.000 A 
ATOM     25  C   UNL     1      -1.693  10.239  17.705  0.00  0.00    +0.000 A 
ATOM     26  F   UNL     1      -0.975   9.367  16.983  0.00  0.00    +0.000 F 
ENDBRANCH  19  20
ENDBRANCH   8  19
TORSDOF 3
ENDMDL
