MODEL 1
REMARK VINA RESULT:      -6.2      0.000      0.000
REMARK  Name = 
REMARK  6 active torsions:
REMARK  status: ('A' for Active; 'I' for Inactive)
REMARK    1  A    between atoms: C_1  and  C_2
REMARK    2  A    between atoms: C_6  and  C_7
REMARK    3  A    between atoms: C_10  and  C_11
REMARK    4  A    between atoms: C_11  and  C_12
REMARK    5  A    between atoms: C_15  and  O_16
REMARK    6  A    between atoms: C_19  and  C_20
REMARK                            x       y       z     vdW  Elec       q    Type
REMARK                         _______ _______ _______ _____ _____    ______ ____
ROOT
ATOM      1  C   UNL     1       9.803  13.900  22.299  0.00  0.00    +0.000 C 
ATOM      2  C   UNL     1       8.649  13.470  21.425  0.00  0.00    +0.000 C 
ATOM      3  C   UNL     1       8.018  14.253  20.524  0.00  0.00    +0.000 C 
ATOM      4  C   UNL     1       8.641  15.478  19.943  0.00  0.00    +0.000 C 
ATOM      5  O   UNL     1       9.254  14.907  18.793  0.00  0.00    +0.000 OA
ATOM      6  C   UNL     1      10.254  15.677  18.146  0.00  0.00    +0.000 C 
ATOM      7  C   UNL     1      11.467  15.857  19.069  0.00  0.00    +0.000 C 
ATOM      8  C   UNL     1       9.646  17.068  17.788  0.00  0.00    +0.000 C 
ATOM      9  C   UNL     1       8.768  17.695  18.902  0.00  0.00    +0.000 C 
ATOM     10  C   UNL     1       7.780  16.666  19.512  0.00  0.00    +0.000 C 
ATOM     11  C   UNL     1      10.607  14.806  16.883  0.00  0.00    +0.000 C 
ATOM     12  C   UNL     1      11.710  13.717  17.025  0.00  0.00    +0.000 C 
ATOM     13  C   UNL     1      11.301  12.312  17.501  0.00  0.00    +0.000 C 
ATOM     14  C   UNL     1      11.089  12.023  18.985  0.00  0.00    +0.000 C 
ATOM     15  C   UNL     1      12.304  12.133  19.871  0.00  0.00    +0.000 C 
ATOM     16  C   UNL     1       9.899  11.558  19.425  0.00  0.00    +0.000 C 
ATOM     17  C   UNL     1       9.502  11.149  20.832  0.00  0.00    +0.000 C 
ATOM     18  C   UNL     1       8.343  11.985  21.433  0.00  0.00    +0.000 C 
ENDROOT
BRANCH  10  19
ATOM     19  C   UNL     1       6.951  17.243  20.653  0.00  0.00    +0.000 C 
ATOM     20  C   UNL     1       7.616  17.514  21.973  0.00  0.00    +0.000 C 
ATOM     21  C   UNL     1       5.611  17.906  20.371  0.00  0.00    +0.000 C 
ATOM     22  O   UNL     1       5.695  16.550  20.810  0.00  0.00    +0.000 OA
ENDBRANCH  10  19
BRANCH  11  23
ATOM     23  O   UNL     1      10.979  15.660  15.792  0.00  0.00    +0.000 OA
ATOM     24  H   UNL     1      11.889  15.961  15.942  0.00  0.00    +0.000 HD
ENDBRANCH  11  23
TORSDOF 2
ENDMDL
MODEL 2
REMARK VINA RESULT:      -5.7      9.667     12.218
REMARK  Name = 
REMARK  6 active torsions:
REMARK  status: ('A' for Active; 'I' for Inactive)
REMARK    1  A    between atoms: C_1  and  C_2
REMARK    2  A    between atoms: C_6  and  C_7
REMARK    3  A    between atoms: C_10  and  C_11
REMARK    4  A    between atoms: C_11  and  C_12
REMARK    5  A    between atoms: C_15  and  O_16
REMARK    6  A    between atoms: C_19  and  C_20
REMARK                            x       y       z     vdW  Elec       q    Type
REMARK                         _______ _______ _______ _____ _____    ______ ____
ROOT
ATOM      1  C   UNL     1       3.577   2.107  18.203  0.00  0.00    +0.000 C 
ATOM      2  C   UNL     1       4.492   2.722  19.234  0.00  0.00    +0.000 C 
ATOM      3  C   UNL     1       5.172   3.879  19.084  0.00  0.00    +0.000 C 
ATOM      4  C   UNL     1       4.776   4.924  18.095  0.00  0.00    +0.000 C 
ATOM      5  O   UNL     1       3.918   5.710  18.915  0.00  0.00    +0.000 OA
ATOM      6  C   UNL     1       3.049   6.616  18.254  0.00  0.00    +0.000 C 
ATOM      7  C   UNL     1       2.025   5.847  17.406  0.00  0.00    +0.000 C 
ATOM      8  C   UNL     1       3.908   7.543  17.342  0.00  0.00    +0.000 C 
ATOM      9  C   UNL     1       5.031   6.818  16.557  0.00  0.00    +0.000 C 
ATOM     10  C   UNL     1       5.826   5.834  17.455  0.00  0.00    +0.000 C 
ATOM     11  C   UNL     1       2.360   7.376  19.449  0.00  0.00    +0.000 C 
ATOM     12  C   UNL     1       1.066   6.768  20.060  0.00  0.00    +0.000 C 
ATOM     13  C   UNL     1       1.201   5.738  21.196  0.00  0.00    +0.000 C 
ATOM     14  C   UNL     1       1.516   4.276  20.888  0.00  0.00    +0.000 C 
ATOM     15  C   UNL     1       0.472   3.512  20.115  0.00  0.00    +0.000 C 
ATOM     16  C   UNL     1       2.614   3.691  21.415  0.00  0.00    +0.000 C 
ATOM     17  C   UNL     1       3.073   2.249  21.290  0.00  0.00    +0.000 C 
ATOM     18  C   UNL     1       4.454   2.079  20.606  0.00  0.00    +0.000 C 
ENDROOT
BRANCH  10  19
ATOM     19  C   UNL     1       6.893   5.061  16.690  0.00  0.00    +0.000 C 
ATOM     20  C   UNL     1       7.993   4.383  17.456  0.00  0.00    +0.000 C 
ATOM     21  C   UNL     1       6.649   4.636  15.249  0.00  0.00    +0.000 C 
ATOM     22  O   UNL     1       7.398   5.810  15.565  0.00  0.00    +0.000 OA
ENDBRANCH  10  19
BRANCH  11  23
ATOM     23  O   UNL     1       2.064   8.725  19.060  0.00  0.00    +0.000 OA
ATOM     24  H   UNL     1       1.532   8.694  18.249  0.00  0.00    +0.000 HD
ENDBRANCH  11  23
TORSDOF 2
ENDMDL
MODEL 3
REMARK VINA RESULT:      -5.6     10.444     12.681
REMARK  Name = 
REMARK  6 active torsions:
REMARK  status: ('A' for Active; 'I' for Inactive)
REMARK    1  A    between atoms: C_1  and  C_2
REMARK    2  A    between atoms: C_6  and  C_7
REMARK    3  A    between atoms: C_10  and  C_11
REMARK    4  A    between atoms: C_11  and  C_12
REMARK    5  A    between atoms: C_15  and  O_16
REMARK    6  A    between atoms: C_19  and  C_20
REMARK                            x       y       z     vdW  Elec       q    Type
REMARK                         _______ _______ _______ _____ _____    ______ ____
ROOT
ATOM      1  C   UNL     1      -3.281  14.659  20.898  0.00  0.00    +0.000 C 
ATOM      2  C   UNL     1      -3.654  13.295  21.427  0.00  0.00    +0.000 C 
ATOM      3  C   UNL     1      -3.967  12.223  20.669  0.00  0.00    +0.000 C 
ATOM      4  C   UNL     1      -3.555  12.098  19.240  0.00  0.00    +0.000 C 
ATOM      5  O   UNL     1      -2.312  11.426  19.411  0.00  0.00    +0.000 OA
ATOM      6  C   UNL     1      -1.421  11.428  18.307  0.00  0.00    +0.000 C 
ATOM      7  C   UNL     1      -0.946  12.859  18.012  0.00  0.00    +0.000 C 
ATOM      8  C   UNL     1      -2.172  10.849  17.070  0.00  0.00    +0.000 C 
ATOM      9  C   UNL     1      -3.630  11.352  16.904  0.00  0.00    +0.000 C 
ATOM     10  C   UNL     1      -4.412  11.315  18.243  0.00  0.00    +0.000 C 
ATOM     11  C   UNL     1      -0.240  10.515  18.807  0.00  0.00    +0.000 C 
ATOM     12  C   UNL     1       0.924  11.182  19.594  0.00  0.00    +0.000 C 
ATOM     13  C   UNL     1       0.795  11.325  21.121  0.00  0.00    +0.000 C 
ATOM     14  C   UNL     1      -0.018  12.464  21.731  0.00  0.00    +0.000 C 
ATOM     15  C   UNL     1       0.498  13.860  21.492  0.00  0.00    +0.000 C 
ATOM     16  C   UNL     1      -1.057  12.195  22.551  0.00  0.00    +0.000 C 
ATOM     17  C   UNL     1      -1.946  13.167  23.306  0.00  0.00    +0.000 C 
ATOM     18  C   UNL     1      -3.444  13.092  22.915  0.00  0.00    +0.000 C 
ENDROOT
BRANCH  10  19
ATOM     19  C   UNL     1      -5.827  11.865  18.119  0.00  0.00    +0.000 C 
ATOM     20  C   UNL     1      -6.065  13.083  17.272  0.00  0.00    +0.000 C 
ATOM     21  C   UNL     1      -7.023  11.001  18.491  0.00  0.00    +0.000 C 
ATOM     22  O   UNL     1      -6.483  11.960  19.401  0.00  0.00    +0.000 OA
ENDBRANCH  10  19
BRANCH  11  23
ATOM     23  O   UNL     1       0.334   9.812  17.696  0.00  0.00    +0.000 OA
ATOM     24  H   UNL     1       1.116  10.304  17.401  0.00  0.00    +0.000 HD
ENDBRANCH  11  23
TORSDOF 2
ENDMDL
MODEL 4
REMARK VINA RESULT:      -5.5      9.617     11.432
REMARK  Name = 
REMARK  6 active torsions:
REMARK  status: ('A' for Active; 'I' for Inactive)
REMARK    1  A    between atoms: C_1  and  C_2
REMARK    2  A    between atoms: C_6  and  C_7
REMARK    3  A    between atoms: C_10  and  C_11
REMARK    4  A    between atoms: C_11  and  C_12
REMARK    5  A    between atoms: C_15  and  O_16
REMARK    6  A    between atoms: C_19  and  C_20
REMARK                            x       y       z     vdW  Elec       q    Type
REMARK                         _______ _______ _______ _____ _____    ______ ____
ROOT
ATOM      1  C   UNL     1       2.467   4.856  21.309  0.00  0.00    +0.000 C 
ATOM      2  C   UNL     1       1.464   4.779  20.183  0.00  0.00    +0.000 C 
ATOM      3  C   UNL     1       1.438   5.589  19.104  0.00  0.00    +0.000 C 
ATOM      4  C   UNL     1       2.631   6.359  18.644  0.00  0.00    +0.000 C 
ATOM      5  O   UNL     1       3.183   5.414  17.734  0.00  0.00    +0.000 OA
ATOM      6  C   UNL     1       4.530   5.614  17.337  0.00  0.00    +0.000 C 
ATOM      7  C   UNL     1       5.469   5.448  18.540  0.00  0.00    +0.000 C 
ATOM      8  C   UNL     1       4.661   7.053  16.753  0.00  0.00    +0.000 C 
ATOM      9  C   UNL     1       3.907   8.147  17.553  0.00  0.00    +0.000 C 
ATOM     10  C   UNL     1       2.470   7.703  17.932  0.00  0.00    +0.000 C 
ATOM     11  C   UNL     1       4.752   4.481  16.265  0.00  0.00    +0.000 C 
ATOM     12  C   UNL     1       5.231   3.086  16.759  0.00  0.00    +0.000 C 
ATOM     13  C   UNL     1       4.174   2.052  17.184  0.00  0.00    +0.000 C 
ATOM     14  C   UNL     1       3.538   2.114  18.571  0.00  0.00    +0.000 C 
ATOM     15  C   UNL     1       4.458   1.880  19.743  0.00  0.00    +0.000 C 
ATOM     16  C   UNL     1       2.199   2.232  18.701  0.00  0.00    +0.000 C 
ATOM     17  C   UNL     1       1.366   2.247  19.971  0.00  0.00    +0.000 C 
ATOM     18  C   UNL     1       0.567   3.556  20.191  0.00  0.00    +0.000 C 
ENDROOT
BRANCH  10  19
ATOM     19  C   UNL     1       1.732   8.735  18.775  0.00  0.00    +0.000 C 
ATOM     20  C   UNL     1       1.554   8.484  20.246  0.00  0.00    +0.000 C 
ATOM     21  C   UNL     1       1.536  10.152  18.257  0.00  0.00    +0.000 C 
ATOM     22  O   UNL     1       0.507   9.168  18.147  0.00  0.00    +0.000 OA
ENDBRANCH  10  19
BRANCH  11  23
ATOM     23  O   UNL     1       5.680   4.931  15.268  0.00  0.00    +0.000 OA
ATOM     24  H   UNL     1       6.532   4.498  15.432  0.00  0.00    +0.000 HD
ENDBRANCH  11  23
TORSDOF 2
ENDMDL
MODEL 5
REMARK VINA RESULT:      -5.4      1.996      4.625
REMARK  Name = 
REMARK  6 active torsions:
REMARK  status: ('A' for Active; 'I' for Inactive)
REMARK    1  A    between atoms: C_1  and  C_2
REMARK    2  A    between atoms: C_6  and  C_7
REMARK    3  A    between atoms: C_10  and  C_11
REMARK    4  A    between atoms: C_11  and  C_12
REMARK    5  A    between atoms: C_15  and  O_16
REMARK    6  A    between atoms: C_19  and  C_20
REMARK                            x       y       z     vdW  Elec       q    Type
REMARK                         _______ _______ _______ _____ _____    ______ ____
ROOT
ATOM      1  C   UNL     1       7.651  16.456  19.580  0.00  0.00    +0.000 C 
ATOM      2  C   UNL     1       8.799  16.600  20.550  0.00  0.00    +0.000 C 
ATOM      3  C   UNL     1       9.326  15.602  21.289  0.00  0.00    +0.000 C 
ATOM      4  C   UNL     1       9.167  14.162  20.931  0.00  0.00    +0.000 C 
ATOM      5  O   UNL     1      10.334  13.987  20.136  0.00  0.00    +0.000 OA
ATOM      6  C   UNL     1      10.381  12.839  19.304  0.00  0.00    +0.000 C 
ATOM      7  C   UNL     1       9.296  12.924  18.221  0.00  0.00    +0.000 C 
ATOM      8  C   UNL     1      10.150  11.579  20.192  0.00  0.00    +0.000 C 
ATOM      9  C   UNL     1       9.032  11.734  21.256  0.00  0.00    +0.000 C 
ATOM     10  C   UNL     1       9.135  13.083  22.015  0.00  0.00    +0.000 C 
ATOM     11  C   UNL     1      11.827  12.912  18.685  0.00  0.00    +0.000 C 
ATOM     12  C   UNL     1      12.026  13.724  17.373  0.00  0.00    +0.000 C 
ATOM     13  C   UNL     1      12.326  15.230  17.475  0.00  0.00    +0.000 C 
ATOM     14  C   UNL     1      11.199  16.235  17.703  0.00  0.00    +0.000 C 
ATOM     15  C   UNL     1      10.178  16.359  16.600  0.00  0.00    +0.000 C 
ATOM     16  C   UNL     1      11.222  17.052  18.778  0.00  0.00    +0.000 C 
ATOM     17  C   UNL     1      10.248  18.154  19.153  0.00  0.00    +0.000 C 
ATOM     18  C   UNL     1       9.526  17.930  20.507  0.00  0.00    +0.000 C 
ENDROOT
BRANCH  10  19
ATOM     19  C   UNL     1       8.008  13.286  23.020  0.00  0.00    +0.000 C 
ATOM     20  C   UNL     1       6.615  13.534  22.514  0.00  0.00    +0.000 C 
ATOM     21  C   UNL     1       8.183  12.854  24.468  0.00  0.00    +0.000 C 
ATOM     22  O   UNL     1       8.378  14.210  24.065  0.00  0.00    +0.000 OA
ENDBRANCH  10  19
BRANCH  11  23
ATOM     23  O   UNL     1      12.325  11.587  18.456  0.00  0.00    +0.000 OA
ATOM     24  H   UNL     1      11.651  10.956  18.754  0.00  0.00    +0.000 HD
ENDBRANCH  11  23
TORSDOF 2
ENDMDL
MODEL 6
REMARK VINA RESULT:      -5.2      2.513      4.669
REMARK  Name = 
REMARK  6 active torsions:
REMARK  status: ('A' for Active; 'I' for Inactive)
REMARK    1  A    between atoms: C_1  and  C_2
REMARK    2  A    between atoms: C_6  and  C_7
REMARK    3  A    between atoms: C_10  and  C_11
REMARK    4  A    between atoms: C_11  and  C_12
REMARK    5  A    between atoms: C_15  and  O_16
REMARK    6  A    between atoms: C_19  and  C_20
REMARK                            x       y       z     vdW  Elec       q    Type
REMARK                         _______ _______ _______ _____ _____    ______ ____
ROOT
ATOM      1  C   UNL     1      10.743  12.496  21.102  0.00  0.00    +0.000 C 
ATOM      2  C   UNL     1       9.445  11.771  20.838  0.00  0.00    +0.000 C 
ATOM      3  C   UNL     1       8.270  12.025  21.452  0.00  0.00    +0.000 C 
ATOM      4  C   UNL     1       7.977  13.324  22.125  0.00  0.00    +0.000 C 
ATOM      5  O   UNL     1       7.387  14.026  21.036  0.00  0.00    +0.000 OA
ATOM      6  C   UNL     1       7.284  15.435  21.158  0.00  0.00    +0.000 C 
ATOM      7  C   UNL     1       8.682  16.069  21.197  0.00  0.00    +0.000 C 
ATOM      8  C   UNL     1       6.515  15.758  22.476  0.00  0.00    +0.000 C 
ATOM      9  C   UNL     1       6.928  14.892  23.694  0.00  0.00    +0.000 C 
ATOM     10  C   UNL     1       7.034  13.388  23.328  0.00  0.00    +0.000 C 
ATOM     11  C   UNL     1       6.495  15.843  19.858  0.00  0.00    +0.000 C 
ATOM     12  C   UNL     1       7.310  16.137  18.565  0.00  0.00    +0.000 C 
ATOM     13  C   UNL     1       7.646  14.966  17.624  0.00  0.00    +0.000 C 
ATOM     14  C   UNL     1       8.819  14.036  17.926  0.00  0.00    +0.000 C 
ATOM     15  C   UNL     1      10.193  14.656  17.892  0.00  0.00    +0.000 C 
ATOM     16  C   UNL     1       8.615  12.709  18.072  0.00  0.00    +0.000 C 
ATOM     17  C   UNL     1       9.639  11.612  18.307  0.00  0.00    +0.000 C 
ATOM     18  C   UNL     1       9.449  10.842  19.639  0.00  0.00    +0.000 C 
ENDROOT
BRANCH  10  19
ATOM     19  C   UNL     1       7.501  12.525  24.493  0.00  0.00    +0.000 C 
ATOM     20  C   UNL     1       8.707  12.953  25.281  0.00  0.00    +0.000 C 
ATOM     21  C   UNL     1       6.567  11.493  25.109  0.00  0.00    +0.000 C 
ATOM     22  O   UNL     1       7.552  11.126  24.142  0.00  0.00    +0.000 OA
ENDBRANCH  10  19
BRANCH  11  23
ATOM     23  O   UNL     1       5.678  16.992  20.126  0.00  0.00    +0.000 OA
ATOM     24  H   UNL     1       6.262  17.724  20.378  0.00  0.00    +0.000 HD
ENDBRANCH  11  23
TORSDOF 2
ENDMDL
MODEL 7
REMARK VINA RESULT:      -5.1      2.009      5.559
REMARK  Name = 
REMARK  6 active torsions:
REMARK  status: ('A' for Active; 'I' for Inactive)
REMARK    1  A    between atoms: C_1  and  C_2
REMARK    2  A    between atoms: C_6  and  C_7
REMARK    3  A    between atoms: C_10  and  C_11
REMARK    4  A    between atoms: C_11  and  C_12
REMARK    5  A    between atoms: C_15  and  O_16
REMARK    6  A    between atoms: C_19  and  C_20
REMARK                            x       y       z     vdW  Elec       q    Type
REMARK                         _______ _______ _______ _____ _____    ______ ____
ROOT
ATOM      1  C   UNL     1       7.057  12.511  22.718  0.00  0.00    +0.000 C 
ATOM      2  C   UNL     1       8.377  13.201  22.965  0.00  0.00    +0.000 C 
ATOM      3  C   UNL     1       9.280  13.522  22.015  0.00  0.00    +0.000 C 
ATOM      4  C   UNL     1       8.921  13.658  20.574  0.00  0.00    +0.000 C 
ATOM      5  O   UNL     1       8.613  15.047  20.537  0.00  0.00    +0.000 OA
ATOM      6  C   UNL     1       7.882  15.516  19.416  0.00  0.00    +0.000 C 
ATOM      7  C   UNL     1       6.474  14.901  19.405  0.00  0.00    +0.000 C 
ATOM      8  C   UNL     1       8.651  15.109  18.123  0.00  0.00    +0.000 C 
ATOM      9  C   UNL     1       9.227  13.669  18.140  0.00  0.00    +0.000 C 
ATOM     10  C   UNL     1       9.941  13.344  19.478  0.00  0.00    +0.000 C 
ATOM     11  C   UNL     1       7.834  17.072  19.653  0.00  0.00    +0.000 C 
ATOM     12  C   UNL     1       6.668  17.652  20.504  0.00  0.00    +0.000 C 
ATOM     13  C   UNL     1       6.840  17.733  22.032  0.00  0.00    +0.000 C 
ATOM     14  C   UNL     1       6.616  16.502  22.907  0.00  0.00    +0.000 C 
ATOM     15  C   UNL     1       5.214  15.949  22.942  0.00  0.00    +0.000 C 
ATOM     16  C   UNL     1       7.606  16.044  23.703  0.00  0.00    +0.000 C 
ATOM     17  C   UNL     1       7.574  14.889  24.689  0.00  0.00    +0.000 C 
ATOM     18  C   UNL     1       8.574  13.750  24.365  0.00  0.00    +0.000 C 
ENDROOT
BRANCH  10  19
ATOM     19  C   UNL     1      10.459  11.913  19.543  0.00  0.00    +0.000 C 
ATOM     20  C   UNL     1       9.472  10.781  19.573  0.00  0.00    +0.000 C 
ATOM     21  C   UNL     1      11.903  11.601  19.179  0.00  0.00    +0.000 C 
ATOM     22  O   UNL     1      11.492  11.758  20.538  0.00  0.00    +0.000 OA
ENDBRANCH  10  19
BRANCH  11  23
ATOM     23  O   UNL     1       7.833  17.755  18.392  0.00  0.00    +0.000 OA
ATOM     24  H   UNL     1       6.923  17.763  18.055  0.00  0.00    +0.000 HD
ENDBRANCH  11  23
TORSDOF 2
ENDMDL
MODEL 8
REMARK VINA RESULT:      -5.1      7.547     10.592
REMARK  Name = 
REMARK  6 active torsions:
REMARK  status: ('A' for Active; 'I' for Inactive)
REMARK    1  A    between atoms: C_1  and  C_2
REMARK    2  A    between atoms: C_6  and  C_7
REMARK    3  A    between atoms: C_10  and  C_11
REMARK    4  A    between atoms: C_11  and  C_12
REMARK    5  A    between atoms: C_15  and  O_16
REMARK    6  A    between atoms: C_19  and  C_20
REMARK                            x       y       z     vdW  Elec       q    Type
REMARK                         _______ _______ _______ _____ _____    ______ ____
ROOT
ATOM      1  C   UNL     1      -2.675  12.612  20.453  0.00  0.00    +0.000 C 
ATOM      2  C   UNL     1      -1.683  11.983  21.401  0.00  0.00    +0.000 C 
ATOM      3  C   UNL     1      -0.405  11.669  21.099  0.00  0.00    +0.000 C 
ATOM      4  C   UNL     1       0.333  12.298  19.964  0.00  0.00    +0.000 C 
ATOM      5  O   UNL     1       0.923  13.398  20.648  0.00  0.00    +0.000 OA
ATOM      6  C   UNL     1       1.429  14.456  19.851  0.00  0.00    +0.000 C 
ATOM      7  C   UNL     1       0.283  15.153  19.105  0.00  0.00    +0.000 C 
ATOM      8  C   UNL     1       2.445  13.859  18.830  0.00  0.00    +0.000 C 
ATOM      9  C   UNL     1       1.995  12.526  18.175  0.00  0.00    +0.000 C 
ATOM     10  C   UNL     1       1.425  11.529  19.218  0.00  0.00    +0.000 C 
ATOM     11  C   UNL     1       2.097  15.408  20.913  0.00  0.00    +0.000 C 
ATOM     12  C   UNL     1       1.211  16.498  21.583  0.00  0.00    +0.000 C 
ATOM     13  C   UNL     1       0.428  16.130  22.857  0.00  0.00    +0.000 C 
ATOM     14  C   UNL     1      -0.897  15.378  22.766  0.00  0.00    +0.000 C 
ATOM     15  C   UNL     1      -2.035  16.101  22.093  0.00  0.00    +0.000 C 
ATOM     16  C   UNL     1      -1.049  14.189  23.389  0.00  0.00    +0.000 C 
ATOM     17  C   UNL     1      -2.288  13.316  23.480  0.00  0.00    +0.000 C 
ATOM     18  C   UNL     1      -2.121  11.910  22.851  0.00  0.00    +0.000 C 
ENDROOT
BRANCH  10  19
ATOM     19  C   UNL     1       0.917  10.238  18.589  0.00  0.00    +0.000 C 
ATOM     20  C   UNL     1      -0.490  10.187  18.065  0.00  0.00    +0.000 C 
ATOM     21  C   UNL     1       1.897   9.169  18.130  0.00  0.00    +0.000 C 
ATOM     22  O   UNL     1       1.238   9.084  19.394  0.00  0.00    +0.000 OA
ENDBRANCH  10  19
BRANCH  11  23
ATOM     23  O   UNL     1       3.229  16.068  20.330  0.00  0.00    +0.000 OA
ATOM     24  H   UNL     1       3.231  16.989  20.635  0.00  0.00    +0.000 HD
ENDBRANCH  11  23
TORSDOF 2
ENDMDL
MODEL 9
REMARK VINA RESULT:      -5.0      2.790      5.229
REMARK  Name = 
REMARK  6 active torsions:
REMARK  status: ('A' for Active; 'I' for Inactive)
REMARK    1  A    between atoms: C_1  and  C_2
REMARK    2  A    between atoms: C_6  and  C_7
REMARK    3  A    between atoms: C_10  and  C_11
REMARK    4  A    between atoms: C_11  and  C_12
REMARK    5  A    between atoms: C_15  and  O_16
REMARK    6  A    between atoms: C_19  and  C_20
REMARK                            x       y       z     vdW  Elec       q    Type
REMARK                         _______ _______ _______ _____ _____    ______ ____
ROOT
ATOM      1  C   UNL     1      10.330  14.837  21.782  0.00  0.00    +0.000 C 
ATOM      2  C   UNL     1       9.809  13.508  21.292  0.00  0.00    +0.000 C 
ATOM      3  C   UNL     1       8.639  12.944  21.660  0.00  0.00    +0.000 C 
ATOM      4  C   UNL     1       7.508  13.734  22.228  0.00  0.00    +0.000 C 
ATOM      5  O   UNL     1       6.809  14.042  21.027  0.00  0.00    +0.000 OA
ATOM      6  C   UNL     1       5.851  15.086  21.088  0.00  0.00    +0.000 C 
ATOM      7  C   UNL     1       6.543  16.425  21.379  0.00  0.00    +0.000 C 
ATOM      8  C   UNL     1       4.835  14.754  22.223  0.00  0.00    +0.000 C 
ATOM      9  C   UNL     1       5.475  14.197  23.521  0.00  0.00    +0.000 C 
ATOM     10  C   UNL     1       6.533  13.102  23.224  0.00  0.00    +0.000 C 
ATOM     11  C   UNL     1       5.212  15.062  19.649  0.00  0.00    +0.000 C 
ATOM     12  C   UNL     1       5.885  15.909  18.531  0.00  0.00    +0.000 C 
ATOM     13  C   UNL     1       7.017  15.272  17.705  0.00  0.00    +0.000 C 
ATOM     14  C   UNL     1       8.441  15.210  18.253  0.00  0.00    +0.000 C 
ATOM     15  C   UNL     1       9.136  16.530  18.469  0.00  0.00    +0.000 C 
ATOM     16  C   UNL     1       9.065  14.020  18.393  0.00  0.00    +0.000 C 
ATOM     17  C   UNL     1      10.486  13.742  18.852  0.00  0.00    +0.000 C 
ATOM     18  C   UNL     1      10.580  12.889  20.143  0.00  0.00    +0.000 C 
ENDROOT
BRANCH  10  19
ATOM     19  C   UNL     1       7.223  12.586  24.481  0.00  0.00    +0.000 C 
ATOM     20  C   UNL     1       8.213  13.469  25.185  0.00  0.00    +0.000 C 
ATOM     21  C   UNL     1       6.648  11.398  25.239  0.00  0.00    +0.000 C 
ATOM     22  O   UNL     1       7.721  11.242  24.309  0.00  0.00    +0.000 OA
ENDBRANCH  10  19
BRANCH  11  23
ATOM     23  O   UNL     1       3.835  15.457  19.723  0.00  0.00    +0.000 OA
ATOM     24  H   UNL     1       3.603  15.570  20.658  0.00  0.00    +0.000 HD
ENDBRANCH  11  23
TORSDOF 2
ENDMDL
