MODEL 1
REMARK VINA RESULT:      -9.0      0.000      0.000
REMARK  Name = 
REMARK  9 active torsions:
REMARK  status: ('A' for Active; 'I' for Inactive)
REMARK    1  A    between atoms: C_1  and  C_2
REMARK    2  A    between atoms: C_3  and  C_4
REMARK    3  A    between atoms: N_6  and  C_7
REMARK    4  A    between atoms: C_10  and  N_11
REMARK    5  A    between atoms: N_14  and  C_15
REMARK    6  A    between atoms: C_18  and  C_19
REMARK    7  A    between atoms: C_21  and  C_22
REMARK    8  A    between atoms: C_27  and  N_28
REMARK    9  A    between atoms: C_33  and  C_34
REMARK                            x       y       z     vdW  Elec       q    Type
REMARK                         _______ _______ _______ _____ _____    ______ ____
ROOT
ATOM      1  N   UNL     1      -0.455  11.811  20.822  0.00  0.00    +0.000 N 
ATOM      2  C   UNL     1      -0.187  10.486  20.532  0.00  0.00    +0.000 C 
ATOM      3  O   UNL     1      -0.952   9.549  20.759  0.00  0.00    +0.000 OA
ATOM      4  N   UNL     1       1.065  10.326  19.960  0.00  0.00    +0.000 N 
ATOM      5  H   UNL     1       0.029  12.490  20.251  0.00  0.00    +0.000 HD
ATOM      6  H   UNL     1       1.765  10.963  20.307  0.00  0.00    +0.000 HD
ENDROOT
BRANCH   1  10
ATOM      7  C   UNL     1      -3.914  13.153  22.853  0.00  0.00    +0.000 A 
ATOM      8  C   UNL     1      -3.032  12.274  23.484  0.00  0.00    +0.000 A 
ATOM      9  C   UNL     1      -1.885  11.828  22.828  0.00  0.00    +0.000 A 
ATOM     10  C   UNL     1      -1.596  12.254  21.530  0.00  0.00    +0.000 A 
ATOM     11  C   UNL     1      -2.456  13.172  20.914  0.00  0.00    +0.000 A 
ATOM     12  C   UNL     1      -3.628  13.619  21.560  0.00  0.00    +0.000 A 
ATOM     13  C   UNL     1      -4.493  14.649  20.891  0.00  0.00    +0.000 C 
BRANCH   7  16
ATOM     14  C   UNL     1      -6.298  12.932  23.315  0.00  0.00    +0.000 C 
ATOM     15  O   UNL     1      -6.489  11.958  22.595  0.00  0.00    +0.000 OA
ATOM     16  N   UNL     1      -5.089  13.562  23.520  0.00  0.00    +0.000 N 
ATOM     17  H   UNL     1      -4.985  14.100  24.370  0.00  0.00    +0.000 HD
BRANCH  14  20
ATOM     18  C   UNL     1      -7.570  15.635  22.772  0.00  0.00    +0.000 C 
ATOM     19  C   UNL     1      -7.914  14.729  23.911  0.00  0.00    +0.000 C 
ATOM     20  C   UNL     1      -7.388  13.513  24.140  0.00  0.00    +0.000 C 
ENDBRANCH  14  20
ENDBRANCH   7  16
ENDBRANCH   1  10
BRANCH   4  21
ATOM     21  C   UNL     1       1.516   9.057  19.535  0.00  0.00    +0.000 A 
ATOM     22  C   UNL     1       1.814   8.035  20.436  0.00  0.00    +0.000 A 
ATOM     23  C   UNL     1       2.318   6.809  19.980  0.00  0.00    +0.000 A 
ATOM     24  C   UNL     1       2.523   6.563  18.610  0.00  0.00    +0.000 A 
ATOM     25  C   UNL     1       2.143   7.583  17.724  0.00  0.00    +0.000 A 
ATOM     26  C   UNL     1       1.666   8.822  18.173  0.00  0.00    +0.000 A 
BRANCH  24  27
ATOM     27  C   UNL     1       3.059   5.277  18.144  0.00  0.00    +0.000 A 
ATOM     28  C   UNL     1       4.100   5.174  17.189  0.00  0.00    +0.000 A 
ATOM     29  C   UNL     1       4.651   3.940  16.756  0.00  0.00    +0.000 A 
ATOM     30  C   UNL     1       5.753   3.941  15.730  0.00  0.00    +0.000 C 
ATOM     31  N   UNL     1       4.275   2.706  17.191  0.00  0.00    +0.000 NA
ATOM     32  C   UNL     1       3.264   2.747  18.102  0.00  0.00    +0.000 A 
ATOM     33  N   UNL     1       2.706   1.690  18.693  0.00  0.00    +0.000 NA
ATOM     34  O   UNL     1       1.730   2.210  19.521  0.00  0.00    +0.000 OA
ATOM     35  C   UNL     1       1.687   3.568  19.414  0.00  0.00    +0.000 A 
ATOM     36  C   UNL     1       2.679   3.979  18.547  0.00  0.00    +0.000 A 
BRANCH  35  37
ATOM     37  N   UNL     1       0.718   4.168  20.133  0.00  0.00    +0.000 N 
ATOM     38  H   UNL     1       0.331   5.034  19.771  0.00  0.00    +0.000 HD
ATOM     39  H   UNL     1       0.772   4.152  21.148  0.00  0.00    +0.000 HD
ENDBRANCH  35  37
ENDBRANCH  24  27
ENDBRANCH   4  21
TORSDOF 6
ENDMDL
MODEL 2
REMARK VINA RESULT:      -9.0      2.688     12.347
REMARK  Name = 
REMARK  9 active torsions:
REMARK  status: ('A' for Active; 'I' for Inactive)
REMARK    1  A    between atoms: C_1  and  C_2
REMARK    2  A    between atoms: C_3  and  C_4
REMARK    3  A    between atoms: N_6  and  C_7
REMARK    4  A    between atoms: C_10  and  N_11
REMARK    5  A    between atoms: N_14  and  C_15
REMARK    6  A    between atoms: C_18  and  C_19
REMARK    7  A    between atoms: C_21  and  C_22
REMARK    8  A    between atoms: C_27  and  N_28
REMARK    9  A    between atoms: C_33  and  C_34
REMARK                            x       y       z     vdW  Elec       q    Type
REMARK                         _______ _______ _______ _____ _____    ______ ____
ROOT
ATOM      1  N   UNL     1       2.758   6.188  20.278  0.00  0.00    +0.000 N 
ATOM      2  C   UNL     1       2.013   7.351  20.241  0.00  0.00    +0.000 C 
ATOM      3  O   UNL     1       1.781   8.004  19.224  0.00  0.00    +0.000 OA
ATOM      4  N   UNL     1       1.558   7.713  21.499  0.00  0.00    +0.000 N 
ATOM      5  H   UNL     1       2.546   5.556  21.038  0.00  0.00    +0.000 HD
ATOM      6  H   UNL     1       2.195   7.494  22.250  0.00  0.00    +0.000 HD
ENDROOT
BRANCH   1  10
ATOM      7  C   UNL     1       4.929   4.583  17.022  0.00  0.00    +0.000 A 
ATOM      8  C   UNL     1       3.534   4.558  17.009  0.00  0.00    +0.000 A 
ATOM      9  C   UNL     1       2.806   5.089  18.073  0.00  0.00    +0.000 A 
ATOM     10  C   UNL     1       3.458   5.657  19.169  0.00  0.00    +0.000 A 
ATOM     11  C   UNL     1       4.857   5.723  19.161  0.00  0.00    +0.000 A 
ATOM     12  C   UNL     1       5.606   5.176  18.099  0.00  0.00    +0.000 A 
ATOM     13  C   UNL     1       7.101   5.321  18.099  0.00  0.00    +0.000 C 
BRANCH   7  16
ATOM     14  C   UNL     1       5.960   4.722  14.816  0.00  0.00    +0.000 C 
ATOM     15  O   UNL     1       5.702   5.903  14.616  0.00  0.00    +0.000 OA
ATOM     16  N   UNL     1       5.648   4.006  15.953  0.00  0.00    +0.000 N 
ATOM     17  H   UNL     1       6.200   3.182  16.147  0.00  0.00    +0.000 HD
BRANCH  14  20
ATOM     18  C   UNL     1       4.806   3.616  12.234  0.00  0.00    +0.000 C 
ATOM     19  C   UNL     1       6.206   3.405  12.718  0.00  0.00    +0.000 C 
ATOM     20  C   UNL     1       6.741   3.922  13.838  0.00  0.00    +0.000 C 
ENDBRANCH  14  20
ENDBRANCH   7  16
ENDBRANCH   1  10
BRANCH   4  21
ATOM     21  C   UNL     1       0.729   8.842  21.679  0.00  0.00    +0.000 A 
ATOM     22  C   UNL     1       0.307   9.631  20.609  0.00  0.00    +0.000 A 
ATOM     23  C   UNL     1      -0.465  10.779  20.832  0.00  0.00    +0.000 A 
ATOM     24  C   UNL     1      -0.852  11.163  22.130  0.00  0.00    +0.000 A 
ATOM     25  C   UNL     1      -0.477  10.307  23.177  0.00  0.00    +0.000 A 
ATOM     26  C   UNL     1       0.320   9.174  22.965  0.00  0.00    +0.000 A 
BRANCH  24  27
ATOM     27  C   UNL     1      -1.655  12.373  22.353  0.00  0.00    +0.000 A 
ATOM     28  C   UNL     1      -3.027  12.337  22.703  0.00  0.00    +0.000 A 
ATOM     29  C   UNL     1      -3.805  13.497  22.954  0.00  0.00    +0.000 A 
ATOM     30  C   UNL     1      -5.259  13.348  23.314  0.00  0.00    +0.000 C 
ATOM     31  N   UNL     1      -3.355  14.780  22.907  0.00  0.00    +0.000 NA
ATOM     32  C   UNL     1      -2.043  14.873  22.560  0.00  0.00    +0.000 A 
ATOM     33  N   UNL     1      -1.347  16.005  22.441  0.00  0.00    +0.000 NA
ATOM     34  O   UNL     1      -0.077  15.612  22.067  0.00  0.00    +0.000 OA
ATOM     35  C   UNL     1      -0.013  14.256  21.941  0.00  0.00    +0.000 A 
ATOM     36  C   UNL     1      -1.236  13.718  22.285  0.00  0.00    +0.000 A 
BRANCH  35  37
ATOM     37  N   UNL     1       1.171  13.777  21.511  0.00  0.00    +0.000 N 
ATOM     38  H   UNL     1       1.830  14.440  21.112  0.00  0.00    +0.000 HD
ATOM     39  H   UNL     1       1.203  12.866  21.061  0.00  0.00    +0.000 HD
ENDBRANCH  35  37
ENDBRANCH  24  27
ENDBRANCH   4  21
TORSDOF 6
ENDMDL
MODEL 3
REMARK VINA RESULT:      -8.9      2.776     12.244
REMARK  Name = 
REMARK  9 active torsions:
REMARK  status: ('A' for Active; 'I' for Inactive)
REMARK    1  A    between atoms: C_1  and  C_2
REMARK    2  A    between atoms: C_3  and  C_4
REMARK    3  A    between atoms: N_6  and  C_7
REMARK    4  A    between atoms: C_10  and  N_11
REMARK    5  A    between atoms: N_14  and  C_15
REMARK    6  A    between atoms: C_18  and  C_19
REMARK    7  A    between atoms: C_21  and  C_22
REMARK    8  A    between atoms: C_27  and  N_28
REMARK    9  A    between atoms: C_33  and  C_34
REMARK                            x       y       z     vdW  Elec       q    Type
REMARK                         _______ _______ _______ _____ _____    ______ ____
ROOT
ATOM      1  N   UNL     1       2.585   6.323  20.288  0.00  0.00    +0.000 N 
ATOM      2  C   UNL     1       1.958   7.554  20.261  0.00  0.00    +0.000 C 
ATOM      3  O   UNL     1       1.845   8.262  19.261  0.00  0.00    +0.000 OA
ATOM      4  N   UNL     1       1.472   7.913  21.508  0.00  0.00    +0.000 N 
ATOM      5  H   UNL     1       2.273   5.688  21.009  0.00  0.00    +0.000 HD
ATOM      6  H   UNL     1       2.044   7.606  22.280  0.00  0.00    +0.000 HD
ENDROOT
BRANCH   1  10
ATOM      7  C   UNL     1       4.773   4.644  17.080  0.00  0.00    +0.000 A 
ATOM      8  C   UNL     1       3.378   4.595  17.073  0.00  0.00    +0.000 A 
ATOM      9  C   UNL     1       2.645   5.150  18.121  0.00  0.00    +0.000 A 
ATOM     10  C   UNL     1       3.291   5.766  19.195  0.00  0.00    +0.000 A 
ATOM     11  C   UNL     1       4.688   5.856  19.179  0.00  0.00    +0.000 A 
ATOM     12  C   UNL     1       5.443   5.286  18.133  0.00  0.00    +0.000 A 
ATOM     13  C   UNL     1       6.936   5.455  18.123  0.00  0.00    +0.000 C 
BRANCH   7  16
ATOM     14  C   UNL     1       5.837   4.741  14.888  0.00  0.00    +0.000 C 
ATOM     15  O   UNL     1       5.601   5.924  14.670  0.00  0.00    +0.000 OA
ATOM     16  N   UNL     1       5.498   4.043  16.028  0.00  0.00    +0.000 N 
ATOM     17  H   UNL     1       6.034   3.214  16.240  0.00  0.00    +0.000 HD
BRANCH  14  20
ATOM     18  C   UNL     1       4.710   3.639  12.292  0.00  0.00    +0.000 C 
ATOM     19  C   UNL     1       6.096   3.403  12.804  0.00  0.00    +0.000 C 
ATOM     20  C   UNL     1       6.620   3.918  13.931  0.00  0.00    +0.000 C 
ENDBRANCH  14  20
ENDBRANCH   7  16
ENDBRANCH   1  10
BRANCH   4  21
ATOM     21  C   UNL     1       0.746   9.110  21.691  0.00  0.00    +0.000 A 
ATOM     22  C   UNL     1       0.979  10.246  20.916  0.00  0.00    +0.000 A 
ATOM     23  C   UNL     1       0.282  11.435  21.168  0.00  0.00    +0.000 A 
ATOM     24  C   UNL     1      -0.682  11.519  22.190  0.00  0.00    +0.000 A 
ATOM     25  C   UNL     1      -0.948  10.338  22.902  0.00  0.00    +0.000 A 
ATOM     26  C   UNL     1      -0.234   9.154  22.676  0.00  0.00    +0.000 A 
BRANCH  24  27
ATOM     27  C   UNL     1      -1.401  12.773  22.451  0.00  0.00    +0.000 A 
ATOM     28  C   UNL     1      -1.146  13.591  23.579  0.00  0.00    +0.000 A 
ATOM     29  C   UNL     1      -1.810  14.821  23.825  0.00  0.00    +0.000 A 
ATOM     30  C   UNL     1      -1.468  15.612  25.059  0.00  0.00    +0.000 C 
ATOM     31  N   UNL     1      -2.758  15.385  23.027  0.00  0.00    +0.000 NA
ATOM     32  C   UNL     1      -3.053  14.631  21.934  0.00  0.00    +0.000 A 
ATOM     33  N   UNL     1      -3.939  14.944  20.988  0.00  0.00    +0.000 NA
ATOM     34  O   UNL     1      -3.905  13.891  20.095  0.00  0.00    +0.000 OA
ATOM     35  C   UNL     1      -3.021  12.940  20.511  0.00  0.00    +0.000 A 
ATOM     36  C   UNL     1      -2.408  13.376  21.668  0.00  0.00    +0.000 A 
BRANCH  35  37
ATOM     37  N   UNL     1      -2.966  11.835  19.742  0.00  0.00    +0.000 N 
ATOM     38  H   UNL     1      -2.940  10.935  20.211  0.00  0.00    +0.000 HD
ATOM     39  H   UNL     1      -2.413  11.853  18.888  0.00  0.00    +0.000 HD
ENDBRANCH  35  37
ENDBRANCH  24  27
ENDBRANCH   4  21
TORSDOF 6
ENDMDL
MODEL 4
REMARK VINA RESULT:      -8.6      1.063      1.558
REMARK  Name = 
REMARK  9 active torsions:
REMARK  status: ('A' for Active; 'I' for Inactive)
REMARK    1  A    between atoms: C_1  and  C_2
REMARK    2  A    between atoms: C_3  and  C_4
REMARK    3  A    between atoms: N_6  and  C_7
REMARK    4  A    between atoms: C_10  and  N_11
REMARK    5  A    between atoms: N_14  and  C_15
REMARK    6  A    between atoms: C_18  and  C_19
REMARK    7  A    between atoms: C_21  and  C_22
REMARK    8  A    between atoms: C_27  and  N_28
REMARK    9  A    between atoms: C_33  and  C_34
REMARK                            x       y       z     vdW  Elec       q    Type
REMARK                         _______ _______ _______ _____ _____    ______ ____
ROOT
ATOM      1  N   UNL     1      -0.629  11.941  20.720  0.00  0.00    +0.000 N 
ATOM      2  C   UNL     1      -0.382  10.633  20.346  0.00  0.00    +0.000 C 
ATOM      3  O   UNL     1      -1.243   9.761  20.235  0.00  0.00    +0.000 OA
ATOM      4  N   UNL     1       0.965  10.407  20.117  0.00  0.00    +0.000 N 
ATOM      5  H   UNL     1       0.041  12.623  20.394  0.00  0.00    +0.000 HD
ATOM      6  H   UNL     1       1.582  10.930  20.720  0.00  0.00    +0.000 HD
ENDROOT
BRANCH   1  10
ATOM      7  C   UNL     1      -4.363  13.386  22.084  0.00  0.00    +0.000 A 
ATOM      8  C   UNL     1      -3.998  13.551  20.747  0.00  0.00    +0.000 A 
ATOM      9  C   UNL     1      -2.773  13.074  20.283  0.00  0.00    +0.000 A 
ATOM     10  C   UNL     1      -1.890  12.422  21.145  0.00  0.00    +0.000 A 
ATOM     11  C   UNL     1      -2.275  12.215  22.476  0.00  0.00    +0.000 A 
ATOM     12  C   UNL     1      -3.505  12.706  22.962  0.00  0.00    +0.000 A 
ATOM     13  C   UNL     1      -3.908  12.412  24.380  0.00  0.00    +0.000 C 
BRANCH   7  16
ATOM     14  C   UNL     1      -5.684  15.172  23.091  0.00  0.00    +0.000 C 
ATOM     15  O   UNL     1      -4.766  15.977  23.206  0.00  0.00    +0.000 OA
ATOM     16  N   UNL     1      -5.591  13.910  22.543  0.00  0.00    +0.000 N 
ATOM     17  H   UNL     1      -6.442  13.496  22.187  0.00  0.00    +0.000 HD
BRANCH  14  20
ATOM     18  C   UNL     1      -7.639  16.599  21.258  0.00  0.00    +0.000 C 
ATOM     19  C   UNL     1      -7.916  16.190  22.670  0.00  0.00    +0.000 C 
ATOM     20  C   UNL     1      -7.074  15.522  23.478  0.00  0.00    +0.000 C 
ENDBRANCH  14  20
ENDBRANCH   7  16
ENDBRANCH   1  10
BRANCH   4  21
ATOM     21  C   UNL     1       1.429   9.151  19.670  0.00  0.00    +0.000 A 
ATOM     22  C   UNL     1       1.670   8.093  20.548  0.00  0.00    +0.000 A 
ATOM     23  C   UNL     1       2.188   6.880  20.075  0.00  0.00    +0.000 A 
ATOM     24  C   UNL     1       2.465   6.682  18.709  0.00  0.00    +0.000 A 
ATOM     25  C   UNL     1       2.141   7.738  17.842  0.00  0.00    +0.000 A 
ATOM     26  C   UNL     1       1.651   8.964  18.311  0.00  0.00    +0.000 A 
BRANCH  24  27
ATOM     27  C   UNL     1       3.016   5.409  18.225  0.00  0.00    +0.000 A 
ATOM     28  C   UNL     1       4.060   5.331  17.271  0.00  0.00    +0.000 A 
ATOM     29  C   UNL     1       4.624   4.109  16.821  0.00  0.00    +0.000 A 
ATOM     30  C   UNL     1       5.728   4.137  15.798  0.00  0.00    +0.000 C 
ATOM     31  N   UNL     1       4.260   2.865  17.237  0.00  0.00    +0.000 NA
ATOM     32  C   UNL     1       3.248   2.882  18.146  0.00  0.00    +0.000 A 
ATOM     33  N   UNL     1       2.699   1.810  18.720  0.00  0.00    +0.000 NA
ATOM     34  O   UNL     1       1.717   2.308  19.554  0.00  0.00    +0.000 OA
ATOM     35  C   UNL     1       1.659   3.667  19.467  0.00  0.00    +0.000 A 
ATOM     36  C   UNL     1       2.648   4.102  18.608  0.00  0.00    +0.000 A 
BRANCH  35  37
ATOM     37  N   UNL     1       0.683   4.246  20.193  0.00  0.00    +0.000 N 
ATOM     38  H   UNL     1      -0.188   4.467  19.719  0.00  0.00    +0.000 HD
ATOM     39  H   UNL     1       0.931   4.929  20.904  0.00  0.00    +0.000 HD
ENDBRANCH  35  37
ENDBRANCH  24  27
ENDBRANCH   4  21
TORSDOF 6
ENDMDL
MODEL 5
REMARK VINA RESULT:      -8.6      2.640     12.286
REMARK  Name = 
REMARK  9 active torsions:
REMARK  status: ('A' for Active; 'I' for Inactive)
REMARK    1  A    between atoms: C_1  and  C_2
REMARK    2  A    between atoms: C_3  and  C_4
REMARK    3  A    between atoms: N_6  and  C_7
REMARK    4  A    between atoms: C_10  and  N_11
REMARK    5  A    between atoms: N_14  and  C_15
REMARK    6  A    between atoms: C_18  and  C_19
REMARK    7  A    between atoms: C_21  and  C_22
REMARK    8  A    between atoms: C_27  and  N_28
REMARK    9  A    between atoms: C_33  and  C_34
REMARK                            x       y       z     vdW  Elec       q    Type
REMARK                         _______ _______ _______ _____ _____    ______ ____
ROOT
ATOM      1  N   UNL     1       2.745   6.230  20.376  0.00  0.00    +0.000 N 
ATOM      2  C   UNL     1       2.022   7.403  20.275  0.00  0.00    +0.000 C 
ATOM      3  O   UNL     1       1.871   8.047  19.237  0.00  0.00    +0.000 OA
ATOM      4  N   UNL     1       1.488   7.787  21.494  0.00  0.00    +0.000 N 
ATOM      5  H   UNL     1       2.472   5.611  21.126  0.00  0.00    +0.000 HD
ATOM      6  H   UNL     1       2.068   7.569  22.290  0.00  0.00    +0.000 HD
ENDROOT
BRANCH   1  10
ATOM      7  C   UNL     1       4.953   4.551  17.182  0.00  0.00    +0.000 A 
ATOM      8  C   UNL     1       5.542   5.508  18.009  0.00  0.00    +0.000 A 
ATOM      9  C   UNL     1       4.828   6.065  19.070  0.00  0.00    +0.000 A 
ATOM     10  C   UNL     1       3.512   5.675  19.324  0.00  0.00    +0.000 A 
ATOM     11  C   UNL     1       2.936   4.682  18.523  0.00  0.00    +0.000 A 
ATOM     12  C   UNL     1       3.641   4.121  17.438  0.00  0.00    +0.000 A 
ATOM     13  C   UNL     1       3.010   3.016  16.640  0.00  0.00    +0.000 C 
BRANCH   7  16
ATOM     14  C   UNL     1       5.911   4.766  14.950  0.00  0.00    +0.000 C 
ATOM     15  O   UNL     1       5.568   5.928  14.763  0.00  0.00    +0.000 OA
ATOM     16  N   UNL     1       5.680   4.027  16.091  0.00  0.00    +0.000 N 
ATOM     17  H   UNL     1       6.292   3.243  16.267  0.00  0.00    +0.000 HD
BRANCH  14  20
ATOM     18  C   UNL     1       4.763   3.582  12.401  0.00  0.00    +0.000 C 
ATOM     19  C   UNL     1       6.188   3.471  12.842  0.00  0.00    +0.000 C 
ATOM     20  C   UNL     1       6.718   4.025  13.948  0.00  0.00    +0.000 C 
ENDBRANCH  14  20
ENDBRANCH   7  16
ENDBRANCH   1  10
BRANCH   4  21
ATOM     21  C   UNL     1       0.665   8.930  21.603  0.00  0.00    +0.000 A 
ATOM     22  C   UNL     1       0.300   9.691  20.493  0.00  0.00    +0.000 A 
ATOM     23  C   UNL     1      -0.466  10.854  20.648  0.00  0.00    +0.000 A 
ATOM     24  C   UNL     1      -0.906  11.281  21.915  0.00  0.00    +0.000 A 
ATOM     25  C   UNL     1      -0.587  10.453  23.003  0.00  0.00    +0.000 A 
ATOM     26  C   UNL     1       0.205   9.305  22.860  0.00  0.00    +0.000 A 
BRANCH  24  27
ATOM     27  C   UNL     1      -1.702  12.506  22.067  0.00  0.00    +0.000 A 
ATOM     28  C   UNL     1      -3.100  12.496  22.298  0.00  0.00    +0.000 A 
ATOM     29  C   UNL     1      -3.875  13.670  22.480  0.00  0.00    +0.000 A 
ATOM     30  C   UNL     1      -5.357  13.548  22.715  0.00  0.00    +0.000 C 
ATOM     31  N   UNL     1      -3.400  14.945  22.469  0.00  0.00    +0.000 NA
ATOM     32  C   UNL     1      -2.061  15.014  22.235  0.00  0.00    +0.000 A 
ATOM     33  N   UNL     1      -1.337  16.132  22.174  0.00  0.00    +0.000 NA
ATOM     34  O   UNL     1      -0.047  15.716  21.910  0.00  0.00    +0.000 OA
ATOM     35  C   UNL     1       0.003  14.358  21.792  0.00  0.00    +0.000 A 
ATOM     36  C   UNL     1      -1.255  13.843  22.032  0.00  0.00    +0.000 A 
BRANCH  35  37
ATOM     37  N   UNL     1       1.210  13.857  21.466  0.00  0.00    +0.000 N 
ATOM     38  H   UNL     1       1.935  14.514  21.194  0.00  0.00    +0.000 HD
ATOM     39  H   UNL     1       1.260  12.978  20.956  0.00  0.00    +0.000 HD
ENDBRANCH  35  37
ENDBRANCH  24  27
ENDBRANCH   4  21
TORSDOF 6
ENDMDL
MODEL 6
REMARK VINA RESULT:      -8.5      1.627      1.791
REMARK  Name = 
REMARK  9 active torsions:
REMARK  status: ('A' for Active; 'I' for Inactive)
REMARK    1  A    between atoms: C_1  and  C_2
REMARK    2  A    between atoms: C_3  and  C_4
REMARK    3  A    between atoms: N_6  and  C_7
REMARK    4  A    between atoms: C_10  and  N_11
REMARK    5  A    between atoms: N_14  and  C_15
REMARK    6  A    between atoms: C_18  and  C_19
REMARK    7  A    between atoms: C_21  and  C_22
REMARK    8  A    between atoms: C_27  and  N_28
REMARK    9  A    between atoms: C_33  and  C_34
REMARK                            x       y       z     vdW  Elec       q    Type
REMARK                         _______ _______ _______ _____ _____    ______ ____
ROOT
ATOM      1  N   UNL     1      -1.348  11.910  19.024  0.00  0.00    +0.000 N 
ATOM      2  C   UNL     1      -0.752  10.692  19.289  0.00  0.00    +0.000 C 
ATOM      3  O   UNL     1      -1.236   9.814  20.004  0.00  0.00    +0.000 OA
ATOM      4  N   UNL     1       0.476  10.570  18.659  0.00  0.00    +0.000 N 
ATOM      5  H   UNL     1      -1.081  12.348  18.154  0.00  0.00    +0.000 HD
ATOM      6  H   UNL     1       0.996  11.432  18.593  0.00  0.00    +0.000 HD
ENDROOT
BRANCH   1  10
ATOM      7  C   UNL     1      -4.956  13.180  20.830  0.00  0.00    +0.000 A 
ATOM      8  C   UNL     1      -3.732  13.627  21.330  0.00  0.00    +0.000 A 
ATOM      9  C   UNL     1      -2.535  13.221  20.740  0.00  0.00    +0.000 A 
ATOM     10  C   UNL     1      -2.540  12.362  19.639  0.00  0.00    +0.000 A 
ATOM     11  C   UNL     1      -3.769  11.950  19.110  0.00  0.00    +0.000 A 
ATOM     12  C   UNL     1      -4.986  12.341  19.705  0.00  0.00    +0.000 A 
ATOM     13  C   UNL     1      -6.284  11.927  19.072  0.00  0.00    +0.000 C 
BRANCH   7  16
ATOM     14  C   UNL     1      -6.552  13.028  22.668  0.00  0.00    +0.000 C 
ATOM     15  O   UNL     1      -5.927  12.205  23.327  0.00  0.00    +0.000 OA
ATOM     16  N   UNL     1      -6.155  13.573  21.465  0.00  0.00    +0.000 N 
ATOM     17  H   UNL     1      -6.555  14.464  21.205  0.00  0.00    +0.000 HD
BRANCH  14  20
ATOM     18  C   UNL     1      -6.804  15.831  23.807  0.00  0.00    +0.000 C 
ATOM     19  C   UNL     1      -7.917  14.837  23.698  0.00  0.00    +0.000 C 
ATOM     20  C   UNL     1      -7.828  13.608  23.159  0.00  0.00    +0.000 C 
ENDBRANCH  14  20
ENDBRANCH   7  16
ENDBRANCH   1  10
BRANCH   4  21
ATOM     21  C   UNL     1       1.229   9.379  18.751  0.00  0.00    +0.000 A 
ATOM     22  C   UNL     1       1.399   8.699  19.958  0.00  0.00    +0.000 A 
ATOM     23  C   UNL     1       2.204   7.554  20.022  0.00  0.00    +0.000 A 
ATOM     24  C   UNL     1       2.849   7.045  18.880  0.00  0.00    +0.000 A 
ATOM     25  C   UNL     1       2.598   7.706  17.667  0.00  0.00    +0.000 A 
ATOM     26  C   UNL     1       1.818   8.869  17.600  0.00  0.00    +0.000 A 
BRANCH  24  27
ATOM     27  C   UNL     1       3.697   5.848  18.960  0.00  0.00    +0.000 A 
ATOM     28  C   UNL     1       5.010   5.793  18.432  0.00  0.00    +0.000 A 
ATOM     29  C   UNL     1       5.852   4.656  18.533  0.00  0.00    +0.000 A 
ATOM     30  C   UNL     1       7.231   4.701  17.931  0.00  0.00    +0.000 C 
ATOM     31  N   UNL     1       5.533   3.483  19.146  0.00  0.00    +0.000 NA
ATOM     32  C   UNL     1       4.273   3.476  19.660  0.00  0.00    +0.000 A 
ATOM     33  N   UNL     1       3.704   2.461  20.312  0.00  0.00    +0.000 NA
ATOM     34  O   UNL     1       2.435   2.902  20.633  0.00  0.00    +0.000 OA
ATOM     35  C   UNL     1       2.233   4.164  20.160  0.00  0.00    +0.000 A 
ATOM     36  C   UNL     1       3.394   4.606  19.559  0.00  0.00    +0.000 A 
BRANCH  35  37
ATOM     37  N   UNL     1       0.997   4.660  20.362  0.00  0.00    +0.000 N 
ATOM     38  H   UNL     1       0.605   5.258  19.640  0.00  0.00    +0.000 HD
ATOM     39  H   UNL     1       0.722   4.939  21.300  0.00  0.00    +0.000 HD
ENDBRANCH  35  37
ENDBRANCH  24  27
ENDBRANCH   4  21
TORSDOF 6
ENDMDL
MODEL 7
REMARK VINA RESULT:      -8.4      2.758     12.167
REMARK  Name = 
REMARK  9 active torsions:
REMARK  status: ('A' for Active; 'I' for Inactive)
REMARK    1  A    between atoms: C_1  and  C_2
REMARK    2  A    between atoms: C_3  and  C_4
REMARK    3  A    between atoms: N_6  and  C_7
REMARK    4  A    between atoms: C_10  and  N_11
REMARK    5  A    between atoms: N_14  and  C_15
REMARK    6  A    between atoms: C_18  and  C_19
REMARK    7  A    between atoms: C_21  and  C_22
REMARK    8  A    between atoms: C_27  and  N_28
REMARK    9  A    between atoms: C_33  and  C_34
REMARK                            x       y       z     vdW  Elec       q    Type
REMARK                         _______ _______ _______ _____ _____    ______ ____
ROOT
ATOM      1  N   UNL     1       2.663   6.296  20.387  0.00  0.00    +0.000 N 
ATOM      2  C   UNL     1       2.033   7.524  20.323  0.00  0.00    +0.000 C 
ATOM      3  O   UNL     1       1.947   8.217  19.309  0.00  0.00    +0.000 OA
ATOM      4  N   UNL     1       1.509   7.901  21.549  0.00  0.00    +0.000 N 
ATOM      5  H   UNL     1       2.332   5.671  21.109  0.00  0.00    +0.000 HD
ATOM      6  H   UNL     1       2.059   7.608  22.343  0.00  0.00    +0.000 HD
ENDROOT
BRANCH   1  10
ATOM      7  C   UNL     1       4.788   4.570  17.163  0.00  0.00    +0.000 A 
ATOM      8  C   UNL     1       5.405   5.525  17.972  0.00  0.00    +0.000 A 
ATOM      9  C   UNL     1       4.718   6.097  19.042  0.00  0.00    +0.000 A 
ATOM     10  C   UNL     1       3.403   5.725  19.324  0.00  0.00    +0.000 A 
ATOM     11  C   UNL     1       2.799   4.734  18.541  0.00  0.00    +0.000 A 
ATOM     12  C   UNL     1       3.476   4.157  17.447  0.00  0.00    +0.000 A 
ATOM     13  C   UNL     1       2.817   3.055  16.668  0.00  0.00    +0.000 C 
BRANCH   7  16
ATOM     14  C   UNL     1       5.772   4.783  14.942  0.00  0.00    +0.000 C 
ATOM     15  O   UNL     1       5.505   5.969  14.784  0.00  0.00    +0.000 OA
ATOM     16  N   UNL     1       5.487   4.030  16.061  0.00  0.00    +0.000 N 
ATOM     17  H   UNL     1       6.047   3.203  16.219  0.00  0.00    +0.000 HD
BRANCH  14  20
ATOM     18  C   UNL     1       4.543   3.645  12.409  0.00  0.00    +0.000 C 
ATOM     19  C   UNL     1       5.970   3.486  12.826  0.00  0.00    +0.000 C 
ATOM     20  C   UNL     1       6.537   4.018  13.923  0.00  0.00    +0.000 C 
ENDBRANCH  14  20
ENDBRANCH   7  16
ENDBRANCH   1  10
BRANCH   4  21
ATOM     21  C   UNL     1       0.774   9.098  21.692  0.00  0.00    +0.000 A 
ATOM     22  C   UNL     1       0.991  10.205  20.872  0.00  0.00    +0.000 A 
ATOM     23  C   UNL     1       0.284  11.397  21.084  0.00  0.00    +0.000 A 
ATOM     24  C   UNL     1      -0.672  11.511  22.110  0.00  0.00    +0.000 A 
ATOM     25  C   UNL     1      -0.921  10.357  22.869  0.00  0.00    +0.000 A 
ATOM     26  C   UNL     1      -0.198   9.172  22.683  0.00  0.00    +0.000 A 
BRANCH  24  27
ATOM     27  C   UNL     1      -1.400  12.768  22.328  0.00  0.00    +0.000 A 
ATOM     28  C   UNL     1      -1.116  13.651  23.399  0.00  0.00    +0.000 A 
ATOM     29  C   UNL     1      -1.789  14.884  23.601  0.00  0.00    +0.000 A 
ATOM     30  C   UNL     1      -1.414  15.747  24.776  0.00  0.00    +0.000 C 
ATOM     31  N   UNL     1      -2.775  15.390  22.810  0.00  0.00    +0.000 NA
ATOM     32  C   UNL     1      -3.098  14.572  21.772  0.00  0.00    +0.000 A 
ATOM     33  N   UNL     1      -4.024  14.821  20.844  0.00  0.00    +0.000 NA
ATOM     34  O   UNL     1      -4.007  13.719  20.011  0.00  0.00    +0.000 OA
ATOM     35  C   UNL     1      -3.094  12.805  20.445  0.00  0.00    +0.000 A 
ATOM     36  C   UNL     1      -2.445  13.313  21.552  0.00  0.00    +0.000 A 
BRANCH  35  37
ATOM     37  N   UNL     1      -3.049  11.660  19.736  0.00  0.00    +0.000 N 
ATOM     38  H   UNL     1      -2.750  11.718  18.767  0.00  0.00    +0.000 HD
ATOM     39  H   UNL     1      -3.765  10.955  19.888  0.00  0.00    +0.000 HD
ENDBRANCH  35  37
ENDBRANCH  24  27
ENDBRANCH   4  21
TORSDOF 6
ENDMDL
MODEL 8
REMARK VINA RESULT:      -8.4      0.877      1.205
REMARK  Name = 
REMARK  9 active torsions:
REMARK  status: ('A' for Active; 'I' for Inactive)
REMARK    1  A    between atoms: C_1  and  C_2
REMARK    2  A    between atoms: C_3  and  C_4
REMARK    3  A    between atoms: N_6  and  C_7
REMARK    4  A    between atoms: C_10  and  N_11
REMARK    5  A    between atoms: N_14  and  C_15
REMARK    6  A    between atoms: C_18  and  C_19
REMARK    7  A    between atoms: C_21  and  C_22
REMARK    8  A    between atoms: C_27  and  N_28
REMARK    9  A    between atoms: C_33  and  C_34
REMARK                            x       y       z     vdW  Elec       q    Type
REMARK                         _______ _______ _______ _____ _____    ______ ____
ROOT
ATOM      1  N   UNL     1      -0.389  11.604  21.203  0.00  0.00    +0.000 N 
ATOM      2  C   UNL     1      -0.132  10.336  20.720  0.00  0.00    +0.000 C 
ATOM      3  O   UNL     1      -0.984   9.465  20.546  0.00  0.00    +0.000 OA
ATOM      4  N   UNL     1       1.216  10.146  20.460  0.00  0.00    +0.000 N 
ATOM      5  H   UNL     1       0.269  12.320  20.928  0.00  0.00    +0.000 HD
ATOM      6  H   UNL     1       1.834  10.625  21.098  0.00  0.00    +0.000 HD
ENDROOT
BRANCH   1  10
ATOM      7  C   UNL     1      -4.198  12.874  22.534  0.00  0.00    +0.000 A 
ATOM      8  C   UNL     1      -3.294  12.317  23.439  0.00  0.00    +0.000 A 
ATOM      9  C   UNL     1      -2.032  11.901  23.015  0.00  0.00    +0.000 A 
ATOM     10  C   UNL     1      -1.651  12.033  21.679  0.00  0.00    +0.000 A 
ATOM     11  C   UNL     1      -2.541  12.634  20.779  0.00  0.00    +0.000 A 
ATOM     12  C   UNL     1      -3.825  13.046  21.191  0.00  0.00    +0.000 A 
ATOM     13  C   UNL     1      -4.727  13.740  20.211  0.00  0.00    +0.000 C 
BRANCH   7  16
ATOM     14  C   UNL     1      -5.686  14.392  23.729  0.00  0.00    +0.000 C 
ATOM     15  O   UNL     1      -4.825  15.200  24.059  0.00  0.00    +0.000 OA
ATOM     16  N   UNL     1      -5.484  13.255  22.975  0.00  0.00    +0.000 N 
ATOM     17  H   UNL     1      -6.282  12.878  22.483  0.00  0.00    +0.000 HD
BRANCH  14  20
ATOM     18  C   UNL     1      -7.536  16.183  22.119  0.00  0.00    +0.000 C 
ATOM     19  C   UNL     1      -7.916  15.436  23.357  0.00  0.00    +0.000 C 
ATOM     20  C   UNL     1      -7.119  14.608  24.057  0.00  0.00    +0.000 C 
ENDBRANCH  14  20
ENDBRANCH   7  16
ENDBRANCH   1  10
BRANCH   4  21
ATOM     21  C   UNL     1       1.689   8.936  19.906  0.00  0.00    +0.000 A 
ATOM     22  C   UNL     1       1.963   8.799  18.545  0.00  0.00    +0.000 A 
ATOM     23  C   UNL     1       2.373   7.565  18.022  0.00  0.00    +0.000 A 
ATOM     24  C   UNL     1       2.538   6.437  18.847  0.00  0.00    +0.000 A 
ATOM     25  C   UNL     1       2.328   6.626  20.222  0.00  0.00    +0.000 A 
ATOM     26  C   UNL     1       1.890   7.848  20.748  0.00  0.00    +0.000 A 
BRANCH  24  27
ATOM     27  C   UNL     1       2.960   5.146  18.286  0.00  0.00    +0.000 A 
ATOM     28  C   UNL     1       3.980   5.023  17.311  0.00  0.00    +0.000 A 
ATOM     29  C   UNL     1       4.421   3.780  16.787  0.00  0.00    +0.000 A 
ATOM     30  C   UNL     1       5.510   3.761  15.747  0.00  0.00    +0.000 C 
ATOM     31  N   UNL     1       3.947   2.555  17.142  0.00  0.00    +0.000 NA
ATOM     32  C   UNL     1       2.952   2.616  18.068  0.00  0.00    +0.000 A 
ATOM     33  N   UNL     1       2.312   1.571  18.595  0.00  0.00    +0.000 NA
ATOM     34  O   UNL     1       1.392   2.112  19.470  0.00  0.00    +0.000 OA
ATOM     35  C   UNL     1       1.462   3.473  19.457  0.00  0.00    +0.000 A 
ATOM     36  C   UNL     1       2.476   3.859  18.605  0.00  0.00    +0.000 A 
BRANCH  35  37
ATOM     37  N   UNL     1       0.553   4.100  20.230  0.00  0.00    +0.000 N 
ATOM     38  H   UNL     1       0.549   3.883  21.222  0.00  0.00    +0.000 HD
ATOM     39  H   UNL     1      -0.377   4.275  19.859  0.00  0.00    +0.000 HD
ENDBRANCH  35  37
ENDBRANCH  24  27
ENDBRANCH   4  21
TORSDOF 6
ENDMDL
MODEL 9
REMARK VINA RESULT:      -8.3      2.697     12.441
REMARK  Name = 
REMARK  9 active torsions:
REMARK  status: ('A' for Active; 'I' for Inactive)
REMARK    1  A    between atoms: C_1  and  C_2
REMARK    2  A    between atoms: C_3  and  C_4
REMARK    3  A    between atoms: N_6  and  C_7
REMARK    4  A    between atoms: C_10  and  N_11
REMARK    5  A    between atoms: N_14  and  C_15
REMARK    6  A    between atoms: C_18  and  C_19
REMARK    7  A    between atoms: C_21  and  C_22
REMARK    8  A    between atoms: C_27  and  N_28
REMARK    9  A    between atoms: C_33  and  C_34
REMARK                            x       y       z     vdW  Elec       q    Type
REMARK                         _______ _______ _______ _____ _____    ______ ____
ROOT
ATOM      1  N   UNL     1       2.727   6.706  19.784  0.00  0.00    +0.000 N 
ATOM      2  C   UNL     1       1.945   7.837  19.927  0.00  0.00    +0.000 C 
ATOM      3  O   UNL     1       1.699   8.638  19.025  0.00  0.00    +0.000 OA
ATOM      4  N   UNL     1       1.472   7.977  21.221  0.00  0.00    +0.000 N 
ATOM      5  H   UNL     1       2.530   5.954  20.430  0.00  0.00    +0.000 HD
ATOM      6  H   UNL     1       2.111   7.660  21.934  0.00  0.00    +0.000 HD
ENDROOT
BRANCH   1  10
ATOM      7  C   UNL     1       4.831   5.656  16.268  0.00  0.00    +0.000 A 
ATOM      8  C   UNL     1       4.792   6.988  16.686  0.00  0.00    +0.000 A 
ATOM      9  C   UNL     1       4.107   7.346  17.847  0.00  0.00    +0.000 A 
ATOM     10  C   UNL     1       3.450   6.382  18.612  0.00  0.00    +0.000 A 
ATOM     11  C   UNL     1       3.527   5.040  18.218  0.00  0.00    +0.000 A 
ATOM     12  C   UNL     1       4.203   4.665  17.039  0.00  0.00    +0.000 A 
ATOM     13  C   UNL     1       4.314   3.210  16.682  0.00  0.00    +0.000 C 
BRANCH   7  16
ATOM     14  C   UNL     1       6.816   4.916  15.061  0.00  0.00    +0.000 C 
ATOM     15  O   UNL     1       7.530   4.766  16.046  0.00  0.00    +0.000 OA
ATOM     16  N   UNL     1       5.497   5.320  15.070  0.00  0.00    +0.000 N 
ATOM     17  H   UNL     1       4.932   5.072  14.270  0.00  0.00    +0.000 HD
BRANCH  14  20
ATOM     18  C   UNL     1       5.145   3.467  12.980  0.00  0.00    +0.000 C 
ATOM     19  C   UNL     1       6.562   3.910  12.798  0.00  0.00    +0.000 C 
ATOM     20  C   UNL     1       7.300   4.588  13.695  0.00  0.00    +0.000 C 
ENDBRANCH  14  20
ENDBRANCH   7  16
ENDBRANCH   1  10
BRANCH   4  21
ATOM     21  C   UNL     1       0.606   9.037  21.571  0.00  0.00    +0.000 A 
ATOM     22  C   UNL     1       0.075   9.907  20.619  0.00  0.00    +0.000 A 
ATOM     23  C   UNL     1      -0.732  10.984  21.010  0.00  0.00    +0.000 A 
ATOM     24  C   UNL     1      -1.044  11.213  22.363  0.00  0.00    +0.000 A 
ATOM     25  C   UNL     1      -0.557  10.277  23.289  0.00  0.00    +0.000 A 
ATOM     26  C   UNL     1       0.274   9.215  22.909  0.00  0.00    +0.000 A 
BRANCH  24  27
ATOM     27  C   UNL     1      -1.884  12.351  22.763  0.00  0.00    +0.000 A 
ATOM     28  C   UNL     1      -3.216  12.205  23.223  0.00  0.00    +0.000 A 
ATOM     29  C   UNL     1      -4.026  13.291  23.644  0.00  0.00    +0.000 A 
ATOM     30  C   UNL     1      -5.433  13.027  24.110  0.00  0.00    +0.000 C 
ATOM     31  N   UNL     1      -3.648  14.598  23.676  0.00  0.00    +0.000 NA
ATOM     32  C   UNL     1      -2.378  14.797  23.230  0.00  0.00    +0.000 A 
ATOM     33  N   UNL     1      -1.754  15.973  23.157  0.00  0.00    +0.000 NA
ATOM     34  O   UNL     1      -0.504  15.689  22.642  0.00  0.00    +0.000 OA
ATOM     35  C   UNL     1      -0.383  14.356  22.388  0.00  0.00    +0.000 A 
ATOM     36  C   UNL     1      -1.542  13.719  22.784  0.00  0.00    +0.000 A 
BRANCH  35  37
ATOM     37  N   UNL     1       0.780  13.986  21.817  0.00  0.00    +0.000 N 
ATOM     38  H   UNL     1       0.740  13.306  21.064  0.00  0.00    +0.000 HD
ATOM     39  H   UNL     1       1.608  13.883  22.399  0.00  0.00    +0.000 HD
ENDBRANCH  35  37
ENDBRANCH  24  27
ENDBRANCH   4  21
TORSDOF 6
ENDMDL
