MODEL 1
REMARK VINA RESULT:      -7.8      0.000      0.000
REMARK  Name = 
REMARK  7 active torsions:
REMARK  status: ('A' for Active; 'I' for Inactive)
REMARK    1  A    between atoms: C_1  and  C_2
REMARK    2  A    between atoms: C_2  and  N_3
REMARK    3  A    between atoms: N_6  and  C_7
REMARK    4  A    between atoms: C_9  and  C_10
REMARK    5  A    between atoms: C_17  and  S_18
REMARK    6  A    between atoms: S_18  and  C_21
REMARK    7  A    between atoms: C_24  and  C_25
REMARK                            x       y       z     vdW  Elec       q    Type
REMARK                         _______ _______ _______ _____ _____    ______ ____
ROOT
ATOM      1  C   UNL     1       5.126   4.486  17.293  0.00  0.00    +0.000 A 
ATOM      2  O   UNL     1       4.891   4.104  15.992  0.00  0.00    +0.000 OA
ATOM      3  C   UNL     1       6.056   4.319  15.317  0.00  0.00    +0.000 A 
ATOM      4  N   UNL     1       7.020   4.807  16.071  0.00  0.00    +0.000 NA
ATOM      5  C   UNL     1       6.458   4.874  17.339  0.00  0.00    +0.000 A 
ENDROOT
BRANCH   1   9
ATOM      6  N   UNL     1       1.423   3.243  18.816  0.00  0.00    +0.000 NA
ATOM      7  C   UNL     1       1.585   4.306  17.802  0.00  0.00    +0.000 C 
ATOM      8  C   UNL     1       2.837   5.201  17.940  0.00  0.00    +0.000 C 
ATOM      9  N   UNL     1       4.057   4.408  18.129  0.00  0.00    +0.000 N 
ATOM     10  C   UNL     1       3.952   3.349  19.145  0.00  0.00    +0.000 C 
ATOM     11  C   UNL     1       2.699   2.482  18.881  0.00  0.00    +0.000 C 
BRANCH   6  13
ATOM     12  C   UNL     1       1.282   2.748  21.284  0.00  0.00    +0.000 C 
ATOM     13  C   UNL     1       1.056   3.741  20.150  0.00  0.00    +0.000 C 
ENDBRANCH   6  13
ENDBRANCH   1   9
BRANCH   3  14
ATOM     14  C   UNL     1       6.063   4.004  13.890  0.00  0.00    +0.000 A 
ATOM     15  C   UNL     1       7.193   4.219  13.090  0.00  0.00    +0.000 A 
ATOM     16  C   UNL     1       7.174   3.913  11.724  0.00  0.00    +0.000 A 
ATOM     17  C   UNL     1       6.021   3.385  11.145  0.00  0.00    +0.000 A 
ATOM     18  C   UNL     1       4.890   3.167  11.925  0.00  0.00    +0.000 A 
ATOM     19  C   UNL     1       4.912   3.475  13.291  0.00  0.00    +0.000 A 
ENDBRANCH   3  14
BRANCH   5  20
ATOM     20  S   UNL     1       7.378   5.394  18.712  0.00  0.00    +0.000 S 
ATOM     21  O   UNL     1       6.460   5.348  19.837  0.00  0.00    +0.000 OA
ATOM     22  O   UNL     1       8.599   4.614  18.702  0.00  0.00    +0.000 OA
BRANCH  20  23
ATOM     23  C   UNL     1       7.830   7.089  18.434  0.00  0.00    +0.000 A 
ATOM     24  C   UNL     1       8.740   7.689  19.311  0.00  0.00    +0.000 A 
ATOM     25  C   UNL     1       9.056   9.042  19.165  0.00  0.00    +0.000 A 
ATOM     26  C   UNL     1       8.463   9.802  18.149  0.00  0.00    +0.000 A 
ATOM     27  C   UNL     1       8.792  11.259  17.988  0.00  0.00    +0.000 C 
ATOM     28  C   UNL     1       7.558   9.186  17.272  0.00  0.00    +0.000 A 
ATOM     29  C   UNL     1       7.238   7.833  17.411  0.00  0.00    +0.000 A 
ENDBRANCH  20  23
ENDBRANCH   5  20
TORSDOF 5
ENDMDL
MODEL 2
REMARK VINA RESULT:      -7.4      8.683     10.686
REMARK  Name = 
REMARK  7 active torsions:
REMARK  status: ('A' for Active; 'I' for Inactive)
REMARK    1  A    between atoms: C_1  and  C_2
REMARK    2  A    between atoms: C_2  and  N_3
REMARK    3  A    between atoms: N_6  and  C_7
REMARK    4  A    between atoms: C_9  and  C_10
REMARK    5  A    between atoms: C_17  and  S_18
REMARK    6  A    between atoms: S_18  and  C_21
REMARK    7  A    between atoms: C_24  and  C_25
REMARK                            x       y       z     vdW  Elec       q    Type
REMARK                         _______ _______ _______ _____ _____    ______ ____
ROOT
ATOM      1  C   UNL     1      -0.882  11.404  18.954  0.00  0.00    +0.000 A 
ATOM      2  O   UNL     1      -0.343  10.194  18.582  0.00  0.00    +0.000 OA
ATOM      3  C   UNL     1       0.840  10.084  19.250  0.00  0.00    +0.000 A 
ATOM      4  N   UNL     1       1.109  11.119  20.020  0.00  0.00    +0.000 NA
ATOM      5  C   UNL     1       0.001  11.944  19.879  0.00  0.00    +0.000 A 
ENDROOT
BRANCH   1   9
ATOM      6  N   UNL     1      -4.762  10.994  17.421  0.00  0.00    +0.000 NA
ATOM      7  C   UNL     1      -3.539  10.618  16.683  0.00  0.00    +0.000 C 
ATOM      8  C   UNL     1      -2.297  11.509  16.915  0.00  0.00    +0.000 C 
ATOM      9  N   UNL     1      -2.050  11.739  18.342  0.00  0.00    +0.000 N 
ATOM     10  C   UNL     1      -3.236  12.136  19.117  0.00  0.00    +0.000 C 
ATOM     11  C   UNL     1      -4.397  11.149  18.854  0.00  0.00    +0.000 C 
BRANCH   6  13
ATOM     12  C   UNL     1      -6.755  12.532  17.565  0.00  0.00    +0.000 C 
ATOM     13  C   UNL     1      -5.409  12.216  16.922  0.00  0.00    +0.000 C 
ENDBRANCH   6  13
ENDBRANCH   1   9
BRANCH   3  14
ATOM     14  C   UNL     1       1.627   8.877  19.009  0.00  0.00    +0.000 A 
ATOM     15  C   UNL     1       2.322   8.673  17.810  0.00  0.00    +0.000 A 
ATOM     16  C   UNL     1       3.067   7.506  17.602  0.00  0.00    +0.000 A 
ATOM     17  C   UNL     1       3.125   6.531  18.596  0.00  0.00    +0.000 A 
ATOM     18  C   UNL     1       2.441   6.716  19.792  0.00  0.00    +0.000 A 
ATOM     19  C   UNL     1       1.696   7.885  19.997  0.00  0.00    +0.000 A 
ENDBRANCH   3  14
BRANCH   5  20
ATOM     20  S   UNL     1      -0.148  13.422  20.770  0.00  0.00    +0.000 S 
ATOM     21  O   UNL     1       1.112  13.581  21.475  0.00  0.00    +0.000 OA
ATOM     22  O   UNL     1      -0.617  14.418  19.830  0.00  0.00    +0.000 OA
BRANCH  20  23
ATOM     23  C   UNL     1      -1.431  13.185  21.976  0.00  0.00    +0.000 A 
ATOM     24  C   UNL     1      -1.516  11.950  22.627  0.00  0.00    +0.000 A 
ATOM     25  C   UNL     1      -2.559  11.708  23.523  0.00  0.00    +0.000 A 
ATOM     26  C   UNL     1      -3.524  12.693  23.769  0.00  0.00    +0.000 A 
ATOM     27  C   UNL     1      -4.654  12.439  24.726  0.00  0.00    +0.000 C 
ATOM     28  C   UNL     1      -3.424  13.929  23.115  0.00  0.00    +0.000 A 
ATOM     29  C   UNL     1      -2.381  14.180  22.219  0.00  0.00    +0.000 A 
ENDBRANCH  20  23
ENDBRANCH   5  20
TORSDOF 5
ENDMDL
MODEL 3
REMARK VINA RESULT:      -7.3      8.234     10.360
REMARK  Name = 
REMARK  7 active torsions:
REMARK  status: ('A' for Active; 'I' for Inactive)
REMARK    1  A    between atoms: C_1  and  C_2
REMARK    2  A    between atoms: C_2  and  N_3
REMARK    3  A    between atoms: N_6  and  C_7
REMARK    4  A    between atoms: C_9  and  C_10
REMARK    5  A    between atoms: C_17  and  S_18
REMARK    6  A    between atoms: S_18  and  C_21
REMARK    7  A    between atoms: C_24  and  C_25
REMARK                            x       y       z     vdW  Elec       q    Type
REMARK                         _______ _______ _______ _____ _____    ______ ____
ROOT
ATOM      1  C   UNL     1      -0.996  11.403  20.833  0.00  0.00    +0.000 A 
ATOM      2  O   UNL     1      -1.861  11.676  19.799  0.00  0.00    +0.000 OA
ATOM      3  C   UNL     1      -1.704  10.668  18.895  0.00  0.00    +0.000 A 
ATOM      4  N   UNL     1      -0.811   9.769  19.259  0.00  0.00    +0.000 NA
ATOM      5  C   UNL     1      -0.388  10.198  20.510  0.00  0.00    +0.000 A 
ENDROOT
BRANCH   1   9
ATOM      6  N   UNL     1      -2.249  14.524  23.336  0.00  0.00    +0.000 NA
ATOM      7  C   UNL     1      -1.640  14.726  22.005  0.00  0.00    +0.000 C 
ATOM      8  C   UNL     1      -0.538  13.722  21.595  0.00  0.00    +0.000 C 
ATOM      9  N   UNL     1      -0.953  12.334  21.824  0.00  0.00    +0.000 N 
ATOM     10  C   UNL     1      -1.547  12.078  23.144  0.00  0.00    +0.000 C 
ATOM     11  C   UNL     1      -2.671  13.102  23.430  0.00  0.00    +0.000 C 
BRANCH   6  13
ATOM     12  C   UNL     1      -2.062  15.522  25.644  0.00  0.00    +0.000 C 
ATOM     13  C   UNL     1      -1.362  14.870  24.457  0.00  0.00    +0.000 C 
ENDBRANCH   6  13
ENDBRANCH   1   9
BRANCH   3  14
ATOM     14  C   UNL     1      -2.509  10.736  17.679  0.00  0.00    +0.000 A 
ATOM     15  C   UNL     1      -2.121  10.092  16.496  0.00  0.00    +0.000 A 
ATOM     16  C   UNL     1      -2.909  10.175  15.342  0.00  0.00    +0.000 A 
ATOM     17  C   UNL     1      -4.097  10.903  15.361  0.00  0.00    +0.000 A 
ATOM     18  C   UNL     1      -4.497  11.550  16.525  0.00  0.00    +0.000 A 
ATOM     19  C   UNL     1      -3.706  11.466  17.679  0.00  0.00    +0.000 A 
ENDBRANCH   3  14
BRANCH   5  20
ATOM     20  S   UNL     1       0.751   9.285  21.443  0.00  0.00    +0.000 S 
ATOM     21  O   UNL     1       1.779  10.232  21.838  0.00  0.00    +0.000 OA
ATOM     22  O   UNL     1      -0.022   8.557  22.428  0.00  0.00    +0.000 OA
BRANCH  20  23
ATOM     23  C   UNL     1       1.487   8.088  20.357  0.00  0.00    +0.000 A 
ATOM     24  C   UNL     1       1.606   6.767  20.802  0.00  0.00    +0.000 A 
ATOM     25  C   UNL     1       2.249   5.820  20.001  0.00  0.00    +0.000 A 
ATOM     26  C   UNL     1       2.780   6.187  18.759  0.00  0.00    +0.000 A 
ATOM     27  C   UNL     1       3.480   5.177  17.895  0.00  0.00    +0.000 C 
ATOM     28  C   UNL     1       2.649   7.513  18.322  0.00  0.00    +0.000 A 
ATOM     29  C   UNL     1       2.005   8.466  19.115  0.00  0.00    +0.000 A 
ENDBRANCH  20  23
ENDBRANCH   5  20
TORSDOF 5
ENDMDL
MODEL 4
REMARK VINA RESULT:      -7.2      7.644      9.839
REMARK  Name = 
REMARK  7 active torsions:
REMARK  status: ('A' for Active; 'I' for Inactive)
REMARK    1  A    between atoms: C_1  and  C_2
REMARK    2  A    between atoms: C_2  and  N_3
REMARK    3  A    between atoms: N_6  and  C_7
REMARK    4  A    between atoms: C_9  and  C_10
REMARK    5  A    between atoms: C_17  and  S_18
REMARK    6  A    between atoms: S_18  and  C_21
REMARK    7  A    between atoms: C_24  and  C_25
REMARK                            x       y       z     vdW  Elec       q    Type
REMARK                         _______ _______ _______ _____ _____    ______ ____
ROOT
ATOM      1  C   UNL     1       0.573   9.607  19.390  0.00  0.00    +0.000 A 
ATOM      2  O   UNL     1      -0.223   9.524  18.271  0.00  0.00    +0.000 OA
ATOM      3  C   UNL     1      -1.212  10.447  18.440  0.00  0.00    +0.000 A 
ATOM      4  N   UNL     1      -1.121  11.117  19.571  0.00  0.00    +0.000 NA
ATOM      5  C   UNL     1       0.036  10.627  20.163  0.00  0.00    +0.000 A 
ENDROOT
BRANCH   1   9
ATOM      6  N   UNL     1       2.637   5.979  18.995  0.00  0.00    +0.000 NA
ATOM      7  C   UNL     1       1.798   6.329  20.159  0.00  0.00    +0.000 C 
ATOM      8  C   UNL     1       1.806   7.814  20.589  0.00  0.00    +0.000 C 
ATOM      9  N   UNL     1       1.597   8.713  19.449  0.00  0.00    +0.000 N 
ATOM     10  C   UNL     1       2.427   8.417  18.271  0.00  0.00    +0.000 C 
ATOM     11  C   UNL     1       2.302   6.922  17.895  0.00  0.00    +0.000 C 
BRANCH   6  13
ATOM     12  C   UNL     1       4.962   5.627  18.085  0.00  0.00    +0.000 C 
ATOM     13  C   UNL     1       4.081   6.006  19.270  0.00  0.00    +0.000 C 
ENDBRANCH   6  13
ENDBRANCH   1   9
BRANCH   3  14
ATOM     14  C   UNL     1      -2.214  10.546  17.381  0.00  0.00    +0.000 A 
ATOM     15  C   UNL     1      -3.342  11.368  17.504  0.00  0.00    +0.000 A 
ATOM     16  C   UNL     1      -4.290  11.444  16.476  0.00  0.00    +0.000 A 
ATOM     17  C   UNL     1      -4.117  10.695  15.314  0.00  0.00    +0.000 A 
ATOM     18  C   UNL     1      -3.005   9.872  15.176  0.00  0.00    +0.000 A 
ATOM     19  C   UNL     1      -2.057   9.798  16.206  0.00  0.00    +0.000 A 
ENDBRANCH   3  14
BRANCH   5  20
ATOM     20  S   UNL     1       0.627  11.263  21.662  0.00  0.00    +0.000 S 
ATOM     21  O   UNL     1       0.904  10.106  22.495  0.00  0.00    +0.000 OA
ATOM     22  O   UNL     1       1.666  12.212  21.318  0.00  0.00    +0.000 OA
BRANCH  20  23
ATOM     23  C   UNL     1      -0.700  12.179  22.408  0.00  0.00    +0.000 A 
ATOM     24  C   UNL     1      -1.757  11.469  22.987  0.00  0.00    +0.000 A 
ATOM     25  C   UNL     1      -2.851  12.160  23.514  0.00  0.00    +0.000 A 
ATOM     26  C   UNL     1      -2.898  13.559  23.459  0.00  0.00    +0.000 A 
ATOM     27  C   UNL     1      -4.074  14.310  24.015  0.00  0.00    +0.000 C 
ATOM     28  C   UNL     1      -1.829  14.258  22.880  0.00  0.00    +0.000 A 
ATOM     29  C   UNL     1      -0.730  13.575  22.354  0.00  0.00    +0.000 A 
ENDBRANCH  20  23
ENDBRANCH   5  20
TORSDOF 5
ENDMDL
MODEL 5
REMARK VINA RESULT:      -7.2      7.354     10.434
REMARK  Name = 
REMARK  7 active torsions:
REMARK  status: ('A' for Active; 'I' for Inactive)
REMARK    1  A    between atoms: C_1  and  C_2
REMARK    2  A    between atoms: C_2  and  N_3
REMARK    3  A    between atoms: N_6  and  C_7
REMARK    4  A    between atoms: C_9  and  C_10
REMARK    5  A    between atoms: C_17  and  S_18
REMARK    6  A    between atoms: S_18  and  C_21
REMARK    7  A    between atoms: C_24  and  C_25
REMARK                            x       y       z     vdW  Elec       q    Type
REMARK                         _______ _______ _______ _____ _____    ______ ____
ROOT
ATOM      1  C   UNL     1       0.193  11.574  19.636  0.00  0.00    +0.000 A 
ATOM      2  O   UNL     1      -0.896  12.130  19.005  0.00  0.00    +0.000 OA
ATOM      3  C   UNL     1      -1.882  11.191  19.053  0.00  0.00    +0.000 A 
ATOM      4  N   UNL     1      -1.522  10.078  19.660  0.00  0.00    +0.000 NA
ATOM      5  C   UNL     1      -0.221  10.325  20.077  0.00  0.00    +0.000 A 
ENDROOT
BRANCH   1   9
ATOM      6  N   UNL     1       2.674  14.907  19.078  0.00  0.00    +0.000 NA
ATOM      7  C   UNL     1       2.368  13.920  18.023  0.00  0.00    +0.000 C 
ATOM      8  C   UNL     1       2.210  12.452  18.482  0.00  0.00    +0.000 C 
ATOM      9  N   UNL     1       1.320  12.336  19.642  0.00  0.00    +0.000 N 
ATOM     10  C   UNL     1       1.599  13.286  20.729  0.00  0.00    +0.000 C 
ATOM     11  C   UNL     1       1.681  14.726  20.170  0.00  0.00    +0.000 C 
BRANCH   6  13
ATOM     12  C   UNL     1       5.142  15.014  18.573  0.00  0.00    +0.000 C 
ATOM     13  C   UNL     1       4.042  14.811  19.608  0.00  0.00    +0.000 C 
ENDBRANCH   6  13
ENDBRANCH   1   9
BRANCH   3  14
ATOM     14  C   UNL     1      -3.156  11.535  18.426  0.00  0.00    +0.000 A 
ATOM     15  C   UNL     1      -4.205  12.117  19.150  0.00  0.00    +0.000 A 
ATOM     16  C   UNL     1      -5.418  12.434  18.526  0.00  0.00    +0.000 A 
ATOM     17  C   UNL     1      -5.592  12.172  17.169  0.00  0.00    +0.000 A 
ATOM     18  C   UNL     1      -4.562  11.593  16.436  0.00  0.00    +0.000 A 
ATOM     19  C   UNL     1      -3.350  11.276  17.062  0.00  0.00    +0.000 A 
ENDBRANCH   3  14
BRANCH   5  20
ATOM     20  S   UNL     1       0.671   9.163  21.002  0.00  0.00    +0.000 S 
ATOM     21  O   UNL     1       1.585   9.937  21.824  0.00  0.00    +0.000 OA
ATOM     22  O   UNL     1      -0.310   8.277  21.595  0.00  0.00    +0.000 OA
BRANCH  20  23
ATOM     23  C   UNL     1       1.632   8.201  19.859  0.00  0.00    +0.000 A 
ATOM     24  C   UNL     1       2.094   6.945  20.268  0.00  0.00    +0.000 A 
ATOM     25  C   UNL     1       2.916   6.199  19.420  0.00  0.00    +0.000 A 
ATOM     26  C   UNL     1       3.283   6.703  18.166  0.00  0.00    +0.000 A 
ATOM     27  C   UNL     1       4.173   5.911  17.251  0.00  0.00    +0.000 C 
ATOM     28  C   UNL     1       2.807   7.960  17.766  0.00  0.00    +0.000 A 
ATOM     29  C   UNL     1       1.983   8.712  18.607  0.00  0.00    +0.000 A 
ENDBRANCH  20  23
ENDBRANCH   5  20
TORSDOF 5
ENDMDL
MODEL 6
REMARK VINA RESULT:      -7.2      0.728      1.518
REMARK  Name = 
REMARK  7 active torsions:
REMARK  status: ('A' for Active; 'I' for Inactive)
REMARK    1  A    between atoms: C_1  and  C_2
REMARK    2  A    between atoms: C_2  and  N_3
REMARK    3  A    between atoms: N_6  and  C_7
REMARK    4  A    between atoms: C_9  and  C_10
REMARK    5  A    between atoms: C_17  and  S_18
REMARK    6  A    between atoms: S_18  and  C_21
REMARK    7  A    between atoms: C_24  and  C_25
REMARK                            x       y       z     vdW  Elec       q    Type
REMARK                         _______ _______ _______ _____ _____    ______ ____
ROOT
ATOM      1  C   UNL     1       4.997   4.408  17.100  0.00  0.00    +0.000 A 
ATOM      2  O   UNL     1       4.782   4.049  15.789  0.00  0.00    +0.000 OA
ATOM      3  C   UNL     1       5.968   4.235  15.145  0.00  0.00    +0.000 A 
ATOM      4  N   UNL     1       6.929   4.683  15.927  0.00  0.00    +0.000 NA
ATOM      5  C   UNL     1       6.339   4.753  17.182  0.00  0.00    +0.000 A 
ENDROOT
BRANCH   1   9
ATOM      6  N   UNL     1       2.672   4.743  20.572  0.00  0.00    +0.000 NA
ATOM      7  C   UNL     1       3.495   3.562  20.240  0.00  0.00    +0.000 C 
ATOM      8  C   UNL     1       3.588   3.190  18.742  0.00  0.00    +0.000 C 
ATOM      9  N   UNL     1       3.906   4.355  17.910  0.00  0.00    +0.000 N 
ATOM     10  C   UNL     1       3.098   5.551  18.190  0.00  0.00    +0.000 C 
ATOM     11  C   UNL     1       3.118   5.865  19.704  0.00  0.00    +0.000 C 
BRANCH   6  13
ATOM     12  C   UNL     1       0.775   3.083  20.632  0.00  0.00    +0.000 C 
ATOM     13  C   UNL     1       1.226   4.525  20.424  0.00  0.00    +0.000 C 
ENDBRANCH   6  13
ENDBRANCH   1   9
BRANCH   3  14
ATOM     14  C   UNL     1       6.000   3.937  13.715  0.00  0.00    +0.000 A 
ATOM     15  C   UNL     1       4.920   3.330  13.060  0.00  0.00    +0.000 A 
ATOM     16  C   UNL     1       4.976   3.052  11.689  0.00  0.00    +0.000 A 
ATOM     17  C   UNL     1       6.116   3.380  10.959  0.00  0.00    +0.000 A 
ATOM     18  C   UNL     1       7.198   3.981  11.593  0.00  0.00    +0.000 A 
ATOM     19  C   UNL     1       7.140   4.258  12.964  0.00  0.00    +0.000 A 
ENDBRANCH   3  14
BRANCH   5  20
ATOM     20  S   UNL     1       7.242   5.228  18.583  0.00  0.00    +0.000 S 
ATOM     21  O   UNL     1       6.305   5.161  19.691  0.00  0.00    +0.000 OA
ATOM     22  O   UNL     1       8.455   4.438  18.571  0.00  0.00    +0.000 OA
BRANCH  20  23
ATOM     23  C   UNL     1       7.714   6.926  18.358  0.00  0.00    +0.000 A 
ATOM     24  C   UNL     1       8.658   7.477  19.231  0.00  0.00    +0.000 A 
ATOM     25  C   UNL     1       8.992   8.830  19.127  0.00  0.00    +0.000 A 
ATOM     26  C   UNL     1       8.383   9.637  18.158  0.00  0.00    +0.000 A 
ATOM     27  C   UNL     1       8.731  11.094  18.044  0.00  0.00    +0.000 C 
ATOM     28  C   UNL     1       7.444   9.070  17.285  0.00  0.00    +0.000 A 
ATOM     29  C   UNL     1       7.106   7.718  17.381  0.00  0.00    +0.000 A 
ENDBRANCH  20  23
ENDBRANCH   5  20
TORSDOF 5
ENDMDL
MODEL 7
REMARK VINA RESULT:      -7.2      7.580     10.191
REMARK  Name = 
REMARK  7 active torsions:
REMARK  status: ('A' for Active; 'I' for Inactive)
REMARK    1  A    between atoms: C_1  and  C_2
REMARK    2  A    between atoms: C_2  and  N_3
REMARK    3  A    between atoms: N_6  and  C_7
REMARK    4  A    between atoms: C_9  and  C_10
REMARK    5  A    between atoms: C_17  and  S_18
REMARK    6  A    between atoms: S_18  and  C_21
REMARK    7  A    between atoms: C_24  and  C_25
REMARK                            x       y       z     vdW  Elec       q    Type
REMARK                         _______ _______ _______ _____ _____    ______ ____
ROOT
ATOM      1  C   UNL     1      -0.646  11.703  19.389  0.00  0.00    +0.000 A 
ATOM      2  O   UNL     1      -0.245  12.864  18.770  0.00  0.00    +0.000 OA
ATOM      3  C   UNL     1       1.034  13.091  19.182  0.00  0.00    +0.000 A 
ATOM      4  N   UNL     1       1.490  12.177  20.015  0.00  0.00    +0.000 NA
ATOM      5  C   UNL     1       0.450  11.263  20.118  0.00  0.00    +0.000 A 
ENDROOT
BRANCH   1   9
ATOM      6  N   UNL     1      -4.498  11.730  17.734  0.00  0.00    +0.000 NA
ATOM      7  C   UNL     1      -4.090  12.556  18.889  0.00  0.00    +0.000 C 
ATOM      8  C   UNL     1      -3.075  11.916  19.865  0.00  0.00    +0.000 C 
ATOM      9  N   UNL     1      -1.933  11.329  19.156  0.00  0.00    +0.000 N 
ATOM     10  C   UNL     1      -2.290  10.481  18.008  0.00  0.00    +0.000 C 
ATOM     11  C   UNL     1      -3.263  11.235  17.071  0.00  0.00    +0.000 C 
BRANCH   6  13
ATOM     12  C   UNL     1      -6.798  11.003  18.469  0.00  0.00    +0.000 C 
ATOM     13  C   UNL     1      -5.377  10.605  18.084  0.00  0.00    +0.000 C 
ENDBRANCH   6  13
ENDBRANCH   1   9
BRANCH   3  14
ATOM     14  C   UNL     1       1.692  14.292  18.673  0.00  0.00    +0.000 A 
ATOM     15  C   UNL     1       2.955  14.245  18.070  0.00  0.00    +0.000 A 
ATOM     16  C   UNL     1       3.566  15.411  17.592  0.00  0.00    +0.000 A 
ATOM     17  C   UNL     1       2.916  16.638  17.714  0.00  0.00    +0.000 A 
ATOM     18  C   UNL     1       1.662  16.703  18.312  0.00  0.00    +0.000 A 
ATOM     19  C   UNL     1       1.053  15.535  18.789  0.00  0.00    +0.000 A 
ENDBRANCH   3  14
BRANCH   5  20
ATOM     20  S   UNL     1       0.603   9.818  21.060  0.00  0.00    +0.000 S 
ATOM     21  O   UNL     1       1.440  10.177  22.192  0.00  0.00    +0.000 OA
ATOM     22  O   UNL     1      -0.741   9.310  21.247  0.00  0.00    +0.000 OA
BRANCH  20  23
ATOM     23  C   UNL     1       1.484   8.633  20.073  0.00  0.00    +0.000 A 
ATOM     24  C   UNL     1       1.749   8.944  18.735  0.00  0.00    +0.000 A 
ATOM     25  C   UNL     1       2.373   8.002  17.913  0.00  0.00    +0.000 A 
ATOM     26  C   UNL     1       2.728   6.746  18.420  0.00  0.00    +0.000 A 
ATOM     27  C   UNL     1       3.392   5.724  17.542  0.00  0.00    +0.000 C 
ATOM     28  C   UNL     1       2.463   6.449  19.764  0.00  0.00    +0.000 A 
ATOM     29  C   UNL     1       1.842   7.387  20.594  0.00  0.00    +0.000 A 
ENDBRANCH  20  23
ENDBRANCH   5  20
TORSDOF 5
ENDMDL
MODEL 8
REMARK VINA RESULT:      -7.1      7.392     10.482
REMARK  Name = 
REMARK  7 active torsions:
REMARK  status: ('A' for Active; 'I' for Inactive)
REMARK    1  A    between atoms: C_1  and  C_2
REMARK    2  A    between atoms: C_2  and  N_3
REMARK    3  A    between atoms: N_6  and  C_7
REMARK    4  A    between atoms: C_9  and  C_10
REMARK    5  A    between atoms: C_17  and  S_18
REMARK    6  A    between atoms: S_18  and  C_21
REMARK    7  A    between atoms: C_24  and  C_25
REMARK                            x       y       z     vdW  Elec       q    Type
REMARK                         _______ _______ _______ _____ _____    ______ ____
ROOT
ATOM      1  C   UNL     1       0.207  11.587  19.722  0.00  0.00    +0.000 A 
ATOM      2  O   UNL     1      -0.857  12.113  19.027  0.00  0.00    +0.000 OA
ATOM      3  C   UNL     1      -1.842  11.171  19.070  0.00  0.00    +0.000 A 
ATOM      4  N   UNL     1      -1.502  10.083  19.732  0.00  0.00    +0.000 NA
ATOM      5  C   UNL     1      -0.220  10.353  20.192  0.00  0.00    +0.000 A 
ENDROOT
BRANCH   1   9
ATOM      6  N   UNL     1       2.697  14.908  19.134  0.00  0.00    +0.000 NA
ATOM      7  C   UNL     1       2.441  13.876  18.108  0.00  0.00    +0.000 C 
ATOM      8  C   UNL     1       2.269  12.428  18.621  0.00  0.00    +0.000 C 
ATOM      9  N   UNL     1       1.329  12.355  19.745  0.00  0.00    +0.000 N 
ATOM     10  C   UNL     1       1.557  13.351  20.803  0.00  0.00    +0.000 C 
ATOM     11  C   UNL     1       1.658  14.767  20.188  0.00  0.00    +0.000 C 
BRANCH   6  13
ATOM     12  C   UNL     1       4.343  15.935  20.745  0.00  0.00    +0.000 C 
ATOM     13  C   UNL     1       4.041  14.841  19.727  0.00  0.00    +0.000 C 
ENDBRANCH   6  13
ENDBRANCH   1   9
BRANCH   3  14
ATOM     14  C   UNL     1      -3.090  11.484  18.379  0.00  0.00    +0.000 A 
ATOM     15  C   UNL     1      -4.170  12.087  19.038  0.00  0.00    +0.000 A 
ATOM     16  C   UNL     1      -5.358  12.374  18.355  0.00  0.00    +0.000 A 
ATOM     17  C   UNL     1      -5.475  12.061  17.002  0.00  0.00    +0.000 A 
ATOM     18  C   UNL     1      -4.414  11.462  16.333  0.00  0.00    +0.000 A 
ATOM     19  C   UNL     1      -3.227  11.176  17.019  0.00  0.00    +0.000 A 
ENDBRANCH   3  14
BRANCH   5  20
ATOM     20  S   UNL     1       0.638   9.231  21.196  0.00  0.00    +0.000 S 
ATOM     21  O   UNL     1       1.543  10.037  21.996  0.00  0.00    +0.000 OA
ATOM     22  O   UNL     1      -0.366   8.388  21.812  0.00  0.00    +0.000 OA
BRANCH  20  23
ATOM     23  C   UNL     1       1.611   8.201  20.125  0.00  0.00    +0.000 A 
ATOM     24  C   UNL     1       1.937   8.680  18.852  0.00  0.00    +0.000 A 
ATOM     25  C   UNL     1       2.635   7.863  17.960  0.00  0.00    +0.000 A 
ATOM     26  C   UNL     1       3.006   6.565  18.331  0.00  0.00    +0.000 A 
ATOM     27  C   UNL     1       3.750   5.676  17.376  0.00  0.00    +0.000 C 
ATOM     28  C   UNL     1       2.679   6.099  19.613  0.00  0.00    +0.000 A 
ATOM     29  C   UNL     1       1.983   6.911  20.512  0.00  0.00    +0.000 A 
ENDBRANCH  20  23
ENDBRANCH   5  20
TORSDOF 5
ENDMDL
MODEL 9
REMARK VINA RESULT:      -7.0      8.769     11.461
REMARK  Name = 
REMARK  7 active torsions:
REMARK  status: ('A' for Active; 'I' for Inactive)
REMARK    1  A    between atoms: C_1  and  C_2
REMARK    2  A    between atoms: C_2  and  N_3
REMARK    3  A    between atoms: N_6  and  C_7
REMARK    4  A    between atoms: C_9  and  C_10
REMARK    5  A    between atoms: C_17  and  S_18
REMARK    6  A    between atoms: S_18  and  C_21
REMARK    7  A    between atoms: C_24  and  C_25
REMARK                            x       y       z     vdW  Elec       q    Type
REMARK                         _______ _______ _______ _____ _____    ______ ____
ROOT
ATOM      1  C   UNL     1       0.693  12.230  19.954  0.00  0.00    +0.000 A 
ATOM      2  O   UNL     1       1.288  11.181  19.292  0.00  0.00    +0.000 OA
ATOM      3  C   UNL     1       1.020  10.066  20.029  0.00  0.00    +0.000 A 
ATOM      4  N   UNL     1       0.304  10.307  21.109  0.00  0.00    +0.000 NA
ATOM      5  C   UNL     1       0.049  11.670  21.049  0.00  0.00    +0.000 A 
ENDROOT
BRANCH   1   9
ATOM      6  N   UNL     1       0.769  16.408  19.623  0.00  0.00    +0.000 NA
ATOM      7  C   UNL     1      -0.418  15.578  19.331  0.00  0.00    +0.000 C 
ATOM      8  C   UNL     1      -0.148  14.197  18.692  0.00  0.00    +0.000 C 
ATOM      9  N   UNL     1       0.897  13.459  19.409  0.00  0.00    +0.000 N 
ATOM     10  C   UNL     1       2.109  14.238  19.705  0.00  0.00    +0.000 C 
ATOM     11  C   UNL     1       1.729  15.572  20.390  0.00  0.00    +0.000 C 
BRANCH   6  13
ATOM     12  C   UNL     1       0.530  17.881  17.591  0.00  0.00    +0.000 C 
ATOM     13  C   UNL     1       1.417  16.966  18.427  0.00  0.00    +0.000 C 
ENDBRANCH   6  13
ENDBRANCH   1   9
BRANCH   3  14
ATOM     14  C   UNL     1       1.565   8.801  19.541  0.00  0.00    +0.000 A 
ATOM     15  C   UNL     1       1.962   8.631  18.208  0.00  0.00    +0.000 A 
ATOM     16  C   UNL     1       2.479   7.408  17.764  0.00  0.00    +0.000 A 
ATOM     17  C   UNL     1       2.605   6.342  18.652  0.00  0.00    +0.000 A 
ATOM     18  C   UNL     1       2.214   6.493  19.979  0.00  0.00    +0.000 A 
ATOM     19  C   UNL     1       1.698   7.718  20.421  0.00  0.00    +0.000 A 
ENDBRANCH   3  14
BRANCH   5  20
ATOM     20  S   UNL     1      -0.938  12.461  22.233  0.00  0.00    +0.000 S 
ATOM     21  O   UNL     1      -0.984  11.557  23.369  0.00  0.00    +0.000 OA
ATOM     22  O   UNL     1      -0.419  13.807  22.361  0.00  0.00    +0.000 OA
BRANCH  20  23
ATOM     23  C   UNL     1      -2.577  12.587  21.558  0.00  0.00    +0.000 A 
ATOM     24  C   UNL     1      -3.651  12.754  22.439  0.00  0.00    +0.000 A 
ATOM     25  C   UNL     1      -4.957  12.779  21.944  0.00  0.00    +0.000 A 
ATOM     26  C   UNL     1      -5.197  12.633  20.572  0.00  0.00    +0.000 A 
ATOM     27  C   UNL     1      -6.598  12.652  20.032  0.00  0.00    +0.000 C 
ATOM     28  C   UNL     1      -4.111  12.474  19.699  0.00  0.00    +0.000 A 
ATOM     29  C   UNL     1      -2.802  12.450  20.186  0.00  0.00    +0.000 A 
ENDBRANCH  20  23
ENDBRANCH   5  20
TORSDOF 5
ENDMDL
