MODEL 1
REMARK VINA RESULT:      -7.9      0.000      0.000
REMARK  Name = 
REMARK  4 active torsions:
REMARK  status: ('A' for Active; 'I' for Inactive)
REMARK    1  A    between atoms: C_1  and  C_2
REMARK    2  A    between atoms: C_5  and  C_6
REMARK    3  A    between atoms: C_7  and  N_8
REMARK    4  A    between atoms: C_13  and  C_14
REMARK                            x       y       z     vdW  Elec       q    Type
REMARK                         _______ _______ _______ _____ _____    ______ ____
ROOT
ATOM      1  N   UNL     1       3.510   4.081  17.473  0.00  0.00    +0.000 N 
ATOM      2  C   UNL     1       4.862   4.334  17.212  0.00  0.00    +0.000 A 
ATOM      3  N   UNL     1       5.727   4.417  18.236  0.00  0.00    +0.000 NA
ATOM      4  C   UNL     1       7.025   4.592  17.952  0.00  0.00    +0.000 A 
ATOM      5  C   UNL     1       7.501   4.679  16.673  0.00  0.00    +0.000 A 
ATOM      6  C   UNL     1       6.549   4.611  15.677  0.00  0.00    +0.000 A 
ATOM      7  N   UNL     1       5.227   4.445  15.934  0.00  0.00    +0.000 NA
ATOM      8  H   UNL     1       2.976   4.279  16.637  0.00  0.00    +0.000 HD
ENDROOT
BRANCH   1  15
ATOM      9  C   UNL     1       1.502   2.562  21.729  0.00  0.00    +0.000 C 
ATOM     10  C   UNL     1       1.849   3.680  20.793  0.00  0.00    +0.000 A 
ATOM     11  C   UNL     1       1.531   5.007  21.087  0.00  0.00    +0.000 A 
ATOM     12  C   UNL     1       1.878   6.026  20.197  0.00  0.00    +0.000 A 
ATOM     13  C   UNL     1       2.543   5.743  18.993  0.00  0.00    +0.000 A 
ATOM     14  C   UNL     1       2.884   6.868  18.056  0.00  0.00    +0.000 C 
ATOM     15  C   UNL     1       2.836   4.401  18.671  0.00  0.00    +0.000 A 
ATOM     16  C   UNL     1       2.508   3.398  19.594  0.00  0.00    +0.000 A 
ENDBRANCH   1  15
BRANCH   6  17
ATOM     17  C   UNL     1       6.949   4.705  14.260  0.00  0.00    +0.000 A 
ATOM     18  N   UNL     1       7.867   5.534  13.789  0.00  0.00    +0.000 NA
ATOM     19  C   UNL     1       8.013   5.358  12.426  0.00  0.00    +0.000 A 
ATOM     20  C   UNL     1       7.194   4.409  11.859  0.00  0.00    +0.000 A 
ATOM     21  S   UNL     1       6.212   3.699  13.064  0.00  0.00    +0.000 S 
ENDBRANCH   6  17
TORSDOF 2
ENDMDL
MODEL 2
REMARK VINA RESULT:      -7.8      0.611      1.938
REMARK  Name = 
REMARK  4 active torsions:
REMARK  status: ('A' for Active; 'I' for Inactive)
REMARK    1  A    between atoms: C_1  and  C_2
REMARK    2  A    between atoms: C_5  and  C_6
REMARK    3  A    between atoms: C_7  and  N_8
REMARK    4  A    between atoms: C_13  and  C_14
REMARK                            x       y       z     vdW  Elec       q    Type
REMARK                         _______ _______ _______ _____ _____    ______ ____
ROOT
ATOM      1  N   UNL     1       3.367   3.922  17.381  0.00  0.00    +0.000 N 
ATOM      2  C   UNL     1       4.715   4.236  17.173  0.00  0.00    +0.000 A 
ATOM      3  N   UNL     1       5.533   4.363  18.230  0.00  0.00    +0.000 NA
ATOM      4  C   UNL     1       6.833   4.596  17.997  0.00  0.00    +0.000 A 
ATOM      5  C   UNL     1       7.355   4.700  16.738  0.00  0.00    +0.000 A 
ATOM      6  C   UNL     1       6.448   4.584  15.705  0.00  0.00    +0.000 A 
ATOM      7  N   UNL     1       5.126   4.358  15.909  0.00  0.00    +0.000 NA
ATOM      8  H   UNL     1       2.858   4.091  16.523  0.00  0.00    +0.000 HD
ENDROOT
BRANCH   1  15
ATOM      9  C   UNL     1       1.763   7.285  20.632  0.00  0.00    +0.000 C 
ATOM     10  C   UNL     1       1.808   5.861  20.165  0.00  0.00    +0.000 A 
ATOM     11  C   UNL     1       1.139   4.844  20.848  0.00  0.00    +0.000 A 
ATOM     12  C   UNL     1       1.196   3.529  20.380  0.00  0.00    +0.000 A 
ATOM     13  C   UNL     1       1.923   3.201  19.225  0.00  0.00    +0.000 A 
ATOM     14  C   UNL     1       1.970   1.771  18.765  0.00  0.00    +0.000 C 
ATOM     15  C   UNL     1       2.631   4.216  18.548  0.00  0.00    +0.000 A 
ATOM     16  C   UNL     1       2.534   5.534  19.018  0.00  0.00    +0.000 A 
ENDBRANCH   1  15
BRANCH   6  17
ATOM     17  C   UNL     1       6.901   4.690  14.305  0.00  0.00    +0.000 A 
ATOM     18  N   UNL     1       7.848   5.510  13.878  0.00  0.00    +0.000 NA
ATOM     19  C   UNL     1       8.040   5.349  12.518  0.00  0.00    +0.000 A 
ATOM     20  C   UNL     1       7.227   4.421  11.910  0.00  0.00    +0.000 A 
ATOM     21  S   UNL     1       6.192   3.712  13.069  0.00  0.00    +0.000 S 
ENDBRANCH   6  17
TORSDOF 2
ENDMDL
MODEL 3
REMARK VINA RESULT:      -7.4      4.592      8.158
REMARK  Name = 
REMARK  4 active torsions:
REMARK  status: ('A' for Active; 'I' for Inactive)
REMARK    1  A    between atoms: C_1  and  C_2
REMARK    2  A    between atoms: C_5  and  C_6
REMARK    3  A    between atoms: C_7  and  N_8
REMARK    4  A    between atoms: C_13  and  C_14
REMARK                            x       y       z     vdW  Elec       q    Type
REMARK                         _______ _______ _______ _____ _____    ______ ____
ROOT
ATOM      1  N   UNL     1       2.734   6.084  19.579  0.00  0.00    +0.000 N 
ATOM      2  C   UNL     1       2.237   7.373  19.350  0.00  0.00    +0.000 A 
ATOM      3  N   UNL     1       2.387   7.933  18.138  0.00  0.00    +0.000 NA
ATOM      4  C   UNL     1       1.841   9.139  17.930  0.00  0.00    +0.000 A 
ATOM      5  C   UNL     1       1.137   9.813  18.888  0.00  0.00    +0.000 A 
ATOM      6  C   UNL     1       1.049   9.185  20.114  0.00  0.00    +0.000 A 
ATOM      7  N   UNL     1       1.599   7.969  20.359  0.00  0.00    +0.000 NA
ATOM      8  H   UNL     1       2.746   5.913  20.576  0.00  0.00    +0.000 HD
ENDROOT
BRANCH   1  15
ATOM      9  C   UNL     1       7.611   5.702  18.856  0.00  0.00    +0.000 C 
ATOM     10  C   UNL     1       6.218   5.265  18.515  0.00  0.00    +0.000 A 
ATOM     11  C   UNL     1       5.972   4.290  17.546  0.00  0.00    +0.000 A 
ATOM     12  C   UNL     1       4.662   3.901  17.260  0.00  0.00    +0.000 A 
ATOM     13  C   UNL     1       3.570   4.477  17.929  0.00  0.00    +0.000 A 
ATOM     14  C   UNL     1       2.176   4.039  17.578  0.00  0.00    +0.000 C 
ATOM     15  C   UNL     1       3.807   5.488  18.883  0.00  0.00    +0.000 A 
ATOM     16  C   UNL     1       5.132   5.841  19.178  0.00  0.00    +0.000 A 
ENDBRANCH   1  15
BRANCH   6  17
ATOM     17  C   UNL     1       0.321   9.827  21.225  0.00  0.00    +0.000 A 
ATOM     18  N   UNL     1      -0.049   9.213  22.338  0.00  0.00    +0.000 NA
ATOM     19  C   UNL     1      -0.695  10.100  23.179  0.00  0.00    +0.000 A 
ATOM     20  C   UNL     1      -0.832  11.382  22.697  0.00  0.00    +0.000 A 
ATOM     21  S   UNL     1      -0.122  11.495  21.148  0.00  0.00    +0.000 S 
ENDBRANCH   6  17
TORSDOF 2
ENDMDL
MODEL 4
REMARK VINA RESULT:      -7.0      4.664      7.390
REMARK  Name = 
REMARK  4 active torsions:
REMARK  status: ('A' for Active; 'I' for Inactive)
REMARK    1  A    between atoms: C_1  and  C_2
REMARK    2  A    between atoms: C_5  and  C_6
REMARK    3  A    between atoms: C_7  and  N_8
REMARK    4  A    between atoms: C_13  and  C_14
REMARK                            x       y       z     vdW  Elec       q    Type
REMARK                         _______ _______ _______ _____ _____    ______ ____
ROOT
ATOM      1  N   UNL     1       2.861   7.122  17.845  0.00  0.00    +0.000 N 
ATOM      2  C   UNL     1       2.148   7.832  18.817  0.00  0.00    +0.000 A 
ATOM      3  N   UNL     1       2.033   7.323  20.055  0.00  0.00    +0.000 NA
ATOM      4  C   UNL     1       1.403   8.058  20.983  0.00  0.00    +0.000 A 
ATOM      5  C   UNL     1       0.885   9.296  20.725  0.00  0.00    +0.000 A 
ATOM      6  C   UNL     1       1.019   9.739  19.426  0.00  0.00    +0.000 A 
ATOM      7  N   UNL     1       1.643   9.015  18.462  0.00  0.00    +0.000 NA
ATOM      8  H   UNL     1       2.657   7.519  16.937  0.00  0.00    +0.000 HD
ENDROOT
BRANCH   1  15
ATOM      9  C   UNL     1       1.013   2.603  18.632  0.00  0.00    +0.000 C 
ATOM     10  C   UNL     1       2.153   3.472  18.192  0.00  0.00    +0.000 A 
ATOM     11  C   UNL     1       3.366   2.930  17.766  0.00  0.00    +0.000 A 
ATOM     12  C   UNL     1       4.404   3.769  17.355  0.00  0.00    +0.000 A 
ATOM     13  C   UNL     1       4.256   5.165  17.365  0.00  0.00    +0.000 A 
ATOM     14  C   UNL     1       5.404   6.031  16.929  0.00  0.00    +0.000 C 
ATOM     15  C   UNL     1       3.046   5.723  17.828  0.00  0.00    +0.000 A 
ATOM     16  C   UNL     1       2.006   4.861  18.206  0.00  0.00    +0.000 A 
ENDBRANCH   1  15
BRANCH   6  17
ATOM     17  C   UNL     1       0.488  11.058  19.032  0.00  0.00    +0.000 A 
ATOM     18  N   UNL     1      -0.761  11.287  18.656  0.00  0.00    +0.000 NA
ATOM     19  C   UNL     1      -0.934  12.629  18.372  0.00  0.00    +0.000 A 
ATOM     20  C   UNL     1       0.186  13.415  18.514  0.00  0.00    +0.000 A 
ATOM     21  S   UNL     1       1.503  12.457  19.031  0.00  0.00    +0.000 S 
ENDBRANCH   6  17
TORSDOF 2
ENDMDL
MODEL 5
REMARK VINA RESULT:      -7.0      1.073      2.231
REMARK  Name = 
REMARK  4 active torsions:
REMARK  status: ('A' for Active; 'I' for Inactive)
REMARK    1  A    between atoms: C_1  and  C_2
REMARK    2  A    between atoms: C_5  and  C_6
REMARK    3  A    between atoms: C_7  and  N_8
REMARK    4  A    between atoms: C_13  and  C_14
REMARK                            x       y       z     vdW  Elec       q    Type
REMARK                         _______ _______ _______ _____ _____    ______ ____
ROOT
ATOM      1  N   UNL     1       3.248   3.920  17.440  0.00  0.00    +0.000 N 
ATOM      2  C   UNL     1       4.576   4.189  17.090  0.00  0.00    +0.000 A 
ATOM      3  N   UNL     1       5.471   4.460  18.055  0.00  0.00    +0.000 NA
ATOM      4  C   UNL     1       6.749   4.646  17.695  0.00  0.00    +0.000 A 
ATOM      5  C   UNL     1       7.176   4.564  16.399  0.00  0.00    +0.000 A 
ATOM      6  C   UNL     1       6.194   4.309  15.463  0.00  0.00    +0.000 A 
ATOM      7  N   UNL     1       4.891   4.126  15.795  0.00  0.00    +0.000 NA
ATOM      8  H   UNL     1       2.676   3.969  16.607  0.00  0.00    +0.000 HD
ENDROOT
BRANCH   1  15
ATOM      9  C   UNL     1       1.914   7.723  20.305  0.00  0.00    +0.000 C 
ATOM     10  C   UNL     1       1.911   6.249  20.035  0.00  0.00    +0.000 A 
ATOM     11  C   UNL     1       1.283   5.347  20.895  0.00  0.00    +0.000 A 
ATOM     12  C   UNL     1       1.293   3.980  20.608  0.00  0.00    +0.000 A 
ATOM     13  C   UNL     1       1.932   3.484  19.461  0.00  0.00    +0.000 A 
ATOM     14  C   UNL     1       1.932   2.004  19.198  0.00  0.00    +0.000 C 
ATOM     15  C   UNL     1       2.601   4.384  18.605  0.00  0.00    +0.000 A 
ATOM     16  C   UNL     1       2.551   5.755  18.896  0.00  0.00    +0.000 A 
ENDBRANCH   1  15
BRANCH   6  17
ATOM     17  C   UNL     1       6.541   4.210  14.033  0.00  0.00    +0.000 A 
ATOM     18  N   UNL     1       5.973   3.377  13.174  0.00  0.00    +0.000 NA
ATOM     19  C   UNL     1       6.513   3.550  11.914  0.00  0.00    +0.000 A 
ATOM     20  C   UNL     1       7.504   4.500  11.818  0.00  0.00    +0.000 A 
ATOM     21  S   UNL     1       7.768   5.216  13.347  0.00  0.00    +0.000 S 
ENDBRANCH   6  17
TORSDOF 2
ENDMDL
MODEL 6
REMARK VINA RESULT:      -7.0      4.694      8.245
REMARK  Name = 
REMARK  4 active torsions:
REMARK  status: ('A' for Active; 'I' for Inactive)
REMARK    1  A    between atoms: C_1  and  C_2
REMARK    2  A    between atoms: C_5  and  C_6
REMARK    3  A    between atoms: C_7  and  N_8
REMARK    4  A    between atoms: C_13  and  C_14
REMARK                            x       y       z     vdW  Elec       q    Type
REMARK                         _______ _______ _______ _____ _____    ______ ____
ROOT
ATOM      1  N   UNL     1       2.572   6.395  18.966  0.00  0.00    +0.000 N 
ATOM      2  C   UNL     1       2.141   7.724  18.889  0.00  0.00    +0.000 A 
ATOM      3  N   UNL     1       2.330   8.415  17.753  0.00  0.00    +0.000 NA
ATOM      4  C   UNL     1       1.845   9.663  17.687  0.00  0.00    +0.000 A 
ATOM      5  C   UNL     1       1.164  10.252  18.715  0.00  0.00    +0.000 A 
ATOM      6  C   UNL     1       1.032   9.489  19.857  0.00  0.00    +0.000 A 
ATOM      7  N   UNL     1       1.521   8.227  19.959  0.00  0.00    +0.000 NA
ATOM      8  H   UNL     1       2.566   6.106  19.935  0.00  0.00    +0.000 HD
ENDROOT
BRANCH   1  15
ATOM      9  C   UNL     1       7.261   6.637  17.413  0.00  0.00    +0.000 C 
ATOM     10  C   UNL     1       5.946   5.917  17.438  0.00  0.00    +0.000 A 
ATOM     11  C   UNL     1       5.752   4.721  16.747  0.00  0.00    +0.000 A 
ATOM     12  C   UNL     1       4.516   4.072  16.799  0.00  0.00    +0.000 A 
ATOM     13  C   UNL     1       3.447   4.606  17.537  0.00  0.00    +0.000 A 
ATOM     14  C   UNL     1       2.129   3.883  17.554  0.00  0.00    +0.000 C 
ATOM     15  C   UNL     1       3.623   5.833  18.209  0.00  0.00    +0.000 A 
ATOM     16  C   UNL     1       4.882   6.450  18.169  0.00  0.00    +0.000 A 
ENDBRANCH   1  15
BRANCH   6  17
ATOM     17  C   UNL     1       0.324  10.029  21.033  0.00  0.00    +0.000 A 
ATOM     18  N   UNL     1      -0.213  11.237  21.102  0.00  0.00    +0.000 NA
ATOM     19  C   UNL     1      -0.813  11.422  22.333  0.00  0.00    +0.000 A 
ATOM     20  C   UNL     1      -0.716  10.363  23.206  0.00  0.00    +0.000 A 
ATOM     21  S   UNL     1       0.142   9.083  22.468  0.00  0.00    +0.000 S 
ENDBRANCH   6  17
TORSDOF 2
ENDMDL
MODEL 7
REMARK VINA RESULT:      -6.9      0.900      1.009
REMARK  Name = 
REMARK  4 active torsions:
REMARK  status: ('A' for Active; 'I' for Inactive)
REMARK    1  A    between atoms: C_1  and  C_2
REMARK    2  A    between atoms: C_5  and  C_6
REMARK    3  A    between atoms: C_7  and  N_8
REMARK    4  A    between atoms: C_13  and  C_14
REMARK                            x       y       z     vdW  Elec       q    Type
REMARK                         _______ _______ _______ _____ _____    ______ ____
ROOT
ATOM      1  N   UNL     1       3.472   3.777  17.508  0.00  0.00    +0.000 N 
ATOM      2  C   UNL     1       4.779   4.093  17.122  0.00  0.00    +0.000 A 
ATOM      3  N   UNL     1       5.698   4.367  18.064  0.00  0.00    +0.000 NA
ATOM      4  C   UNL     1       6.957   4.599  17.667  0.00  0.00    +0.000 A 
ATOM      5  C   UNL     1       7.343   4.560  16.357  0.00  0.00    +0.000 A 
ATOM      6  C   UNL     1       6.339   4.299  15.447  0.00  0.00    +0.000 A 
ATOM      7  N   UNL     1       5.054   4.070  15.816  0.00  0.00    +0.000 NA
ATOM      8  H   UNL     1       2.872   3.829  16.695  0.00  0.00    +0.000 HD
ENDROOT
BRANCH   1  15
ATOM      9  C   UNL     1       1.585   2.598  21.924  0.00  0.00    +0.000 C 
ATOM     10  C   UNL     1       1.925   3.643  20.904  0.00  0.00    +0.000 A 
ATOM     11  C   UNL     1       1.651   4.994  21.119  0.00  0.00    +0.000 A 
ATOM     12  C   UNL     1       1.989   5.941  20.150  0.00  0.00    +0.000 A 
ATOM     13  C   UNL     1       2.602   5.561  18.946  0.00  0.00    +0.000 A 
ATOM     14  C   UNL     1       2.936   6.612  17.924  0.00  0.00    +0.000 C 
ATOM     15  C   UNL     1       2.851   4.194  18.704  0.00  0.00    +0.000 A 
ATOM     16  C   UNL     1       2.532   3.263  19.705  0.00  0.00    +0.000 A 
ENDBRANCH   1  15
BRANCH   6  17
ATOM     17  C   UNL     1       6.641   4.245  14.004  0.00  0.00    +0.000 A 
ATOM     18  N   UNL     1       6.076   3.410  13.146  0.00  0.00    +0.000 NA
ATOM     19  C   UNL     1       6.567   3.630  11.873  0.00  0.00    +0.000 A 
ATOM     20  C   UNL     1       7.518   4.618  11.767  0.00  0.00    +0.000 A 
ATOM     21  S   UNL     1       7.807   5.310  13.302  0.00  0.00    +0.000 S 
ENDBRANCH   6  17
TORSDOF 2
ENDMDL
MODEL 8
REMARK VINA RESULT:      -6.9      1.481      2.722
REMARK  Name = 
REMARK  4 active torsions:
REMARK  status: ('A' for Active; 'I' for Inactive)
REMARK    1  A    between atoms: C_1  and  C_2
REMARK    2  A    between atoms: C_5  and  C_6
REMARK    3  A    between atoms: C_7  and  N_8
REMARK    4  A    between atoms: C_13  and  C_14
REMARK                            x       y       z     vdW  Elec       q    Type
REMARK                         _______ _______ _______ _____ _____    ______ ____
ROOT
ATOM      1  N   UNL     1       3.194   5.772  17.691  0.00  0.00    +0.000 N 
ATOM      2  C   UNL     1       4.570   5.732  17.441  0.00  0.00    +0.000 A 
ATOM      3  N   UNL     1       5.431   5.949  18.448  0.00  0.00    +0.000 NA
ATOM      4  C   UNL     1       6.743   5.837  18.192  0.00  0.00    +0.000 A 
ATOM      5  C   UNL     1       7.234   5.504  16.961  0.00  0.00    +0.000 A 
ATOM      6  C   UNL     1       6.289   5.322  15.972  0.00  0.00    +0.000 A 
ATOM      7  N   UNL     1       4.956   5.438  16.197  0.00  0.00    +0.000 NA
ATOM      8  H   UNL     1       2.704   5.819  16.808  0.00  0.00    +0.000 HD
ENDROOT
BRANCH   1  15
ATOM      9  C   UNL     1       1.272  10.036  19.296  0.00  0.00    +0.000 C 
ATOM     10  C   UNL     1       1.600   8.595  19.545  0.00  0.00    +0.000 A 
ATOM     11  C   UNL     1       1.300   7.973  20.758  0.00  0.00    +0.000 A 
ATOM     12  C   UNL     1       1.613   6.626  20.952  0.00  0.00    +0.000 A 
ATOM     13  C   UNL     1       2.234   5.872  19.944  0.00  0.00    +0.000 A 
ATOM     14  C   UNL     1       2.567   4.429  20.202  0.00  0.00    +0.000 C 
ATOM     15  C   UNL     1       2.574   6.501  18.728  0.00  0.00    +0.000 A 
ATOM     16  C   UNL     1       2.222   7.846  18.543  0.00  0.00    +0.000 A 
ENDBRANCH   1  15
BRANCH   6  17
ATOM     17  C   UNL     1       6.708   4.970  14.602  0.00  0.00    +0.000 A 
ATOM     18  N   UNL     1       7.740   5.504  13.967  0.00  0.00    +0.000 NA
ATOM     19  C   UNL     1       7.868   4.944  12.710  0.00  0.00    +0.000 A 
ATOM     20  C   UNL     1       6.922   4.000  12.382  0.00  0.00    +0.000 A 
ATOM     21  S   UNL     1       5.840   3.788  13.687  0.00  0.00    +0.000 S 
ENDBRANCH   6  17
TORSDOF 2
ENDMDL
MODEL 9
REMARK VINA RESULT:      -6.7      4.955      7.979
REMARK  Name = 
REMARK  4 active torsions:
REMARK  status: ('A' for Active; 'I' for Inactive)
REMARK    1  A    between atoms: C_1  and  C_2
REMARK    2  A    between atoms: C_5  and  C_6
REMARK    3  A    between atoms: C_7  and  N_8
REMARK    4  A    between atoms: C_13  and  C_14
REMARK                            x       y       z     vdW  Elec       q    Type
REMARK                         _______ _______ _______ _____ _____    ______ ____
ROOT
ATOM      1  N   UNL     1       2.008   6.324  20.405  0.00  0.00    +0.000 N 
ATOM      2  C   UNL     1       1.848   7.551  19.750  0.00  0.00    +0.000 A 
ATOM      3  N   UNL     1       2.137   7.642  18.441  0.00  0.00    +0.000 NA
ATOM      4  C   UNL     1       1.909   8.812  17.826  0.00  0.00    +0.000 A 
ATOM      5  C   UNL     1       1.391   9.901  18.469  0.00  0.00    +0.000 A 
ATOM      6  C   UNL     1       1.145   9.737  19.816  0.00  0.00    +0.000 A 
ATOM      7  N   UNL     1       1.375   8.570  20.469  0.00  0.00    +0.000 NA
ATOM      8  H   UNL     1       1.974   6.482  21.403  0.00  0.00    +0.000 HD
ENDROOT
BRANCH   1  15
ATOM      9  C   UNL     1       6.414   5.035  18.567  0.00  0.00    +0.000 C 
ATOM     10  C   UNL     1       5.083   4.634  19.127  0.00  0.00    +0.000 A 
ATOM     11  C   UNL     1       4.725   3.294  19.278  0.00  0.00    +0.000 A 
ATOM     12  C   UNL     1       3.479   2.955  19.811  0.00  0.00    +0.000 A 
ATOM     13  C   UNL     1       2.563   3.946  20.200  0.00  0.00    +0.000 A 
ATOM     14  C   UNL     1       1.227   3.538  20.756  0.00  0.00    +0.000 C 
ATOM     15  C   UNL     1       2.902   5.303  20.018  0.00  0.00    +0.000 A 
ATOM     16  C   UNL     1       4.171   5.619  19.511  0.00  0.00    +0.000 A 
ENDBRANCH   1  15
BRANCH   6  17
ATOM     17  C   UNL     1       0.596  10.852  20.611  0.00  0.00    +0.000 A 
ATOM     18  N   UNL     1       0.784  12.135  20.343  0.00  0.00    +0.000 NA
ATOM     19  C   UNL     1       0.121  12.917  21.271  0.00  0.00    +0.000 A 
ATOM     20  C   UNL     1      -0.553  12.229  22.254  0.00  0.00    +0.000 A 
ATOM     21  S   UNL     1      -0.370  10.548  22.012  0.00  0.00    +0.000 S 
ENDBRANCH   6  17
TORSDOF 2
ENDMDL
