MODEL 1
REMARK VINA RESULT:      -8.0      0.000      0.000
REMARK  Name = 
REMARK  11 active torsions:
REMARK  status: ('A' for Active; 'I' for Inactive)
REMARK    1  A    between atoms: C_1  and  C_2
REMARK    2  A    between atoms: C_2  and  C_3
REMARK    3  A    between atoms: C_3  and  C_4
REMARK    4  A    between atoms: C_8  and  C_9
REMARK    5  A    between atoms: N_10  and  N_11
REMARK    6  A    between atoms: C_12  and  C_14
REMARK    7  A    between atoms: C_14  and  N_15
REMARK    8  A    between atoms: N_18  and  C_19
REMARK    9  A    between atoms: C_19  and  C_20
REMARK   10  A    between atoms: C_23  and  C_24
REMARK   11  A    between atoms: C_32  and  O_33
REMARK                            x       y       z     vdW  Elec       q    Type
REMARK                         _______ _______ _______ _____ _____    ______ ____
ROOT
ATOM      1  C   UNL     1       7.236   5.962  16.780  0.00  0.00    +0.000 C 
ENDROOT
BRANCH   1   2
ATOM      2  N   UNL     1       5.756   5.997  16.742  0.00  0.00    +0.000 NA
ATOM      3  C   UNL     1       5.157   4.756  16.188  0.00  0.00    +0.000 C 
ATOM      4  C   UNL     1       4.468   3.736  17.139  0.00  0.00    +0.000 C 
ATOM      5  N   UNL     1       3.799   4.311  18.323  0.00  0.00    +0.000 NA
ATOM      6  C   UNL     1       4.778   5.202  18.967  0.00  0.00    +0.000 C 
ATOM      7  C   UNL     1       5.220   6.368  18.067  0.00  0.00    +0.000 C 
BRANCH   5   8
ATOM      8  C   UNL     1       2.549   4.996  17.932  0.00  0.00    +0.000 C 
BRANCH   8   9
ATOM      9  C   UNL     1       2.113   6.113  18.865  0.00  0.00    +0.000 A 
ATOM     10  C   UNL     1       1.758   5.834  20.195  0.00  0.00    +0.000 A 
ATOM     11  C   UNL     1       1.378   6.858  21.066  0.00  0.00    +0.000 A 
ATOM     12  C   UNL     1       1.351   8.191  20.629  0.00  0.00    +0.000 A 
ATOM     13  C   UNL     1       1.702   8.471  19.301  0.00  0.00    +0.000 A 
ATOM     14  C   UNL     1       2.078   7.441  18.428  0.00  0.00    +0.000 A 
BRANCH  12  15
ATOM     15  C   UNL     1       0.969   9.312  21.562  0.00  0.00    +0.000 C 
ATOM     16  F   UNL     1       1.426  10.534  21.165  0.00  0.00    +0.000 F 
ATOM     17  F   UNL     1      -0.379   9.442  21.692  0.00  0.00    +0.000 F 
ATOM     18  F   UNL     1       1.448   9.130  22.825  0.00  0.00    +0.000 F 
ENDBRANCH  12  15
ENDBRANCH   8   9
ENDBRANCH   5   8
ENDBRANCH   1   2
BRANCH   1  20
ATOM     19  N   UNL     1       7.764   8.271  17.419  0.00  0.00    +0.000 N 
ATOM     20  C   UNL     1       7.814   6.938  17.806  0.00  0.00    +0.000 C 
ATOM     21  O   UNL     1       8.235   6.546  18.893  0.00  0.00    +0.000 OA
ATOM     22  H   UNL     1       7.443   8.494  16.479  0.00  0.00    +0.000 HD
BRANCH  19  24
ATOM     23  C   UNL     1       8.634  10.346  17.741  0.00  0.00    +0.000 C 
ATOM     24  N   UNL     1       8.330   9.193  18.229  0.00  0.00    +0.000 NA
BRANCH  23  29
ATOM     25  C   UNL     1       9.888  13.651  19.156  0.00  0.00    +0.000 A 
ATOM     26  C   UNL     1      10.483  13.186  20.340  0.00  0.00    +0.000 A 
ATOM     27  C   UNL     1      10.490  11.825  20.657  0.00  0.00    +0.000 A 
ATOM     28  C   UNL     1       9.889  10.901  19.802  0.00  0.00    +0.000 A 
ATOM     29  C   UNL     1       9.281  11.345  18.625  0.00  0.00    +0.000 A 
ATOM     30  C   UNL     1       9.282  12.717  18.306  0.00  0.00    +0.000 A 
BRANCH  30  31
ATOM     31  O   UNL     1       8.692  13.201  17.165  0.00  0.00    +0.000 OA
ATOM     32  H   UNL     1       7.765  12.869  17.115  0.00  0.00    +0.000 HD
ENDBRANCH  30  31
BRANCH  25  33
ATOM     33  C   UNL     1       9.886  15.132  18.841  0.00  0.00    +0.000 C 
BRANCH  33  35
ATOM     34  C   UNL     1      11.942  14.983  17.390  0.00  0.00    +0.000 C 
ATOM     35  C   UNL     1      11.290  15.681  18.572  0.00  0.00    +0.000 C 
ENDBRANCH  33  35
ENDBRANCH  25  33
ENDBRANCH  23  29
ENDBRANCH  19  24
ENDBRANCH   1  20
TORSDOF 10
ENDMDL
MODEL 2
REMARK VINA RESULT:      -7.9      2.747      3.782
REMARK  Name = 
REMARK  11 active torsions:
REMARK  status: ('A' for Active; 'I' for Inactive)
REMARK    1  A    between atoms: C_1  and  C_2
REMARK    2  A    between atoms: C_2  and  C_3
REMARK    3  A    between atoms: C_3  and  C_4
REMARK    4  A    between atoms: C_8  and  C_9
REMARK    5  A    between atoms: N_10  and  N_11
REMARK    6  A    between atoms: C_12  and  C_14
REMARK    7  A    between atoms: C_14  and  N_15
REMARK    8  A    between atoms: N_18  and  C_19
REMARK    9  A    between atoms: C_19  and  C_20
REMARK   10  A    between atoms: C_23  and  C_24
REMARK   11  A    between atoms: C_32  and  O_33
REMARK                            x       y       z     vdW  Elec       q    Type
REMARK                         _______ _______ _______ _____ _____    ______ ____
ROOT
ATOM      1  C   UNL     1       8.102   7.533  18.234  0.00  0.00    +0.000 C 
ENDROOT
BRANCH   1   2
ATOM      2  N   UNL     1       6.938   7.014  17.479  0.00  0.00    +0.000 NA
ATOM      3  C   UNL     1       7.288   6.556  16.110  0.00  0.00    +0.000 C 
ATOM      4  C   UNL     1       7.358   5.034  15.795  0.00  0.00    +0.000 C 
ATOM      5  N   UNL     1       6.421   4.178  16.550  0.00  0.00    +0.000 NA
ATOM      6  C   UNL     1       6.582   4.529  17.970  0.00  0.00    +0.000 C 
ATOM      7  C   UNL     1       6.227   5.995  18.276  0.00  0.00    +0.000 C 
BRANCH   5   8
ATOM      8  C   UNL     1       5.040   4.355  16.053  0.00  0.00    +0.000 C 
BRANCH   8   9
ATOM      9  C   UNL     1       3.951   4.009  17.055  0.00  0.00    +0.000 A 
ATOM     10  C   UNL     1       3.810   2.696  17.530  0.00  0.00    +0.000 A 
ATOM     11  C   UNL     1       2.826   2.374  18.469  0.00  0.00    +0.000 A 
ATOM     12  C   UNL     1       1.962   3.362  18.961  0.00  0.00    +0.000 A 
ATOM     13  C   UNL     1       2.099   4.674  18.485  0.00  0.00    +0.000 A 
ATOM     14  C   UNL     1       3.083   4.993  17.540  0.00  0.00    +0.000 A 
BRANCH  12  15
ATOM     15  C   UNL     1       0.911   3.039  19.993  0.00  0.00    +0.000 C 
ATOM     16  F   UNL     1       0.343   4.142  20.560  0.00  0.00    +0.000 F 
ATOM     17  F   UNL     1      -0.117   2.313  19.477  0.00  0.00    +0.000 F 
ATOM     18  F   UNL     1       1.403   2.302  21.029  0.00  0.00    +0.000 F 
ENDBRANCH  12  15
ENDBRANCH   8   9
ENDBRANCH   5   8
ENDBRANCH   1   2
BRANCH   1  20
ATOM     19  N   UNL     1       9.208   9.599  18.957  0.00  0.00    +0.000 N 
ATOM     20  C   UNL     1       8.213   9.056  18.155  0.00  0.00    +0.000 C 
ATOM     21  O   UNL     1       7.500   9.710  17.395  0.00  0.00    +0.000 OA
ATOM     22  H   UNL     1       9.716   8.983  19.589  0.00  0.00    +0.000 HD
BRANCH  19  24
ATOM     23  C   UNL     1      10.496  11.473  18.953  0.00  0.00    +0.000 C 
ATOM     24  N   UNL     1       9.321  10.945  19.012  0.00  0.00    +0.000 NA
BRANCH  23  29
ATOM     25  C   UNL     1       9.909  15.192  18.388  0.00  0.00    +0.000 A 
ATOM     26  C   UNL     1      10.868  15.715  19.270  0.00  0.00    +0.000 A 
ATOM     27  C   UNL     1      11.698  14.873  20.015  0.00  0.00    +0.000 A 
ATOM     28  C   UNL     1      11.575  13.487  19.904  0.00  0.00    +0.000 A 
ATOM     29  C   UNL     1      10.618  12.948  19.041  0.00  0.00    +0.000 A 
ATOM     30  C   UNL     1       9.788  13.800  18.287  0.00  0.00    +0.000 A 
BRANCH  30  31
ATOM     31  O   UNL     1       8.830  13.316  17.432  0.00  0.00    +0.000 OA
ATOM     32  H   UNL     1       9.228  12.615  16.865  0.00  0.00    +0.000 HD
ENDBRANCH  30  31
BRANCH  25  33
ATOM     33  C   UNL     1       9.016  16.128  17.600  0.00  0.00    +0.000 C 
BRANCH  33  35
ATOM     34  C   UNL     1       6.796  16.473  18.743  0.00  0.00    +0.000 C 
ATOM     35  C   UNL     1       8.182  17.046  18.498  0.00  0.00    +0.000 C 
ENDBRANCH  33  35
ENDBRANCH  25  33
ENDBRANCH  23  29
ENDBRANCH  19  24
ENDBRANCH   1  20
TORSDOF 10
ENDMDL
MODEL 3
REMARK VINA RESULT:      -7.7      6.439      9.857
REMARK  Name = 
REMARK  11 active torsions:
REMARK  status: ('A' for Active; 'I' for Inactive)
REMARK    1  A    between atoms: C_1  and  C_2
REMARK    2  A    between atoms: C_2  and  C_3
REMARK    3  A    between atoms: C_3  and  C_4
REMARK    4  A    between atoms: C_8  and  C_9
REMARK    5  A    between atoms: N_10  and  N_11
REMARK    6  A    between atoms: C_12  and  C_14
REMARK    7  A    between atoms: C_14  and  N_15
REMARK    8  A    between atoms: N_18  and  C_19
REMARK    9  A    between atoms: C_19  and  C_20
REMARK   10  A    between atoms: C_23  and  C_24
REMARK   11  A    between atoms: C_32  and  O_33
REMARK                            x       y       z     vdW  Elec       q    Type
REMARK                         _______ _______ _______ _____ _____    ______ ____
ROOT
ATOM      1  C   UNL     1       0.473  11.486  18.613  0.00  0.00    +0.000 C 
ENDROOT
BRANCH   1   2
ATOM      2  N   UNL     1      -0.013  11.545  20.010  0.00  0.00    +0.000 NA
ATOM      3  C   UNL     1       0.936  12.226  20.929  0.00  0.00    +0.000 C 
ATOM      4  C   UNL     1       0.628  13.662  21.438  0.00  0.00    +0.000 C 
ATOM      5  N   UNL     1      -0.802  13.988  21.619  0.00  0.00    +0.000 NA
ATOM      6  C   UNL     1      -1.479  13.610  20.367  0.00  0.00    +0.000 C 
ATOM      7  C   UNL     1      -1.377  12.107  20.053  0.00  0.00    +0.000 C 
BRANCH   5   8
ATOM      8  C   UNL     1      -1.344  13.303  22.811  0.00  0.00    +0.000 C 
BRANCH   8   9
ATOM      9  C   UNL     1      -2.812  13.577  23.093  0.00  0.00    +0.000 A 
ATOM     10  C   UNL     1      -3.320  14.883  23.024  0.00  0.00    +0.000 A 
ATOM     11  C   UNL     1      -4.673  15.140  23.259  0.00  0.00    +0.000 A 
ATOM     12  C   UNL     1      -5.554  14.093  23.563  0.00  0.00    +0.000 A 
ATOM     13  C   UNL     1      -5.048  12.787  23.636  0.00  0.00    +0.000 A 
ATOM     14  C   UNL     1      -3.689  12.533  23.404  0.00  0.00    +0.000 A 
BRANCH  12  15
ATOM     15  C   UNL     1      -7.022  14.348  23.794  0.00  0.00    +0.000 C 
ATOM     16  F   UNL     1      -7.306  15.636  24.141  0.00  0.00    +0.000 F 
ATOM     17  F   UNL     1      -7.774  14.086  22.691  0.00  0.00    +0.000 F 
ATOM     18  F   UNL     1      -7.539  13.574  24.789  0.00  0.00    +0.000 F 
ENDBRANCH  12  15
ENDBRANCH   8   9
ENDBRANCH   5   8
ENDBRANCH   1   2
BRANCH   1  20
ATOM     19  N   UNL     1       2.022   9.628  18.208  0.00  0.00    +0.000 N 
ATOM     20  C   UNL     1       0.701  10.051  18.137  0.00  0.00    +0.000 C 
ATOM     21  O   UNL     1      -0.237   9.341  17.776  0.00  0.00    +0.000 OA
ATOM     22  H   UNL     1       2.736  10.302  18.475  0.00  0.00    +0.000 HD
BRANCH  19  24
ATOM     23  C   UNL     1       2.463   7.425  18.561  0.00  0.00    +0.000 C 
ATOM     24  N   UNL     1       2.326   8.401  17.729  0.00  0.00    +0.000 NA
BRANCH  23  29
ATOM     25  C   UNL     1       4.420   4.567  16.980  0.00  0.00    +0.000 A 
ATOM     26  C   UNL     1       3.465   3.543  17.090  0.00  0.00    +0.000 A 
ATOM     27  C   UNL     1       2.208   3.787  17.650  0.00  0.00    +0.000 A 
ATOM     28  C   UNL     1       1.884   5.058  18.124  0.00  0.00    +0.000 A 
ATOM     29  C   UNL     1       2.825   6.087  18.035  0.00  0.00    +0.000 A 
ATOM     30  C   UNL     1       4.088   5.839  17.465  0.00  0.00    +0.000 A 
BRANCH  30  31
ATOM     31  O   UNL     1       5.047   6.817  17.361  0.00  0.00    +0.000 OA
ATOM     32  H   UNL     1       4.606   7.697  17.320  0.00  0.00    +0.000 HD
ENDBRANCH  30  31
BRANCH  25  33
ATOM     33  C   UNL     1       5.779   4.274  16.379  0.00  0.00    +0.000 C 
BRANCH  33  35
ATOM     34  C   UNL     1       6.926   4.840  14.206  0.00  0.00    +0.000 C 
ATOM     35  C   UNL     1       5.735   4.151  14.853  0.00  0.00    +0.000 C 
ENDBRANCH  33  35
ENDBRANCH  25  33
ENDBRANCH  23  29
ENDBRANCH  19  24
ENDBRANCH   1  20
TORSDOF 10
ENDMDL
MODEL 4
REMARK VINA RESULT:      -7.6      0.697      1.339
REMARK  Name = 
REMARK  11 active torsions:
REMARK  status: ('A' for Active; 'I' for Inactive)
REMARK    1  A    between atoms: C_1  and  C_2
REMARK    2  A    between atoms: C_2  and  C_3
REMARK    3  A    between atoms: C_3  and  C_4
REMARK    4  A    between atoms: C_8  and  C_9
REMARK    5  A    between atoms: N_10  and  N_11
REMARK    6  A    between atoms: C_12  and  C_14
REMARK    7  A    between atoms: C_14  and  N_15
REMARK    8  A    between atoms: N_18  and  C_19
REMARK    9  A    between atoms: C_19  and  C_20
REMARK   10  A    between atoms: C_23  and  C_24
REMARK   11  A    between atoms: C_32  and  O_33
REMARK                            x       y       z     vdW  Elec       q    Type
REMARK                         _______ _______ _______ _____ _____    ______ ____
ROOT
ATOM      1  C   UNL     1       7.336   6.204  16.881  0.00  0.00    +0.000 C 
ENDROOT
BRANCH   1   2
ATOM      2  N   UNL     1       5.859   6.121  16.803  0.00  0.00    +0.000 NA
ATOM      3  C   UNL     1       5.380   4.907  16.094  0.00  0.00    +0.000 C 
ATOM      4  C   UNL     1       4.763   3.730  16.901  0.00  0.00    +0.000 C 
ATOM      5  N   UNL     1       4.023   4.105  18.123  0.00  0.00    +0.000 NA
ATOM      6  C   UNL     1       4.909   4.993  18.893  0.00  0.00    +0.000 C 
ATOM      7  C   UNL     1       5.268   6.289  18.145  0.00  0.00    +0.000 C 
BRANCH   5   8
ATOM      8  C   UNL     1       2.727   4.725  17.776  0.00  0.00    +0.000 C 
BRANCH   8   9
ATOM      9  C   UNL     1       2.267   5.820  18.724  0.00  0.00    +0.000 A 
ATOM     10  C   UNL     1       1.920   5.516  20.050  0.00  0.00    +0.000 A 
ATOM     11  C   UNL     1       1.518   6.520  20.934  0.00  0.00    +0.000 A 
ATOM     12  C   UNL     1       1.461   7.857  20.515  0.00  0.00    +0.000 A 
ATOM     13  C   UNL     1       1.805   8.162  19.190  0.00  0.00    +0.000 A 
ATOM     14  C   UNL     1       2.203   7.152  18.304  0.00  0.00    +0.000 A 
BRANCH  12  15
ATOM     15  C   UNL     1       1.055   8.957  21.463  0.00  0.00    +0.000 C 
ATOM     16  F   UNL     1      -0.236   8.860  21.893  0.00  0.00    +0.000 F 
ATOM     17  F   UNL     1       1.821   8.981  22.587  0.00  0.00    +0.000 F 
ATOM     18  F   UNL     1       1.169  10.196  20.908  0.00  0.00    +0.000 F 
ENDBRANCH  12  15
ENDBRANCH   8   9
ENDBRANCH   5   8
ENDBRANCH   1   2
BRANCH   1  20
ATOM     19  N   UNL     1       7.511   8.597  17.389  0.00  0.00    +0.000 N 
ATOM     20  C   UNL     1       7.807   7.312  17.824  0.00  0.00    +0.000 C 
ATOM     21  O   UNL     1       8.353   7.050  18.895  0.00  0.00    +0.000 OA
ATOM     22  H   UNL     1       7.100   8.717  16.465  0.00  0.00    +0.000 HD
BRANCH  19  24
ATOM     23  C   UNL     1       9.067  10.212  17.770  0.00  0.00    +0.000 C 
ATOM     24  N   UNL     1       7.966   9.639  18.120  0.00  0.00    +0.000 NA
BRANCH  23  29
ATOM     25  C   UNL     1       9.773  13.727  19.051  0.00  0.00    +0.000 A 
ATOM     26  C   UNL     1      10.533  13.411  20.188  0.00  0.00    +0.000 A 
ATOM     27  C   UNL     1      10.823  12.084  20.517  0.00  0.00    +0.000 A 
ATOM     28  C   UNL     1      10.345  11.042  19.720  0.00  0.00    +0.000 A 
ATOM     29  C   UNL     1       9.577  11.336  18.591  0.00  0.00    +0.000 A 
ATOM     30  C   UNL     1       9.292  12.675  18.260  0.00  0.00    +0.000 A 
BRANCH  30  31
ATOM     31  O   UNL     1       8.536  13.011  17.165  0.00  0.00    +0.000 OA
ATOM     32  H   UNL     1       8.691  13.959  16.945  0.00  0.00    +0.000 HD
ENDBRANCH  30  31
BRANCH  25  33
ATOM     33  C   UNL     1       9.466  15.173  18.723  0.00  0.00    +0.000 C 
BRANCH  33  35
ATOM     34  C   UNL     1       7.763  15.476  20.558  0.00  0.00    +0.000 C 
ATOM     35  C   UNL     1       8.024  15.563  19.063  0.00  0.00    +0.000 C 
ENDBRANCH  33  35
ENDBRANCH  25  33
ENDBRANCH  23  29
ENDBRANCH  19  24
ENDBRANCH   1  20
TORSDOF 10
ENDMDL
MODEL 5
REMARK VINA RESULT:      -7.6      4.961      8.125
REMARK  Name = 
REMARK  11 active torsions:
REMARK  status: ('A' for Active; 'I' for Inactive)
REMARK    1  A    between atoms: C_1  and  C_2
REMARK    2  A    between atoms: C_2  and  C_3
REMARK    3  A    between atoms: C_3  and  C_4
REMARK    4  A    between atoms: C_8  and  C_9
REMARK    5  A    between atoms: N_10  and  N_11
REMARK    6  A    between atoms: C_12  and  C_14
REMARK    7  A    between atoms: C_14  and  N_15
REMARK    8  A    between atoms: N_18  and  C_19
REMARK    9  A    between atoms: C_19  and  C_20
REMARK   10  A    between atoms: C_23  and  C_24
REMARK   11  A    between atoms: C_32  and  O_33
REMARK                            x       y       z     vdW  Elec       q    Type
REMARK                         _______ _______ _______ _____ _____    ______ ____
ROOT
ATOM      1  C   UNL     1       2.483   3.258  21.041  0.00  0.00    +0.000 C 
ENDROOT
BRANCH   1   2
ATOM      2  N   UNL     1       3.568   3.153  20.039  0.00  0.00    +0.000 NA
ATOM      3  C   UNL     1       3.356   2.053  19.062  0.00  0.00    +0.000 C 
ATOM      4  C   UNL     1       2.916   2.383  17.607  0.00  0.00    +0.000 C 
ATOM      5  N   UNL     1       3.420   3.657  17.056  0.00  0.00    +0.000 NA
ATOM      6  C   UNL     1       3.111   4.696  18.051  0.00  0.00    +0.000 C 
ATOM      7  C   UNL     1       3.805   4.464  19.405  0.00  0.00    +0.000 C 
BRANCH   5   8
ATOM      8  C   UNL     1       4.861   3.553  16.741  0.00  0.00    +0.000 C 
BRANCH   8   9
ATOM      9  C   UNL     1       5.672   4.801  17.042  0.00  0.00    +0.000 A 
ATOM     10  C   UNL     1       6.768   4.746  17.918  0.00  0.00    +0.000 A 
ATOM     11  C   UNL     1       7.534   5.884  18.183  0.00  0.00    +0.000 A 
ATOM     12  C   UNL     1       7.226   7.107  17.571  0.00  0.00    +0.000 A 
ATOM     13  C   UNL     1       6.129   7.166  16.698  0.00  0.00    +0.000 A 
ATOM     14  C   UNL     1       5.360   6.024  16.438  0.00  0.00    +0.000 A 
BRANCH  12  15
ATOM     15  C   UNL     1       8.056   8.339  17.824  0.00  0.00    +0.000 C 
ATOM     16  F   UNL     1       8.907   8.646  16.803  0.00  0.00    +0.000 F 
ATOM     17  F   UNL     1       7.293   9.449  18.019  0.00  0.00    +0.000 F 
ATOM     18  F   UNL     1       8.838   8.226  18.935  0.00  0.00    +0.000 F 
ENDBRANCH  12  15
ENDBRANCH   8   9
ENDBRANCH   5   8
ENDBRANCH   1   2
BRANCH   1  20
ATOM     19  N   UNL     1       2.083   5.671  21.222  0.00  0.00    +0.000 N 
ATOM     20  C   UNL     1       1.569   4.457  20.785  0.00  0.00    +0.000 C 
ATOM     21  O   UNL     1       0.498   4.328  20.194  0.00  0.00    +0.000 OA
ATOM     22  H   UNL     1       2.957   5.672  21.744  0.00  0.00    +0.000 HD
BRANCH  19  24
ATOM     23  C   UNL     1       1.778   7.809  20.510  0.00  0.00    +0.000 C 
ATOM     24  N   UNL     1       1.304   6.771  21.111  0.00  0.00    +0.000 NA
BRANCH  23  29
ATOM     25  C   UNL     1      -0.480  10.728  21.448  0.00  0.00    +0.000 A 
ATOM     26  C   UNL     1      -0.622  11.327  20.186  0.00  0.00    +0.000 A 
ATOM     27  C   UNL     1      -0.010  10.779  19.055  0.00  0.00    +0.000 A 
ATOM     28  C   UNL     1       0.768   9.626  19.166  0.00  0.00    +0.000 A 
ATOM     29  C   UNL     1       0.932   9.023  20.415  0.00  0.00    +0.000 A 
ATOM     30  C   UNL     1       0.309   9.574  21.551  0.00  0.00    +0.000 A 
BRANCH  30  31
ATOM     31  O   UNL     1       0.446   9.020  22.800  0.00  0.00    +0.000 OA
ATOM     32  H   UNL     1       1.398   8.830  22.966  0.00  0.00    +0.000 HD
ENDBRANCH  30  31
BRANCH  25  33
ATOM     33  C   UNL     1      -1.146  11.348  22.660  0.00  0.00    +0.000 C 
BRANCH  33  35
ATOM     34  C   UNL     1      -1.016  13.814  23.165  0.00  0.00    +0.000 C 
ATOM     35  C   UNL     1      -1.729  12.733  22.369  0.00  0.00    +0.000 C 
ENDBRANCH  33  35
ENDBRANCH  25  33
ENDBRANCH  23  29
ENDBRANCH  19  24
ENDBRANCH   1  20
TORSDOF 10
ENDMDL
MODEL 6
REMARK VINA RESULT:      -7.4      0.889      1.193
REMARK  Name = 
REMARK  11 active torsions:
REMARK  status: ('A' for Active; 'I' for Inactive)
REMARK    1  A    between atoms: C_1  and  C_2
REMARK    2  A    between atoms: C_2  and  C_3
REMARK    3  A    between atoms: C_3  and  C_4
REMARK    4  A    between atoms: C_8  and  C_9
REMARK    5  A    between atoms: N_10  and  N_11
REMARK    6  A    between atoms: C_12  and  C_14
REMARK    7  A    between atoms: C_14  and  N_15
REMARK    8  A    between atoms: N_18  and  C_19
REMARK    9  A    between atoms: C_19  and  C_20
REMARK   10  A    between atoms: C_23  and  C_24
REMARK   11  A    between atoms: C_32  and  O_33
REMARK                            x       y       z     vdW  Elec       q    Type
REMARK                         _______ _______ _______ _____ _____    ______ ____
ROOT
ATOM      1  C   UNL     1       6.918   5.168  16.904  0.00  0.00    +0.000 C 
ENDROOT
BRANCH   1   2
ATOM      2  N   UNL     1       5.449   5.354  16.921  0.00  0.00    +0.000 NA
ATOM      3  C   UNL     1       4.698   4.073  16.937  0.00  0.00    +0.000 C 
ATOM      4  C   UNL     1       4.007   3.596  18.247  0.00  0.00    +0.000 C 
ATOM      5  N   UNL     1       3.495   4.663  19.130  0.00  0.00    +0.000 NA
ATOM      6  C   UNL     1       4.601   5.617  19.319  0.00  0.00    +0.000 C 
ATOM      7  C   UNL     1       5.064   6.275  18.008  0.00  0.00    +0.000 C 
BRANCH   5   8
ATOM      8  C   UNL     1       2.281   5.277  18.553  0.00  0.00    +0.000 C 
BRANCH   8   9
ATOM      9  C   UNL     1       1.833   6.563  19.226  0.00  0.00    +0.000 A 
ATOM     10  C   UNL     1       1.442   6.564  20.574  0.00  0.00    +0.000 A 
ATOM     11  C   UNL     1       1.051   7.746  21.207  0.00  0.00    +0.000 A 
ATOM     12  C   UNL     1       1.048   8.961  20.508  0.00  0.00    +0.000 A 
ATOM     13  C   UNL     1       1.436   8.963  19.160  0.00  0.00    +0.000 A 
ATOM     14  C   UNL     1       1.823   7.774  18.526  0.00  0.00    +0.000 A 
BRANCH  12  15
ATOM     15  C   UNL     1       0.654  10.251  21.182  0.00  0.00    +0.000 C 
ATOM     16  F   UNL     1       0.613  10.167  22.543  0.00  0.00    +0.000 F 
ATOM     17  F   UNL     1       1.512  11.268  20.898  0.00  0.00    +0.000 F 
ATOM     18  F   UNL     1      -0.579  10.687  20.800  0.00  0.00    +0.000 F 
ENDBRANCH  12  15
ENDBRANCH   8   9
ENDBRANCH   5   8
ENDBRANCH   1   2
BRANCH   1  20
ATOM     19  N   UNL     1       7.752   7.474  16.937  0.00  0.00    +0.000 N 
ATOM     20  C   UNL     1       7.655   6.284  17.646  0.00  0.00    +0.000 C 
ATOM     21  O   UNL     1       8.069   6.123  18.793  0.00  0.00    +0.000 OA
ATOM     22  H   UNL     1       7.422   7.497  15.975  0.00  0.00    +0.000 HD
BRANCH  19  24
ATOM     23  C   UNL     1       7.861   9.601  17.733  0.00  0.00    +0.000 C 
ATOM     24  N   UNL     1       8.460   8.487  17.485  0.00  0.00    +0.000 NA
BRANCH  23  29
ATOM     25  C   UNL     1       9.247  13.086  18.389  0.00  0.00    +0.000 A 
ATOM     26  C   UNL     1      10.126  12.791  19.444  0.00  0.00    +0.000 A 
ATOM     27  C   UNL     1      10.274  11.484  19.915  0.00  0.00    +0.000 A 
ATOM     28  C   UNL     1       9.536  10.445  19.349  0.00  0.00    +0.000 A 
ATOM     29  C   UNL     1       8.647  10.719  18.307  0.00  0.00    +0.000 A 
ATOM     30  C   UNL     1       8.505  12.037  17.831  0.00  0.00    +0.000 A 
BRANCH  30  31
ATOM     31  O   UNL     1       7.640  12.356  16.813  0.00  0.00    +0.000 OA
ATOM     32  H   UNL     1       6.746  12.002  17.028  0.00  0.00    +0.000 HD
ENDBRANCH  30  31
BRANCH  25  33
ATOM     33  C   UNL     1       9.098  14.513  17.904  0.00  0.00    +0.000 C 
BRANCH  33  35
ATOM     34  C   UNL     1      11.142  15.637  16.948  0.00  0.00    +0.000 C 
ATOM     35  C   UNL     1      10.330  15.371  18.205  0.00  0.00    +0.000 C 
ENDBRANCH  33  35
ENDBRANCH  25  33
ENDBRANCH  23  29
ENDBRANCH  19  24
ENDBRANCH   1  20
TORSDOF 10
ENDMDL
MODEL 7
REMARK VINA RESULT:      -7.4      1.391      1.773
REMARK  Name = 
REMARK  11 active torsions:
REMARK  status: ('A' for Active; 'I' for Inactive)
REMARK    1  A    between atoms: C_1  and  C_2
REMARK    2  A    between atoms: C_2  and  C_3
REMARK    3  A    between atoms: C_3  and  C_4
REMARK    4  A    between atoms: C_8  and  C_9
REMARK    5  A    between atoms: N_10  and  N_11
REMARK    6  A    between atoms: C_12  and  C_14
REMARK    7  A    between atoms: C_14  and  N_15
REMARK    8  A    between atoms: N_18  and  C_19
REMARK    9  A    between atoms: C_19  and  C_20
REMARK   10  A    between atoms: C_23  and  C_24
REMARK   11  A    between atoms: C_32  and  O_33
REMARK                            x       y       z     vdW  Elec       q    Type
REMARK                         _______ _______ _______ _____ _____    ______ ____
ROOT
ATOM      1  C   UNL     1       7.680   6.691  18.181  0.00  0.00    +0.000 C 
ENDROOT
BRANCH   1   2
ATOM      2  N   UNL     1       6.282   6.475  17.742  0.00  0.00    +0.000 NA
ATOM      3  C   UNL     1       6.164   5.492  16.634  0.00  0.00    +0.000 C 
ATOM      4  C   UNL     1       5.618   4.064  16.919  0.00  0.00    +0.000 C 
ATOM      5  N   UNL     1       4.605   3.965  17.989  0.00  0.00    +0.000 NA
ATOM      6  C   UNL     1       5.162   4.665  19.159  0.00  0.00    +0.000 C 
ATOM      7  C   UNL     1       5.426   6.159  18.902  0.00  0.00    +0.000 C 
BRANCH   5   8
ATOM      8  C   UNL     1       3.312   4.516  17.534  0.00  0.00    +0.000 C 
BRANCH   8   9
ATOM      9  C   UNL     1       2.681   5.527  18.476  0.00  0.00    +0.000 A 
ATOM     10  C   UNL     1       2.161   5.121  19.716  0.00  0.00    +0.000 A 
ATOM     11  C   UNL     1       1.600   6.048  20.597  0.00  0.00    +0.000 A 
ATOM     12  C   UNL     1       1.552   7.409  20.263  0.00  0.00    +0.000 A 
ATOM     13  C   UNL     1       2.067   7.817  19.024  0.00  0.00    +0.000 A 
ATOM     14  C   UNL     1       2.625   6.884  18.140  0.00  0.00    +0.000 A 
BRANCH  12  15
ATOM     15  C   UNL     1       0.974   8.427  21.213  0.00  0.00    +0.000 C 
ATOM     16  F   UNL     1      -0.281   8.118  21.650  0.00  0.00    +0.000 F 
ATOM     17  F   UNL     1       1.731   8.580  22.333  0.00  0.00    +0.000 F 
ATOM     18  F   UNL     1       0.877   9.668  20.658  0.00  0.00    +0.000 F 
ENDBRANCH  12  15
ENDBRANCH   8   9
ENDBRANCH   5   8
ENDBRANCH   1   2
BRANCH   1  20
ATOM     19  N   UNL     1       8.906   8.607  19.099  0.00  0.00    +0.000 N 
ATOM     20  C   UNL     1       8.110   8.153  18.055  0.00  0.00    +0.000 C 
ATOM     21  O   UNL     1       7.802   8.826  17.073  0.00  0.00    +0.000 OA
ATOM     22  H   UNL     1       9.068   7.990  19.892  0.00  0.00    +0.000 HD
BRANCH  19  24
ATOM     23  C   UNL     1       9.618  10.448  20.226  0.00  0.00    +0.000 C 
ATOM     24  N   UNL     1       9.262   9.911  19.109  0.00  0.00    +0.000 NA
BRANCH  23  29
ATOM     25  C   UNL     1      11.153  13.801  19.277  0.00  0.00    +0.000 A 
ATOM     26  C   UNL     1      10.606  14.603  20.292  0.00  0.00    +0.000 A 
ATOM     27  C   UNL     1       9.771  14.056  21.271  0.00  0.00    +0.000 A 
ATOM     28  C   UNL     1       9.456  12.697  21.248  0.00  0.00    +0.000 A 
ATOM     29  C   UNL     1       9.981  11.886  20.239  0.00  0.00    +0.000 A 
ATOM     30  C   UNL     1      10.826  12.439  19.258  0.00  0.00    +0.000 A 
BRANCH  30  31
ATOM     31  O   UNL     1      11.360  11.682  18.244  0.00  0.00    +0.000 OA
ATOM     32  H   UNL     1      10.668  11.524  17.561  0.00  0.00    +0.000 HD
ENDBRANCH  30  31
BRANCH  25  33
ATOM     33  C   UNL     1      12.046  14.421  18.222  0.00  0.00    +0.000 C 
BRANCH  33  35
ATOM     34  C   UNL     1      11.184  16.463  17.023  0.00  0.00    +0.000 C 
ATOM     35  C   UNL     1      11.261  14.945  17.017  0.00  0.00    +0.000 C 
ENDBRANCH  33  35
ENDBRANCH  25  33
ENDBRANCH  23  29
ENDBRANCH  19  24
ENDBRANCH   1  20
TORSDOF 10
ENDMDL
MODEL 8
REMARK VINA RESULT:      -7.4      5.239     10.087
REMARK  Name = 
REMARK  11 active torsions:
REMARK  status: ('A' for Active; 'I' for Inactive)
REMARK    1  A    between atoms: C_1  and  C_2
REMARK    2  A    between atoms: C_2  and  C_3
REMARK    3  A    between atoms: C_3  and  C_4
REMARK    4  A    between atoms: C_8  and  C_9
REMARK    5  A    between atoms: N_10  and  N_11
REMARK    6  A    between atoms: C_12  and  C_14
REMARK    7  A    between atoms: C_14  and  N_15
REMARK    8  A    between atoms: N_18  and  C_19
REMARK    9  A    between atoms: C_19  and  C_20
REMARK   10  A    between atoms: C_23  and  C_24
REMARK   11  A    between atoms: C_32  and  O_33
REMARK                            x       y       z     vdW  Elec       q    Type
REMARK                         _______ _______ _______ _____ _____    ______ ____
ROOT
ATOM      1  C   UNL     1      -0.163  12.519  18.931  0.00  0.00    +0.000 C 
ENDROOT
BRANCH   1   2
ATOM      2  N   UNL     1       0.842  13.482  18.427  0.00  0.00    +0.000 NA
ATOM      3  C   UNL     1       0.528  14.891  18.780  0.00  0.00    +0.000 C 
ATOM      4  C   UNL     1       1.339  15.611  19.895  0.00  0.00    +0.000 C 
ATOM      5  N   UNL     1       2.753  15.205  20.025  0.00  0.00    +0.000 NA
ATOM      6  C   UNL     1       2.763  13.735  20.096  0.00  0.00    +0.000 C 
ATOM      7  C   UNL     1       2.198  13.063  18.833  0.00  0.00    +0.000 C 
BRANCH   5   8
ATOM      8  C   UNL     1       3.554  15.745  18.906  0.00  0.00    +0.000 C 
BRANCH   8   9
ATOM      9  C   UNL     1       5.010  15.313  18.895  0.00  0.00    +0.000 A 
ATOM     10  C   UNL     1       5.819  15.499  20.027  0.00  0.00    +0.000 A 
ATOM     11  C   UNL     1       7.153  15.083  20.033  0.00  0.00    +0.000 A 
ATOM     12  C   UNL     1       7.710  14.462  18.905  0.00  0.00    +0.000 A 
ATOM     13  C   UNL     1       6.905  14.278  17.772  0.00  0.00    +0.000 A 
ATOM     14  C   UNL     1       5.568  14.701  17.767  0.00  0.00    +0.000 A 
BRANCH  12  15
ATOM     15  C   UNL     1       9.139  13.983  18.903  0.00  0.00    +0.000 C 
ATOM     16  F   UNL     1       9.740  14.061  17.681  0.00  0.00    +0.000 F 
ATOM     17  F   UNL     1       9.927  14.698  19.751  0.00  0.00    +0.000 F 
ATOM     18  F   UNL     1       9.257  12.683  19.292  0.00  0.00    +0.000 F 
ENDBRANCH  12  15
ENDBRANCH   8   9
ENDBRANCH   5   8
ENDBRANCH   1   2
BRANCH   1  20
ATOM     19  N   UNL     1       0.721  10.388  18.099  0.00  0.00    +0.000 N 
ATOM     20  C   UNL     1       0.443  11.147  19.228  0.00  0.00    +0.000 C 
ATOM     21  O   UNL     1       0.698  10.798  20.380  0.00  0.00    +0.000 OA
ATOM     22  H   UNL     1       0.430  10.741  17.190  0.00  0.00    +0.000 HD
BRANCH  19  24
ATOM     23  C   UNL     1       2.431   8.890  18.065  0.00  0.00    +0.000 C 
ATOM     24  N   UNL     1       1.181   9.129  18.274  0.00  0.00    +0.000 NA
BRANCH  23  29
ATOM     25  C   UNL     1       3.083   5.429  19.512  0.00  0.00    +0.000 A 
ATOM     26  C   UNL     1       3.858   4.886  18.475  0.00  0.00    +0.000 A 
ATOM     27  C   UNL     1       4.175   5.639  17.341  0.00  0.00    +0.000 A 
ATOM     28  C   UNL     1       3.710   6.949  17.215  0.00  0.00    +0.000 A 
ATOM     29  C   UNL     1       2.927   7.502  18.230  0.00  0.00    +0.000 A 
ATOM     30  C   UNL     1       2.615   6.742  19.374  0.00  0.00    +0.000 A 
BRANCH  30  31
ATOM     31  O   UNL     1       1.844   7.242  20.394  0.00  0.00    +0.000 OA
ATOM     32  H   UNL     1       1.959   6.676  21.192  0.00  0.00    +0.000 HD
ENDBRANCH  30  31
BRANCH  25  33
ATOM     33  C   UNL     1       2.746   4.587  20.725  0.00  0.00    +0.000 C 
BRANCH  33  35
ATOM     34  C   UNL     1       0.771   3.312  19.813  0.00  0.00    +0.000 C 
ATOM     35  C   UNL     1       2.189   3.210  20.353  0.00  0.00    +0.000 C 
ENDBRANCH  33  35
ENDBRANCH  25  33
ENDBRANCH  23  29
ENDBRANCH  19  24
ENDBRANCH   1  20
TORSDOF 10
ENDMDL
MODEL 9
REMARK VINA RESULT:      -7.4      6.763      8.842
REMARK  Name = 
REMARK  11 active torsions:
REMARK  status: ('A' for Active; 'I' for Inactive)
REMARK    1  A    between atoms: C_1  and  C_2
REMARK    2  A    between atoms: C_2  and  C_3
REMARK    3  A    between atoms: C_3  and  C_4
REMARK    4  A    between atoms: C_8  and  C_9
REMARK    5  A    between atoms: N_10  and  N_11
REMARK    6  A    between atoms: C_12  and  C_14
REMARK    7  A    between atoms: C_14  and  N_15
REMARK    8  A    between atoms: N_18  and  C_19
REMARK    9  A    between atoms: C_19  and  C_20
REMARK   10  A    between atoms: C_23  and  C_24
REMARK   11  A    between atoms: C_32  and  O_33
REMARK                            x       y       z     vdW  Elec       q    Type
REMARK                         _______ _______ _______ _____ _____    ______ ____
ROOT
ATOM      1  C   UNL     1       2.455   3.613  21.206  0.00  0.00    +0.000 C 
ENDROOT
BRANCH   1   2
ATOM      2  N   UNL     1       3.148   3.096  20.004  0.00  0.00    +0.000 NA
ATOM      3  C   UNL     1       2.268   3.022  18.809  0.00  0.00    +0.000 C 
ATOM      4  C   UNL     1       2.426   4.063  17.664  0.00  0.00    +0.000 C 
ATOM      5  N   UNL     1       3.796   4.564  17.435  0.00  0.00    +0.000 NA
ATOM      6  C   UNL     1       4.309   4.995  18.746  0.00  0.00    +0.000 C 
ATOM      7  C   UNL     1       4.394   3.850  19.770  0.00  0.00    +0.000 C 
BRANCH   5   8
ATOM      8  C   UNL     1       4.628   3.527  16.790  0.00  0.00    +0.000 C 
BRANCH   8   9
ATOM      9  C   UNL     1       5.499   4.024  15.649  0.00  0.00    +0.000 A 
ATOM     10  C   UNL     1       6.617   4.833  15.905  0.00  0.00    +0.000 A 
ATOM     11  C   UNL     1       7.437   5.275  14.864  0.00  0.00    +0.000 A 
ATOM     12  C   UNL     1       7.161   4.913  13.538  0.00  0.00    +0.000 A 
ATOM     13  C   UNL     1       6.042   4.108  13.279  0.00  0.00    +0.000 A 
ATOM     14  C   UNL     1       5.219   3.669  14.325  0.00  0.00    +0.000 A 
BRANCH  12  15
ATOM     15  C   UNL     1       8.049   5.359  12.404  0.00  0.00    +0.000 C 
ATOM     16  F   UNL     1       7.651   6.528  11.824  0.00  0.00    +0.000 F 
ATOM     17  F   UNL     1       9.335   5.560  12.801  0.00  0.00    +0.000 F 
ATOM     18  F   UNL     1       8.110   4.446  11.395  0.00  0.00    +0.000 F 
ENDBRANCH  12  15
ENDBRANCH   8   9
ENDBRANCH   5   8
ENDBRANCH   1   2
BRANCH   1  20
ATOM     19  N   UNL     1       2.084   6.032  21.037  0.00  0.00    +0.000 N 
ATOM     20  C   UNL     1       1.515   4.775  20.880  0.00  0.00    +0.000 C 
ATOM     21  O   UNL     1       0.373   4.575  20.468  0.00  0.00    +0.000 OA
ATOM     22  H   UNL     1       3.021   6.098  21.429  0.00  0.00    +0.000 HD
BRANCH  19  24
ATOM     23  C   UNL     1       1.501   8.162  21.576  0.00  0.00    +0.000 C 
ATOM     24  N   UNL     1       1.298   7.116  20.851  0.00  0.00    +0.000 NA
BRANCH  23  29
ATOM     25  C   UNL     1      -0.439  11.009  19.954  0.00  0.00    +0.000 A 
ATOM     26  C   UNL     1      -1.075  11.533  21.090  0.00  0.00    +0.000 A 
ATOM     27  C   UNL     1      -0.860  10.981  22.356  0.00  0.00    +0.000 A 
ATOM     28  C   UNL     1      -0.013   9.883  22.510  0.00  0.00    +0.000 A 
ATOM     29  C   UNL     1       0.619   9.339  21.390  0.00  0.00    +0.000 A 
ATOM     30  C   UNL     1       0.405   9.902  20.117  0.00  0.00    +0.000 A 
BRANCH  30  31
ATOM     31  O   UNL     1       1.000   9.398  18.987  0.00  0.00    +0.000 OA
ATOM     32  H   UNL     1       1.404   8.524  19.197  0.00  0.00    +0.000 HD
ENDBRANCH  30  31
BRANCH  25  33
ATOM     33  C   UNL     1      -0.697  11.619  18.592  0.00  0.00    +0.000 C 
BRANCH  33  35
ATOM     34  C   UNL     1       1.239  13.235  18.598  0.00  0.00    +0.000 C 
ATOM     35  C   UNL     1      -0.272  13.088  18.513  0.00  0.00    +0.000 C 
ENDBRANCH  33  35
ENDBRANCH  25  33
ENDBRANCH  23  29
ENDBRANCH  19  24
ENDBRANCH   1  20
TORSDOF 10
ENDMDL
