MODEL 1
REMARK VINA RESULT:      -8.9      0.000      0.000
REMARK  Name = 
REMARK  4 active torsions:
REMARK  status: ('A' for Active; 'I' for Inactive)
REMARK    1  A    between atoms: C_1  and  C_2
REMARK    2  A    between atoms: C_6  and  C_7
REMARK    3  A    between atoms: C_7  and  N_8
REMARK    4  A    between atoms: N_8  and  C_9
REMARK                            x       y       z     vdW  Elec       q    Type
REMARK                         _______ _______ _______ _____ _____    ______ ____
ROOT
ATOM      1  C   UNL     1       5.375   3.934  17.209  0.00  0.00    +0.000 A 
ATOM      2  N   UNL     1       5.626   4.412  18.461  0.00  0.00    +0.000 NA
ATOM      3  C   UNL     1       6.537   5.378  18.667  0.00  0.00    +0.000 A 
ATOM      4  C   UNL     1       7.325   5.917  17.678  0.00  0.00    +0.000 A 
ATOM      5  C   UNL     1       7.121   5.393  16.407  0.00  0.00    +0.000 A 
ATOM      6  N   UNL     1       7.756   5.727  15.238  0.00  0.00    +0.000 N 
ATOM      7  C   UNL     1       7.259   5.017  14.179  0.00  0.00    +0.000 A 
ATOM      8  C   UNL     1       7.602   5.081  12.823  0.00  0.00    +0.000 A 
ATOM      9  C   UNL     1       6.911   4.265  11.926  0.00  0.00    +0.000 A 
ATOM     10  C   UNL     1       5.957   3.372  12.381  0.00  0.00    +0.000 A 
ATOM     11  C   UNL     1       5.682   3.284  13.744  0.00  0.00    +0.000 A 
ATOM     12  C   UNL     1       6.290   4.151  14.688  0.00  0.00    +0.000 A 
ATOM     13  C   UNL     1       6.167   4.407  16.120  0.00  0.00    +0.000 A 
ATOM     14  H   UNL     1       8.490   6.417  15.161  0.00  0.00    +0.000 HD
ENDROOT
BRANCH   1  15
ATOM     15  N   UNL     1       4.317   3.039  17.177  0.00  0.00    +0.000 N 
ATOM     16  H   UNL     1       4.557   2.246  16.587  0.00  0.00    +0.000 HD
BRANCH  15  17
ATOM     17  C   UNL     1       2.971   3.523  17.069  0.00  0.00    +0.000 C 
BRANCH  17  23
ATOM     18  C   UNL     1       1.363   2.668  21.740  0.00  0.00    +0.000 C 
ATOM     19  C   UNL     1       1.692   3.641  20.650  0.00  0.00    +0.000 A 
ATOM     20  C   UNL     1       1.630   5.024  20.852  0.00  0.00    +0.000 A 
ATOM     21  C   UNL     1       1.952   5.905  19.819  0.00  0.00    +0.000 A 
ATOM     22  C   UNL     1       2.333   5.407  18.579  0.00  0.00    +0.000 A 
ATOM     23  C   UNL     1       2.387   4.022  18.357  0.00  0.00    +0.000 A 
ATOM     24  C   UNL     1       2.082   3.149  19.405  0.00  0.00    +0.000 A 
ENDBRANCH  17  23
ENDBRANCH  15  17
ENDBRANCH   1  15
TORSDOF 3
ENDMDL
MODEL 2
REMARK VINA RESULT:      -8.7      2.226      6.411
REMARK  Name = 
REMARK  4 active torsions:
REMARK  status: ('A' for Active; 'I' for Inactive)
REMARK    1  A    between atoms: C_1  and  C_2
REMARK    2  A    between atoms: C_6  and  C_7
REMARK    3  A    between atoms: C_7  and  N_8
REMARK    4  A    between atoms: N_8  and  C_9
REMARK                            x       y       z     vdW  Elec       q    Type
REMARK                         _______ _______ _______ _____ _____    ______ ____
ROOT
ATOM      1  C   UNL     1       4.071   4.257  17.810  0.00  0.00    +0.000 A 
ATOM      2  N   UNL     1       4.348   3.006  18.277  0.00  0.00    +0.000 NA
ATOM      3  C   UNL     1       3.900   2.596  19.475  0.00  0.00    +0.000 A 
ATOM      4  C   UNL     1       3.196   3.392  20.348  0.00  0.00    +0.000 A 
ATOM      5  C   UNL     1       2.961   4.690  19.908  0.00  0.00    +0.000 A 
ATOM      6  N   UNL     1       2.298   5.700  20.557  0.00  0.00    +0.000 N 
ATOM      7  C   UNL     1       2.237   6.831  19.790  0.00  0.00    +0.000 A 
ATOM      8  C   UNL     1       1.627   8.062  20.061  0.00  0.00    +0.000 A 
ATOM      9  C   UNL     1       1.678   9.057  19.084  0.00  0.00    +0.000 A 
ATOM     10  C   UNL     1       2.372   8.848  17.906  0.00  0.00    +0.000 A 
ATOM     11  C   UNL     1       3.026   7.636  17.689  0.00  0.00    +0.000 A 
ATOM     12  C   UNL     1       2.931   6.560  18.609  0.00  0.00    +0.000 A 
ATOM     13  C   UNL     1       3.374   5.170  18.658  0.00  0.00    +0.000 A 
ATOM     14  H   UNL     1       1.893   5.620  21.479  0.00  0.00    +0.000 HD
ENDROOT
BRANCH   1  15
ATOM     15  N   UNL     1       4.503   4.454  16.507  0.00  0.00    +0.000 N 
ATOM     16  H   UNL     1       3.862   4.000  15.862  0.00  0.00    +0.000 HD
BRANCH  15  17
ATOM     17  C   UNL     1       5.899   4.352  16.191  0.00  0.00    +0.000 C 
BRANCH  17  23
ATOM     18  C   UNL     1       7.615   8.865  17.539  0.00  0.00    +0.000 C 
ATOM     19  C   UNL     1       7.563   7.387  17.770  0.00  0.00    +0.000 A 
ATOM     20  C   UNL     1       8.194   6.788  18.867  0.00  0.00    +0.000 A 
ATOM     21  C   UNL     1       8.118   5.408  19.060  0.00  0.00    +0.000 A 
ATOM     22  C   UNL     1       7.417   4.621  18.155  0.00  0.00    +0.000 A 
ATOM     23  C   UNL     1       6.791   5.205  17.043  0.00  0.00    +0.000 A 
ATOM     24  C   UNL     1       6.855   6.590  16.871  0.00  0.00    +0.000 A 
ENDBRANCH  17  23
ENDBRANCH  15  17
ENDBRANCH   1  15
TORSDOF 3
ENDMDL
MODEL 3
REMARK VINA RESULT:      -8.7      2.439      6.335
REMARK  Name = 
REMARK  4 active torsions:
REMARK  status: ('A' for Active; 'I' for Inactive)
REMARK    1  A    between atoms: C_1  and  C_2
REMARK    2  A    between atoms: C_6  and  C_7
REMARK    3  A    between atoms: C_7  and  N_8
REMARK    4  A    between atoms: N_8  and  C_9
REMARK                            x       y       z     vdW  Elec       q    Type
REMARK                         _______ _______ _______ _____ _____    ______ ____
ROOT
ATOM      1  C   UNL     1       2.605   3.545  18.854  0.00  0.00    +0.000 A 
ATOM      2  N   UNL     1       2.576   2.419  19.624  0.00  0.00    +0.000 NA
ATOM      3  C   UNL     1       2.184   2.465  20.909  0.00  0.00    +0.000 A 
ATOM      4  C   UNL     1       1.847   3.622  21.571  0.00  0.00    +0.000 A 
ATOM      5  C   UNL     1       1.933   4.785  20.812  0.00  0.00    +0.000 A 
ATOM      6  N   UNL     1       1.667   6.073  21.200  0.00  0.00    +0.000 N 
ATOM      7  C   UNL     1       1.831   6.950  20.163  0.00  0.00    +0.000 A 
ATOM      8  C   UNL     1       1.629   8.335  20.125  0.00  0.00    +0.000 A 
ATOM      9  C   UNL     1       1.836   9.003  18.917  0.00  0.00    +0.000 A 
ATOM     10  C   UNL     1       2.289   8.316  17.805  0.00  0.00    +0.000 A 
ATOM     11  C   UNL     1       2.544   6.948  17.888  0.00  0.00    +0.000 A 
ATOM     12  C   UNL     1       2.267   6.206  19.065  0.00  0.00    +0.000 A 
ATOM     13  C   UNL     1       2.305   4.802  19.462  0.00  0.00    +0.000 A 
ATOM     14  H   UNL     1       1.375   6.344  22.129  0.00  0.00    +0.000 HD
ENDROOT
BRANCH   1  15
ATOM     15  N   UNL     1       2.908   3.282  17.527  0.00  0.00    +0.000 N 
ATOM     16  H   UNL     1       2.233   2.624  17.146  0.00  0.00    +0.000 HD
BRANCH  15  17
ATOM     17  C   UNL     1       4.272   3.095  17.127  0.00  0.00    +0.000 C 
BRANCH  17  23
ATOM     18  C   UNL     1       7.837   5.844  19.334  0.00  0.00    +0.000 C 
ATOM     19  C   UNL     1       6.899   5.636  18.186  0.00  0.00    +0.000 A 
ATOM     20  C   UNL     1       6.896   6.483  17.072  0.00  0.00    +0.000 A 
ATOM     21  C   UNL     1       6.016   6.256  16.013  0.00  0.00    +0.000 A 
ATOM     22  C   UNL     1       5.131   5.186  16.066  0.00  0.00    +0.000 A 
ATOM     23  C   UNL     1       5.112   4.336  17.184  0.00  0.00    +0.000 A 
ATOM     24  C   UNL     1       6.012   4.560  18.229  0.00  0.00    +0.000 A 
ENDBRANCH  17  23
ENDBRANCH  15  17
ENDBRANCH   1  15
TORSDOF 3
ENDMDL
MODEL 4
REMARK VINA RESULT:      -8.6      1.913      6.549
REMARK  Name = 
REMARK  4 active torsions:
REMARK  status: ('A' for Active; 'I' for Inactive)
REMARK    1  A    between atoms: C_1  and  C_2
REMARK    2  A    between atoms: C_6  and  C_7
REMARK    3  A    between atoms: C_7  and  N_8
REMARK    4  A    between atoms: N_8  and  C_9
REMARK                            x       y       z     vdW  Elec       q    Type
REMARK                         _______ _______ _______ _____ _____    ______ ____
ROOT
ATOM      1  C   UNL     1       3.919   3.529  19.392  0.00  0.00    +0.000 A 
ATOM      2  N   UNL     1       3.774   2.501  20.276  0.00  0.00    +0.000 NA
ATOM      3  C   UNL     1       2.916   2.586  21.307  0.00  0.00    +0.000 A 
ATOM      4  C   UNL     1       2.172   3.705  21.599  0.00  0.00    +0.000 A 
ATOM      5  C   UNL     1       2.359   4.782  20.740  0.00  0.00    +0.000 A 
ATOM      6  N   UNL     1       1.764   6.017  20.784  0.00  0.00    +0.000 N 
ATOM      7  C   UNL     1       2.174   6.805  19.744  0.00  0.00    +0.000 A 
ATOM      8  C   UNL     1       1.786   8.108  19.405  0.00  0.00    +0.000 A 
ATOM      9  C   UNL     1       2.334   8.685  18.259  0.00  0.00    +0.000 A 
ATOM     10  C   UNL     1       3.283   8.006  17.516  0.00  0.00    +0.000 A 
ATOM     11  C   UNL     1       3.699   6.736  17.913  0.00  0.00    +0.000 A 
ATOM     12  C   UNL     1       3.111   6.068  19.018  0.00  0.00    +0.000 A 
ATOM     13  C   UNL     1       3.214   4.748  19.631  0.00  0.00    +0.000 A 
ATOM     14  H   UNL     1       1.098   6.308  21.486  0.00  0.00    +0.000 HD
ENDROOT
BRANCH   1  15
ATOM     15  N   UNL     1       4.747   3.210  18.326  0.00  0.00    +0.000 N 
ATOM     16  H   UNL     1       5.700   3.497  18.535  0.00  0.00    +0.000 HD
BRANCH  15  17
ATOM     17  C   UNL     1       4.300   3.429  16.981  0.00  0.00    +0.000 C 
BRANCH  17  23
ATOM     18  C   UNL     1       6.225   3.533  12.353  0.00  0.00    +0.000 C 
ATOM     19  C   UNL     1       6.277   3.987  13.779  0.00  0.00    +0.000 A 
ATOM     20  C   UNL     1       7.213   4.930  14.219  0.00  0.00    +0.000 A 
ATOM     21  C   UNL     1       7.230   5.340  15.553  0.00  0.00    +0.000 A 
ATOM     22  C   UNL     1       6.315   4.806  16.453  0.00  0.00    +0.000 A 
ATOM     23  C   UNL     1       5.380   3.848  16.029  0.00  0.00    +0.000 A 
ATOM     24  C   UNL     1       5.358   3.461  14.686  0.00  0.00    +0.000 A 
ENDBRANCH  17  23
ENDBRANCH  15  17
ENDBRANCH   1  15
TORSDOF 3
ENDMDL
MODEL 5
REMARK VINA RESULT:      -8.6      0.524      1.398
REMARK  Name = 
REMARK  4 active torsions:
REMARK  status: ('A' for Active; 'I' for Inactive)
REMARK    1  A    between atoms: C_1  and  C_2
REMARK    2  A    between atoms: C_6  and  C_7
REMARK    3  A    between atoms: C_7  and  N_8
REMARK    4  A    between atoms: N_8  and  C_9
REMARK                            x       y       z     vdW  Elec       q    Type
REMARK                         _______ _______ _______ _____ _____    ______ ____
ROOT
ATOM      1  C   UNL     1       5.404   3.909  17.117  0.00  0.00    +0.000 A 
ATOM      2  N   UNL     1       5.646   4.393  18.369  0.00  0.00    +0.000 NA
ATOM      3  C   UNL     1       6.548   5.367  18.576  0.00  0.00    +0.000 A 
ATOM      4  C   UNL     1       7.336   5.910  17.588  0.00  0.00    +0.000 A 
ATOM      5  C   UNL     1       7.140   5.380  16.317  0.00  0.00    +0.000 A 
ATOM      6  N   UNL     1       7.778   5.717  15.150  0.00  0.00    +0.000 N 
ATOM      7  C   UNL     1       7.291   5.000  14.092  0.00  0.00    +0.000 A 
ATOM      8  C   UNL     1       7.638   5.063  12.736  0.00  0.00    +0.000 A 
ATOM      9  C   UNL     1       6.958   4.239  11.839  0.00  0.00    +0.000 A 
ATOM     10  C   UNL     1       6.009   3.340  12.292  0.00  0.00    +0.000 A 
ATOM     11  C   UNL     1       5.730   3.252  13.655  0.00  0.00    +0.000 A 
ATOM     12  C   UNL     1       6.327   4.127  14.599  0.00  0.00    +0.000 A 
ATOM     13  C   UNL     1       6.196   4.386  16.029  0.00  0.00    +0.000 A 
ATOM     14  H   UNL     1       8.506   6.413  15.075  0.00  0.00    +0.000 HD
ENDROOT
BRANCH   1  15
ATOM     15  N   UNL     1       4.353   3.005  17.082  0.00  0.00    +0.000 N 
ATOM     16  H   UNL     1       4.583   2.237  16.457  0.00  0.00    +0.000 HD
BRANCH  15  17
ATOM     17  C   UNL     1       3.000   3.480  17.033  0.00  0.00    +0.000 C 
BRANCH  17  23
ATOM     18  C   UNL     1       1.638   6.641  20.678  0.00  0.00    +0.000 C 
ATOM     19  C   UNL     1       1.633   5.257  20.106  0.00  0.00    +0.000 A 
ATOM     20  C   UNL     1       0.920   4.213  20.707  0.00  0.00    +0.000 A 
ATOM     21  C   UNL     1       0.927   2.936  20.144  0.00  0.00    +0.000 A 
ATOM     22  C   UNL     1       1.650   2.697  18.982  0.00  0.00    +0.000 A 
ATOM     23  C   UNL     1       2.382   3.730  18.376  0.00  0.00    +0.000 A 
ATOM     24  C   UNL     1       2.350   5.010  18.936  0.00  0.00    +0.000 A 
ENDBRANCH  17  23
ENDBRANCH  15  17
ENDBRANCH   1  15
TORSDOF 3
ENDMDL
MODEL 6
REMARK VINA RESULT:      -8.6      2.747      5.817
REMARK  Name = 
REMARK  4 active torsions:
REMARK  status: ('A' for Active; 'I' for Inactive)
REMARK    1  A    between atoms: C_1  and  C_2
REMARK    2  A    between atoms: C_6  and  C_7
REMARK    3  A    between atoms: C_7  and  N_8
REMARK    4  A    between atoms: N_8  and  C_9
REMARK                            x       y       z     vdW  Elec       q    Type
REMARK                         _______ _______ _______ _____ _____    ______ ____
ROOT
ATOM      1  C   UNL     1       4.048   6.445  17.452  0.00  0.00    +0.000 A 
ATOM      2  N   UNL     1       4.972   6.587  16.460  0.00  0.00    +0.000 NA
ATOM      3  C   UNL     1       5.419   5.524  15.769  0.00  0.00    +0.000 A 
ATOM      4  C   UNL     1       5.048   4.226  16.028  0.00  0.00    +0.000 A 
ATOM      5  C   UNL     1       4.152   4.064  17.079  0.00  0.00    +0.000 A 
ATOM      6  N   UNL     1       3.615   2.899  17.565  0.00  0.00    +0.000 N 
ATOM      7  C   UNL     1       2.741   3.143  18.589  0.00  0.00    +0.000 A 
ATOM      8  C   UNL     1       1.960   2.245  19.329  0.00  0.00    +0.000 A 
ATOM      9  C   UNL     1       1.111   2.758  20.311  0.00  0.00    +0.000 A 
ATOM     10  C   UNL     1       1.093   4.114  20.584  0.00  0.00    +0.000 A 
ATOM     11  C   UNL     1       1.929   4.977  19.877  0.00  0.00    +0.000 A 
ATOM     12  C   UNL     1       2.745   4.521  18.810  0.00  0.00    +0.000 A 
ATOM     13  C   UNL     1       3.626   5.131  17.819  0.00  0.00    +0.000 A 
ATOM     14  H   UNL     1       3.825   1.978  17.208  0.00  0.00    +0.000 HD
ENDROOT
BRANCH   1  15
ATOM     15  N   UNL     1       3.613   7.660  17.961  0.00  0.00    +0.000 N 
ATOM     16  H   UNL     1       3.692   7.654  18.975  0.00  0.00    +0.000 HD
BRANCH  15  17
ATOM     17  C   UNL     1       2.440   8.285  17.420  0.00  0.00    +0.000 C 
BRANCH  17  23
ATOM     18  C   UNL     1       1.127   8.923  22.216  0.00  0.00    +0.000 C 
ATOM     19  C   UNL     1       0.892   9.218  20.767  0.00  0.00    +0.000 A 
ATOM     20  C   UNL     1      -0.092  10.121  20.348  0.00  0.00    +0.000 A 
ATOM     21  C   UNL     1      -0.280  10.384  18.991  0.00  0.00    +0.000 A 
ATOM     22  C   UNL     1       0.510   9.740  18.046  0.00  0.00    +0.000 A 
ATOM     23  C   UNL     1       1.492   8.821  18.450  0.00  0.00    +0.000 A 
ATOM     24  C   UNL     1       1.686   8.583  19.813  0.00  0.00    +0.000 A 
ENDBRANCH  17  23
ENDBRANCH  15  17
ENDBRANCH   1  15
TORSDOF 3
ENDMDL
MODEL 7
REMARK VINA RESULT:      -8.6      2.831      5.961
REMARK  Name = 
REMARK  4 active torsions:
REMARK  status: ('A' for Active; 'I' for Inactive)
REMARK    1  A    between atoms: C_1  and  C_2
REMARK    2  A    between atoms: C_6  and  C_7
REMARK    3  A    between atoms: C_7  and  N_8
REMARK    4  A    between atoms: N_8  and  C_9
REMARK                            x       y       z     vdW  Elec       q    Type
REMARK                         _______ _______ _______ _____ _____    ______ ____
ROOT
ATOM      1  C   UNL     1       4.065   6.449  17.392  0.00  0.00    +0.000 A 
ATOM      2  N   UNL     1       4.996   6.605  16.408  0.00  0.00    +0.000 NA
ATOM      3  C   UNL     1       5.443   5.553  15.700  0.00  0.00    +0.000 A 
ATOM      4  C   UNL     1       5.064   4.252  15.932  0.00  0.00    +0.000 A 
ATOM      5  C   UNL     1       4.161   4.075  16.974  0.00  0.00    +0.000 A 
ATOM      6  N   UNL     1       3.615   2.904  17.435  0.00  0.00    +0.000 N 
ATOM      7  C   UNL     1       2.735   3.132  18.457  0.00  0.00    +0.000 A 
ATOM      8  C   UNL     1       1.946   2.224  19.175  0.00  0.00    +0.000 A 
ATOM      9  C   UNL     1       1.093   2.722  20.161  0.00  0.00    +0.000 A 
ATOM     10  C   UNL     1       1.080   4.073  20.460  0.00  0.00    +0.000 A 
ATOM     11  C   UNL     1       1.924   4.946  19.774  0.00  0.00    +0.000 A 
ATOM     12  C   UNL     1       2.744   4.506  18.704  0.00  0.00    +0.000 A 
ATOM     13  C   UNL     1       3.635   5.130  17.731  0.00  0.00    +0.000 A 
ATOM     14  H   UNL     1       3.823   1.988  17.062  0.00  0.00    +0.000 HD
ENDROOT
BRANCH   1  15
ATOM     15  N   UNL     1       3.633   7.656  17.920  0.00  0.00    +0.000 N 
ATOM     16  H   UNL     1       3.910   7.721  18.896  0.00  0.00    +0.000 HD
BRANCH  15  17
ATOM     17  C   UNL     1       2.325   8.151  17.599  0.00  0.00    +0.000 C 
BRANCH  17  23
ATOM     18  C   UNL     1      -1.129  11.334  19.354  0.00  0.00    +0.000 C 
ATOM     19  C   UNL     1      -0.130  10.248  19.611  0.00  0.00    +0.000 A 
ATOM     20  C   UNL     1       0.032   9.680  20.880  0.00  0.00    +0.000 A 
ATOM     21  C   UNL     1       0.964   8.663  21.086  0.00  0.00    +0.000 A 
ATOM     22  C   UNL     1       1.742   8.212  20.026  0.00  0.00    +0.000 A 
ATOM     23  C   UNL     1       1.601   8.782  18.751  0.00  0.00    +0.000 A 
ATOM     24  C   UNL     1       0.649   9.785  18.551  0.00  0.00    +0.000 A 
ENDBRANCH  17  23
ENDBRANCH  15  17
ENDBRANCH   1  15
TORSDOF 3
ENDMDL
MODEL 8
REMARK VINA RESULT:      -8.5      3.342      5.635
REMARK  Name = 
REMARK  4 active torsions:
REMARK  status: ('A' for Active; 'I' for Inactive)
REMARK    1  A    between atoms: C_1  and  C_2
REMARK    2  A    between atoms: C_6  and  C_7
REMARK    3  A    between atoms: C_7  and  N_8
REMARK    4  A    between atoms: N_8  and  C_9
REMARK                            x       y       z     vdW  Elec       q    Type
REMARK                         _______ _______ _______ _____ _____    ______ ____
ROOT
ATOM      1  C   UNL     1       2.129   5.480  19.948  0.00  0.00    +0.000 A 
ATOM      2  N   UNL     1       1.221   4.725  20.630  0.00  0.00    +0.000 NA
ATOM      3  C   UNL     1       1.009   3.437  20.313  0.00  0.00    +0.000 A 
ATOM      4  C   UNL     1       1.619   2.792  19.262  0.00  0.00    +0.000 A 
ATOM      5  C   UNL     1       2.501   3.571  18.521  0.00  0.00    +0.000 A 
ATOM      6  N   UNL     1       3.243   3.205  17.427  0.00  0.00    +0.000 N 
ATOM      7  C   UNL     1       4.025   4.238  16.987  0.00  0.00    +0.000 A 
ATOM      8  C   UNL     1       4.945   4.273  15.932  0.00  0.00    +0.000 A 
ATOM      9  C   UNL     1       5.652   5.456  15.708  0.00  0.00    +0.000 A 
ATOM     10  C   UNL     1       5.397   6.580  16.473  0.00  0.00    +0.000 A 
ATOM     11  C   UNL     1       4.428   6.536  17.474  0.00  0.00    +0.000 A 
ATOM     12  C   UNL     1       3.746   5.336  17.802  0.00  0.00    +0.000 A 
ATOM     13  C   UNL     1       2.789   4.909  18.818  0.00  0.00    +0.000 A 
ATOM     14  H   UNL     1       3.226   2.288  17.003  0.00  0.00    +0.000 HD
ENDROOT
BRANCH   1  15
ATOM     15  N   UNL     1       2.304   6.741  20.499  0.00  0.00    +0.000 N 
ATOM     16  H   UNL     1       2.097   6.711  21.494  0.00  0.00    +0.000 HD
BRANCH  15  17
ATOM     17  C   UNL     1       1.848   7.902  19.791  0.00  0.00    +0.000 C 
BRANCH  17  23
ATOM     18  C   UNL     1      -1.358  11.735  20.203  0.00  0.00    +0.000 C 
ATOM     19  C   UNL     1      -0.520  10.682  20.859  0.00  0.00    +0.000 A 
ATOM     20  C   UNL     1      -0.541  10.479  22.244  0.00  0.00    +0.000 A 
ATOM     21  C   UNL     1       0.244   9.482  22.825  0.00  0.00    +0.000 A 
ATOM     22  C   UNL     1       1.057   8.688  22.026  0.00  0.00    +0.000 A 
ATOM     23  C   UNL     1       1.100   8.889  20.637  0.00  0.00    +0.000 A 
ATOM     24  C   UNL     1       0.294   9.876  20.063  0.00  0.00    +0.000 A 
ENDBRANCH  17  23
ENDBRANCH  15  17
ENDBRANCH   1  15
TORSDOF 3
ENDMDL
MODEL 9
REMARK VINA RESULT:      -8.5      2.570      6.817
REMARK  Name = 
REMARK  4 active torsions:
REMARK  status: ('A' for Active; 'I' for Inactive)
REMARK    1  A    between atoms: C_1  and  C_2
REMARK    2  A    between atoms: C_6  and  C_7
REMARK    3  A    between atoms: C_7  and  N_8
REMARK    4  A    between atoms: N_8  and  C_9
REMARK                            x       y       z     vdW  Elec       q    Type
REMARK                         _______ _______ _______ _____ _____    ______ ____
ROOT
ATOM      1  C   UNL     1       3.405   5.143  18.307  0.00  0.00    +0.000 A 
ATOM      2  N   UNL     1       3.616   3.929  18.891  0.00  0.00    +0.000 NA
ATOM      3  C   UNL     1       3.118   3.646  20.107  0.00  0.00    +0.000 A 
ATOM      4  C   UNL     1       2.423   4.544  20.883  0.00  0.00    +0.000 A 
ATOM      5  C   UNL     1       2.256   5.806  20.322  0.00  0.00    +0.000 A 
ATOM      6  N   UNL     1       1.618   6.895  20.858  0.00  0.00    +0.000 N 
ATOM      7  C   UNL     1       1.626   7.954  19.992  0.00  0.00    +0.000 A 
ATOM      8  C   UNL     1       1.060   9.227  20.135  0.00  0.00    +0.000 A 
ATOM      9  C   UNL     1       1.181  10.128  19.075  0.00  0.00    +0.000 A 
ATOM     10  C   UNL     1       1.898   9.787  17.943  0.00  0.00    +0.000 A 
ATOM     11  C   UNL     1       2.507   8.536  17.855  0.00  0.00    +0.000 A 
ATOM     12  C   UNL     1       2.341   7.552  18.863  0.00  0.00    +0.000 A 
ATOM     13  C   UNL     1       2.724   6.155  19.049  0.00  0.00    +0.000 A 
ATOM     14  H   UNL     1       1.184   6.914  21.771  0.00  0.00    +0.000 HD
ENDROOT
BRANCH   1  15
ATOM     15  N   UNL     1       3.881   5.205  17.006  0.00  0.00    +0.000 N 
ATOM     16  H   UNL     1       3.134   4.973  16.357  0.00  0.00    +0.000 HD
BRANCH  15  17
ATOM     17  C   UNL     1       5.179   4.681  16.692  0.00  0.00    +0.000 C 
BRANCH  17  23
ATOM     18  C   UNL     1       7.772   8.891  17.523  0.00  0.00    +0.000 C 
ATOM     19  C   UNL     1       7.524   7.449  17.839  0.00  0.00    +0.000 A 
ATOM     20  C   UNL     1       8.214   6.788  18.862  0.00  0.00    +0.000 A 
ATOM     21  C   UNL     1       7.954   5.446  19.139  0.00  0.00    +0.000 A 
ATOM     22  C   UNL     1       7.006   4.757  18.392  0.00  0.00    +0.000 A 
ATOM     23  C   UNL     1       6.315   5.402  17.354  0.00  0.00    +0.000 A 
ATOM     24  C   UNL     1       6.569   6.752  17.099  0.00  0.00    +0.000 A 
ENDBRANCH  17  23
ENDBRANCH  15  17
ENDBRANCH   1  15
TORSDOF 3
ENDMDL
