MODEL 1
REMARK VINA RESULT:      -8.9      0.000      0.000
REMARK  Name = 
REMARK  7 active torsions:
REMARK  status: ('A' for Active; 'I' for Inactive)
REMARK    1  A    between atoms: C_1  and  O_2
REMARK    2  A    between atoms: O_2  and  C_3
REMARK    3  A    between atoms: C_5  and  C_6
REMARK    4  A    between atoms: C_9  and  C_10
REMARK    5  A    between atoms: C_24  and  O_25
REMARK    6  A    between atoms: O_25  and  C_26
REMARK    7  A    between atoms: C_27  and  O_28
REMARK                            x       y       z     vdW  Elec       q    Type
REMARK                         _______ _______ _______ _____ _____    ______ ____
ROOT
ATOM      1  C   UNL     1       2.727   7.194  18.654  0.00  0.00    +0.000 A 
ATOM      2  C   UNL     1       2.775   8.030  17.555  0.00  0.00    +0.000 A 
ATOM      3  C   UNL     1       2.011   9.177  17.877  0.00  0.00    +0.000 A 
ATOM      4  C   UNL     1       1.508   8.976  19.146  0.00  0.00    +0.000 A 
ATOM      5  O   UNL     1       1.947   7.769  19.622  0.00  0.00    +0.000 OA
ENDROOT
BRANCH   4   6
ATOM      6  C   UNL     1       0.651   9.771  20.019  0.00  0.00    +0.000 A 
ATOM      7  C   UNL     1       0.827   9.815  21.378  0.00  0.00    +0.000 A 
ATOM      8  C   UNL     1      -0.056  10.616  22.052  0.00  0.00    +0.000 A 
ATOM      9  N   UNL     1      -1.032  11.320  21.446  0.00  0.00    +0.000 NA
ATOM     10  C   UNL     1      -1.143  11.227  20.113  0.00  0.00    +0.000 A 
ATOM     11  N   UNL     1      -2.117  11.949  19.478  0.00  0.00    +0.000 N 
ATOM     12  C   UNL     1      -3.019  12.837  20.210  0.00  0.00    +0.000 C 
ATOM     13  C   UNL     1      -4.474  12.387  20.013  0.00  0.00    +0.000 C 
ATOM     14  O   UNL     1      -4.807  12.260  18.618  0.00  0.00    +0.000 OA
ATOM     15  C   UNL     1      -3.948  11.292  17.991  0.00  0.00    +0.000 C 
ATOM     16  C   UNL     1      -2.469  11.700  18.084  0.00  0.00    +0.000 C 
ATOM     17  N   UNL     1      -0.321  10.459  19.379  0.00  0.00    +0.000 NA
ENDBRANCH   4   6
BRANCH   1  20
ATOM     18  C   UNL     1       3.094   3.580  19.729  0.00  0.00    +0.000 A 
ATOM     19  C   UNL     1       2.560   4.852  19.470  0.00  0.00    +0.000 A 
ATOM     20  C   UNL     1       3.344   5.905  18.975  0.00  0.00    +0.000 A 
ATOM     21  C   UNL     1       4.712   5.666  18.784  0.00  0.00    +0.000 A 
ATOM     22  C   UNL     1       5.270   4.405  19.034  0.00  0.00    +0.000 A 
ATOM     23  C   UNL     1       4.458   3.362  19.508  0.00  0.00    +0.000 A 
BRANCH  18  25
ATOM     24  C   UNL     1       1.887   2.728  21.620  0.00  0.00    +0.000 C 
ATOM     25  O   UNL     1       2.160   2.711  20.227  0.00  0.00    +0.000 OA
ENDBRANCH  18  25
BRANCH  22  26
ATOM     26  O   UNL     1       6.635   4.337  18.893  0.00  0.00    +0.000 OA
ATOM     27  C   UNL     1       7.159   4.738  17.629  0.00  0.00    +0.000 C 
ENDBRANCH  22  26
BRANCH  23  28
ATOM     28  O   UNL     1       5.019   2.156  19.821  0.00  0.00    +0.000 OA
ATOM     29  H   UNL     1       5.167   2.184  20.777  0.00  0.00    +0.000 HD
ENDBRANCH  23  28
ENDBRANCH   1  20
TORSDOF 5
ENDMDL
MODEL 2
REMARK VINA RESULT:      -8.8      2.012      2.104
REMARK  Name = 
REMARK  7 active torsions:
REMARK  status: ('A' for Active; 'I' for Inactive)
REMARK    1  A    between atoms: C_1  and  O_2
REMARK    2  A    between atoms: O_2  and  C_3
REMARK    3  A    between atoms: C_5  and  C_6
REMARK    4  A    between atoms: C_9  and  C_10
REMARK    5  A    between atoms: C_24  and  O_25
REMARK    6  A    between atoms: O_25  and  C_26
REMARK    7  A    between atoms: C_27  and  O_28
REMARK                            x       y       z     vdW  Elec       q    Type
REMARK                         _______ _______ _______ _____ _____    ______ ____
ROOT
ATOM      1  C   UNL     1       2.494   7.020  19.168  0.00  0.00    +0.000 A 
ATOM      2  C   UNL     1       2.308   7.871  18.095  0.00  0.00    +0.000 A 
ATOM      3  C   UNL     1       1.619   9.006  18.585  0.00  0.00    +0.000 A 
ATOM      4  C   UNL     1       1.391   8.783  19.928  0.00  0.00    +0.000 A 
ATOM      5  O   UNL     1       1.929   7.574  20.285  0.00  0.00    +0.000 OA
ENDROOT
BRANCH   4   6
ATOM      6  C   UNL     1       0.730   9.558  20.972  0.00  0.00    +0.000 A 
ATOM      7  C   UNL     1       0.180   8.974  22.084  0.00  0.00    +0.000 A 
ATOM      8  C   UNL     1      -0.396   9.843  22.972  0.00  0.00    +0.000 A 
ATOM      9  N   UNL     1      -0.431  11.178  22.789  0.00  0.00    +0.000 NA
ATOM     10  C   UNL     1       0.126  11.677  21.676  0.00  0.00    +0.000 A 
ATOM     11  N   UNL     1       0.116  13.032  21.481  0.00  0.00    +0.000 N 
ATOM     12  C   UNL     1      -0.461  13.947  22.464  0.00  0.00    +0.000 C 
ATOM     13  C   UNL     1      -1.609  14.745  21.829  0.00  0.00    +0.000 C 
ATOM     14  O   UNL     1      -1.193  15.400  20.617  0.00  0.00    +0.000 OA
ATOM     15  C   UNL     1      -0.740  14.426  19.659  0.00  0.00    +0.000 C 
ATOM     16  C   UNL     1       0.458  13.623  20.192  0.00  0.00    +0.000 C 
ATOM     17  N   UNL     1       0.706  10.892  20.753  0.00  0.00    +0.000 NA
ENDBRANCH   4   6
BRANCH   1  20
ATOM     18  C   UNL     1       3.049   3.340  19.878  0.00  0.00    +0.000 A 
ATOM     19  C   UNL     1       2.456   4.608  19.768  0.00  0.00    +0.000 A 
ATOM     20  C   UNL     1       3.175   5.733  19.335  0.00  0.00    +0.000 A 
ATOM     21  C   UNL     1       4.537   5.569  19.053  0.00  0.00    +0.000 A 
ATOM     22  C   UNL     1       5.154   4.313  19.155  0.00  0.00    +0.000 A 
ATOM     23  C   UNL     1       4.406   3.199  19.569  0.00  0.00    +0.000 A 
BRANCH  18  25
ATOM     24  C   UNL     1       1.525   2.610  21.582  0.00  0.00    +0.000 C 
ATOM     25  O   UNL     1       2.175   2.391  20.339  0.00  0.00    +0.000 OA
ENDBRANCH  18  25
BRANCH  22  26
ATOM     26  O   UNL     1       6.510   4.315  18.940  0.00  0.00    +0.000 OA
ATOM     27  C   UNL     1       6.942   4.706  17.637  0.00  0.00    +0.000 C 
ENDBRANCH  22  26
BRANCH  23  28
ATOM     28  O   UNL     1       5.026   1.994  19.739  0.00  0.00    +0.000 OA
ATOM     29  H   UNL     1       5.252   1.694  18.848  0.00  0.00    +0.000 HD
ENDBRANCH  23  28
ENDBRANCH   1  20
TORSDOF 5
ENDMDL
MODEL 3
REMARK VINA RESULT:      -8.8      0.090      2.448
REMARK  Name = 
REMARK  7 active torsions:
REMARK  status: ('A' for Active; 'I' for Inactive)
REMARK    1  A    between atoms: C_1  and  O_2
REMARK    2  A    between atoms: O_2  and  C_3
REMARK    3  A    between atoms: C_5  and  C_6
REMARK    4  A    between atoms: C_9  and  C_10
REMARK    5  A    between atoms: C_24  and  O_25
REMARK    6  A    between atoms: O_25  and  C_26
REMARK    7  A    between atoms: C_27  and  O_28
REMARK                            x       y       z     vdW  Elec       q    Type
REMARK                         _______ _______ _______ _____ _____    ______ ____
ROOT
ATOM      1  C   UNL     1       2.690   7.198  18.630  0.00  0.00    +0.000 A 
ATOM      2  C   UNL     1       2.784   8.069  17.561  0.00  0.00    +0.000 A 
ATOM      3  C   UNL     1       2.034   9.220  17.901  0.00  0.00    +0.000 A 
ATOM      4  C   UNL     1       1.493   8.988  19.149  0.00  0.00    +0.000 A 
ATOM      5  O   UNL     1       1.896   7.757  19.596  0.00  0.00    +0.000 OA
ENDROOT
BRANCH   4   6
ATOM      6  C   UNL     1       0.630   9.772  20.025  0.00  0.00    +0.000 A 
ATOM      7  C   UNL     1       0.793   9.795  21.387  0.00  0.00    +0.000 A 
ATOM      8  C   UNL     1      -0.095  10.588  22.065  0.00  0.00    +0.000 A 
ATOM      9  N   UNL     1      -1.064  11.303  21.459  0.00  0.00    +0.000 NA
ATOM     10  C   UNL     1      -1.163  11.229  20.125  0.00  0.00    +0.000 A 
ATOM     11  N   UNL     1      -2.130  11.963  19.491  0.00  0.00    +0.000 N 
ATOM     12  C   UNL     1      -3.037  12.842  20.227  0.00  0.00    +0.000 C 
ATOM     13  C   UNL     1      -4.490  12.397  20.010  0.00  0.00    +0.000 C 
ATOM     14  O   UNL     1      -4.810  12.292  18.611  0.00  0.00    +0.000 OA
ATOM     15  C   UNL     1      -3.947  11.331  17.977  0.00  0.00    +0.000 C 
ATOM     16  C   UNL     1      -2.468  11.735  18.090  0.00  0.00    +0.000 C 
ATOM     17  N   UNL     1      -0.334  10.471  19.387  0.00  0.00    +0.000 NA
ENDBRANCH   4   6
BRANCH   1  20
ATOM     18  C   UNL     1       5.263   4.455  19.080  0.00  0.00    +0.000 A 
ATOM     19  C   UNL     1       4.649   5.673  18.748  0.00  0.00    +0.000 A 
ATOM     20  C   UNL     1       3.273   5.887  18.924  0.00  0.00    +0.000 A 
ATOM     21  C   UNL     1       2.503   4.820  19.405  0.00  0.00    +0.000 A 
ATOM     22  C   UNL     1       3.092   3.594  19.744  0.00  0.00    +0.000 A 
ATOM     23  C   UNL     1       4.475   3.414  19.580  0.00  0.00    +0.000 A 
BRANCH  18  25
ATOM     24  C   UNL     1       7.028   4.580  17.458  0.00  0.00    +0.000 C 
ATOM     25  O   UNL     1       6.606   4.455  18.808  0.00  0.00    +0.000 OA
ENDBRANCH  18  25
BRANCH  22  26
ATOM     26  O   UNL     1       2.209   2.609  20.114  0.00  0.00    +0.000 OA
ATOM     27  C   UNL     1       1.752   2.647  21.465  0.00  0.00    +0.000 C 
ENDBRANCH  22  26
BRANCH  23  28
ATOM     28  O   UNL     1       5.034   2.195  19.840  0.00  0.00    +0.000 OA
ATOM     29  H   UNL     1       5.989   2.349  19.854  0.00  0.00    +0.000 HD
ENDBRANCH  23  28
ENDBRANCH   1  20
TORSDOF 5
ENDMDL
MODEL 4
REMARK VINA RESULT:      -8.8      1.119      1.306
REMARK  Name = 
REMARK  7 active torsions:
REMARK  status: ('A' for Active; 'I' for Inactive)
REMARK    1  A    between atoms: C_1  and  O_2
REMARK    2  A    between atoms: O_2  and  C_3
REMARK    3  A    between atoms: C_5  and  C_6
REMARK    4  A    between atoms: C_9  and  C_10
REMARK    5  A    between atoms: C_24  and  O_25
REMARK    6  A    between atoms: O_25  and  C_26
REMARK    7  A    between atoms: C_27  and  O_28
REMARK                            x       y       z     vdW  Elec       q    Type
REMARK                         _______ _______ _______ _____ _____    ______ ____
ROOT
ATOM      1  C   UNL     1       2.456   7.113  19.262  0.00  0.00    +0.000 A 
ATOM      2  C   UNL     1       2.260   8.026  18.243  0.00  0.00    +0.000 A 
ATOM      3  C   UNL     1       1.505   9.093  18.786  0.00  0.00    +0.000 A 
ATOM      4  C   UNL     1       1.250   8.770  20.103  0.00  0.00    +0.000 A 
ATOM      5  O   UNL     1       1.832   7.564  20.395  0.00  0.00    +0.000 OA
ENDROOT
BRANCH   4   6
ATOM      6  C   UNL     1       0.523   9.442  21.174  0.00  0.00    +0.000 A 
ATOM      7  C   UNL     1       0.621   9.053  22.485  0.00  0.00    +0.000 A 
ATOM      8  C   UNL     1      -0.119   9.794  23.368  0.00  0.00    +0.000 A 
ATOM      9  N   UNL     1      -0.892  10.834  22.999  0.00  0.00    +0.000 NA
ATOM     10  C   UNL     1      -0.940  11.155  21.698  0.00  0.00    +0.000 A 
ATOM     11  N   UNL     1      -1.706  12.220  21.307  0.00  0.00    +0.000 N 
ATOM     12  C   UNL     1      -2.450  13.029  22.270  0.00  0.00    +0.000 C 
ATOM     13  C   UNL     1      -3.952  12.974  21.953  0.00  0.00    +0.000 C 
ATOM     14  O   UNL     1      -4.219  13.329  20.584  0.00  0.00    +0.000 OA
ATOM     15  C   UNL     1      -3.540  12.424  19.697  0.00  0.00    +0.000 C 
ATOM     16  C   UNL     1      -2.017  12.464  19.902  0.00  0.00    +0.000 C 
ATOM     17  N   UNL     1      -0.248  10.476  20.768  0.00  0.00    +0.000 NA
ENDBRANCH   4   6
BRANCH   1  20
ATOM     18  C   UNL     1       3.194   3.456  19.919  0.00  0.00    +0.000 A 
ATOM     19  C   UNL     1       2.553   4.703  19.865  0.00  0.00    +0.000 A 
ATOM     20  C   UNL     1       3.190   5.850  19.365  0.00  0.00    +0.000 A 
ATOM     21  C   UNL     1       4.524   5.728  18.956  0.00  0.00    +0.000 A 
ATOM     22  C   UNL     1       5.188   4.494  19.000  0.00  0.00    +0.000 A 
ATOM     23  C   UNL     1       4.519   3.357  19.483  0.00  0.00    +0.000 A 
BRANCH  18  25
ATOM     24  C   UNL     1       1.458   2.846  21.460  0.00  0.00    +0.000 C 
ATOM     25  O   UNL     1       2.399   2.481  20.462  0.00  0.00    +0.000 OA
ENDBRANCH  18  25
BRANCH  22  26
ATOM     26  O   UNL     1       6.517   4.538  18.657  0.00  0.00    +0.000 OA
ATOM     27  C   UNL     1       7.297   5.555  19.284  0.00  0.00    +0.000 C 
ENDBRANCH  22  26
BRANCH  23  28
ATOM     28  O   UNL     1       5.191   2.173  19.595  0.00  0.00    +0.000 OA
ATOM     29  H   UNL     1       4.801   1.593  18.927  0.00  0.00    +0.000 HD
ENDBRANCH  23  28
ENDBRANCH   1  20
TORSDOF 5
ENDMDL
MODEL 5
REMARK VINA RESULT:      -8.8      2.014      3.237
REMARK  Name = 
REMARK  7 active torsions:
REMARK  status: ('A' for Active; 'I' for Inactive)
REMARK    1  A    between atoms: C_1  and  O_2
REMARK    2  A    between atoms: O_2  and  C_3
REMARK    3  A    between atoms: C_5  and  C_6
REMARK    4  A    between atoms: C_9  and  C_10
REMARK    5  A    between atoms: C_24  and  O_25
REMARK    6  A    between atoms: O_25  and  C_26
REMARK    7  A    between atoms: C_27  and  O_28
REMARK                            x       y       z     vdW  Elec       q    Type
REMARK                         _______ _______ _______ _____ _____    ______ ____
ROOT
ATOM      1  C   UNL     1       2.443   7.046  19.159  0.00  0.00    +0.000 A 
ATOM      2  C   UNL     1       2.312   7.938  18.111  0.00  0.00    +0.000 A 
ATOM      3  C   UNL     1       1.641   9.075  18.620  0.00  0.00    +0.000 A 
ATOM      4  C   UNL     1       1.369   8.814  19.948  0.00  0.00    +0.000 A 
ATOM      5  O   UNL     1       1.861   7.579  20.278  0.00  0.00    +0.000 OA
ENDROOT
BRANCH   4   6
ATOM      6  C   UNL     1       0.699   9.573  20.998  0.00  0.00    +0.000 A 
ATOM      7  C   UNL     1       0.153   8.973  22.103  0.00  0.00    +0.000 A 
ATOM      8  C   UNL     1      -0.432   9.828  23.000  0.00  0.00    +0.000 A 
ATOM      9  N   UNL     1      -0.476  11.164  22.830  0.00  0.00    +0.000 NA
ATOM     10  C   UNL     1       0.078  11.680  21.724  0.00  0.00    +0.000 A 
ATOM     11  N   UNL     1       0.058  13.037  21.544  0.00  0.00    +0.000 N 
ATOM     12  C   UNL     1      -0.527  13.937  22.535  0.00  0.00    +0.000 C 
ATOM     13  C   UNL     1      -1.680  14.733  21.907  0.00  0.00    +0.000 C 
ATOM     14  O   UNL     1      -1.267  15.404  20.702  0.00  0.00    +0.000 OA
ATOM     15  C   UNL     1      -0.804  14.444  19.735  0.00  0.00    +0.000 C 
ATOM     16  C   UNL     1       0.398  13.644  20.261  0.00  0.00    +0.000 C 
ATOM     17  N   UNL     1       0.667  10.909  20.794  0.00  0.00    +0.000 NA
ENDBRANCH   4   6
BRANCH   1  20
ATOM     18  C   UNL     1       5.097   4.343  19.109  0.00  0.00    +0.000 A 
ATOM     19  C   UNL     1       4.424   5.562  18.929  0.00  0.00    +0.000 A 
ATOM     20  C   UNL     1       3.082   5.735  19.300  0.00  0.00    +0.000 A 
ATOM     21  C   UNL     1       2.401   4.628  19.823  0.00  0.00    +0.000 A 
ATOM     22  C   UNL     1       3.050   3.400  20.013  0.00  0.00    +0.000 A 
ATOM     23  C   UNL     1       4.401   3.260  19.654  0.00  0.00    +0.000 A 
BRANCH  18  25
ATOM     24  C   UNL     1       6.626   4.695  17.292  0.00  0.00    +0.000 C 
ATOM     25  O   UNL     1       6.390   4.387  18.658  0.00  0.00    +0.000 OA
ENDBRANCH  18  25
BRANCH  22  26
ATOM     26  O   UNL     1       2.241   2.377  20.445  0.00  0.00    +0.000 OA
ATOM     27  C   UNL     1       1.482   2.630  21.627  0.00  0.00    +0.000 C 
ENDBRANCH  22  26
BRANCH  23  28
ATOM     28  O   UNL     1       5.009   2.042  19.770  0.00  0.00    +0.000 OA
ATOM     29  H   UNL     1       5.095   1.889  20.721  0.00  0.00    +0.000 HD
ENDBRANCH  23  28
ENDBRANCH   1  20
TORSDOF 5
ENDMDL
MODEL 6
REMARK VINA RESULT:      -8.8      1.189      2.720
REMARK  Name = 
REMARK  7 active torsions:
REMARK  status: ('A' for Active; 'I' for Inactive)
REMARK    1  A    between atoms: C_1  and  O_2
REMARK    2  A    between atoms: O_2  and  C_3
REMARK    3  A    between atoms: C_5  and  C_6
REMARK    4  A    between atoms: C_9  and  C_10
REMARK    5  A    between atoms: C_24  and  O_25
REMARK    6  A    between atoms: O_25  and  C_26
REMARK    7  A    between atoms: C_27  and  O_28
REMARK                            x       y       z     vdW  Elec       q    Type
REMARK                         _______ _______ _______ _____ _____    ______ ____
ROOT
ATOM      1  C   UNL     1       2.387   7.107  19.139  0.00  0.00    +0.000 A 
ATOM      2  C   UNL     1       2.266   8.080  18.166  0.00  0.00    +0.000 A 
ATOM      3  C   UNL     1       1.561   9.160  18.750  0.00  0.00    +0.000 A 
ATOM      4  C   UNL     1       1.260   8.785  20.044  0.00  0.00    +0.000 A 
ATOM      5  O   UNL     1       1.767   7.534  20.283  0.00  0.00    +0.000 OA
ENDROOT
BRANCH   4   6
ATOM      6  C   UNL     1       0.550   9.442  21.135  0.00  0.00    +0.000 A 
ATOM      7  C   UNL     1       0.670   9.036  22.439  0.00  0.00    +0.000 A 
ATOM      8  C   UNL     1      -0.056   9.764  23.344  0.00  0.00    +0.000 A 
ATOM      9  N   UNL     1      -0.836  10.808  23.001  0.00  0.00    +0.000 NA
ATOM     10  C   UNL     1      -0.905  11.146  21.706  0.00  0.00    +0.000 A 
ATOM     11  N   UNL     1      -1.678  12.216  21.341  0.00  0.00    +0.000 N 
ATOM     12  C   UNL     1      -2.407  13.011  22.328  0.00  0.00    +0.000 C 
ATOM     13  C   UNL     1      -3.914  12.959  22.035  0.00  0.00    +0.000 C 
ATOM     14  O   UNL     1      -4.203  13.332  20.675  0.00  0.00    +0.000 OA
ATOM     15  C   UNL     1      -3.538  12.440  19.764  0.00  0.00    +0.000 C 
ATOM     16  C   UNL     1      -2.012  12.479  19.945  0.00  0.00    +0.000 C 
ATOM     17  N   UNL     1      -0.228  10.480  20.756  0.00  0.00    +0.000 NA
ENDBRANCH   4   6
BRANCH   1  20
ATOM     18  C   UNL     1       5.124   4.490  19.254  0.00  0.00    +0.000 A 
ATOM     19  C   UNL     1       4.446   5.714  19.143  0.00  0.00    +0.000 A 
ATOM     20  C   UNL     1       3.046   5.799  19.188  0.00  0.00    +0.000 A 
ATOM     21  C   UNL     1       2.324   4.605  19.304  0.00  0.00    +0.000 A 
ATOM     22  C   UNL     1       2.976   3.369  19.417  0.00  0.00    +0.000 A 
ATOM     23  C   UNL     1       4.380   3.315  19.391  0.00  0.00    +0.000 A 
BRANCH  18  25
ATOM     24  C   UNL     1       7.073   4.722  17.873  0.00  0.00    +0.000 C 
ATOM     25  O   UNL     1       6.484   4.633  19.161  0.00  0.00    +0.000 OA
ENDBRANCH  18  25
BRANCH  22  26
ATOM     26  O   UNL     1       2.147   2.274  19.431  0.00  0.00    +0.000 OA
ATOM     27  C   UNL     1       0.855   2.454  18.852  0.00  0.00    +0.000 C 
ENDBRANCH  22  26
BRANCH  23  28
ATOM     28  O   UNL     1       5.010   2.103  19.427  0.00  0.00    +0.000 OA
ATOM     29  H   UNL     1       4.745   1.701  20.265  0.00  0.00    +0.000 HD
ENDBRANCH  23  28
ENDBRANCH   1  20
TORSDOF 5
ENDMDL
MODEL 7
REMARK VINA RESULT:      -8.7      1.584      1.782
REMARK  Name = 
REMARK  7 active torsions:
REMARK  status: ('A' for Active; 'I' for Inactive)
REMARK    1  A    between atoms: C_1  and  O_2
REMARK    2  A    between atoms: O_2  and  C_3
REMARK    3  A    between atoms: C_5  and  C_6
REMARK    4  A    between atoms: C_9  and  C_10
REMARK    5  A    between atoms: C_24  and  O_25
REMARK    6  A    between atoms: O_25  and  C_26
REMARK    7  A    between atoms: C_27  and  O_28
REMARK                            x       y       z     vdW  Elec       q    Type
REMARK                         _______ _______ _______ _____ _____    ______ ____
ROOT
ATOM      1  C   UNL     1       2.323   7.368  18.669  0.00  0.00    +0.000 A 
ATOM      2  C   UNL     1       2.254   8.472  17.840  0.00  0.00    +0.000 A 
ATOM      3  C   UNL     1       1.641   9.508  18.585  0.00  0.00    +0.000 A 
ATOM      4  C   UNL     1       1.338   8.981  19.824  0.00  0.00    +0.000 A 
ATOM      5  O   UNL     1       1.757   7.678  19.878  0.00  0.00    +0.000 OA
ENDROOT
BRANCH   4   6
ATOM      6  C   UNL     1       0.698   9.531  21.014  0.00  0.00    +0.000 A 
ATOM      7  C   UNL     1       0.889   8.998  22.263  0.00  0.00    +0.000 A 
ATOM      8  C   UNL     1       0.223   9.637  23.275  0.00  0.00    +0.000 A 
ATOM      9  N   UNL     1      -0.565  10.713  23.082  0.00  0.00    +0.000 NA
ATOM     10  C   UNL     1      -0.704  11.178  21.832  0.00  0.00    +0.000 A 
ATOM     11  N   UNL     1      -1.487  12.281  21.620  0.00  0.00    +0.000 N 
ATOM     12  C   UNL     1      -2.150  12.979  22.720  0.00  0.00    +0.000 C 
ATOM     13  C   UNL     1      -3.671  12.963  22.511  0.00  0.00    +0.000 C 
ATOM     14  O   UNL     1      -4.034  13.469  21.214  0.00  0.00    +0.000 OA
ATOM     15  C   UNL     1      -3.431  12.668  20.183  0.00  0.00    +0.000 C 
ATOM     16  C   UNL     1      -1.897  12.682  20.278  0.00  0.00    +0.000 C 
ATOM     17  N   UNL     1      -0.090  10.605  20.784  0.00  0.00    +0.000 NA
ENDBRANCH   4   6
BRANCH   1  20
ATOM     18  C   UNL     1       2.557   3.652  17.971  0.00  0.00    +0.000 A 
ATOM     19  C   UNL     1       2.054   4.945  18.188  0.00  0.00    +0.000 A 
ATOM     20  C   UNL     1       2.886   6.024  18.523  0.00  0.00    +0.000 A 
ATOM     21  C   UNL     1       4.253   5.768  18.685  0.00  0.00    +0.000 A 
ATOM     22  C   UNL     1       4.782   4.486  18.475  0.00  0.00    +0.000 A 
ATOM     23  C   UNL     1       3.930   3.428  18.118  0.00  0.00    +0.000 A 
BRANCH  18  25
ATOM     24  C   UNL     1       0.748   2.271  18.732  0.00  0.00    +0.000 C 
ATOM     25  O   UNL     1       1.571   2.748  17.678  0.00  0.00    +0.000 OA
ENDBRANCH  18  25
BRANCH  22  26
ATOM     26  O   UNL     1       6.120   4.357  18.758  0.00  0.00    +0.000 OA
ATOM     27  C   UNL     1       6.831   5.568  19.011  0.00  0.00    +0.000 C 
ENDBRANCH  22  26
BRANCH  23  28
ATOM     28  O   UNL     1       4.437   2.167  17.986  0.00  0.00    +0.000 OA
ATOM     29  H   UNL     1       4.720   2.099  17.064  0.00  0.00    +0.000 HD
ENDBRANCH  23  28
ENDBRANCH   1  20
TORSDOF 5
ENDMDL
MODEL 8
REMARK VINA RESULT:      -8.7      1.758      3.099
REMARK  Name = 
REMARK  7 active torsions:
REMARK  status: ('A' for Active; 'I' for Inactive)
REMARK    1  A    between atoms: C_1  and  O_2
REMARK    2  A    between atoms: O_2  and  C_3
REMARK    3  A    between atoms: C_5  and  C_6
REMARK    4  A    between atoms: C_9  and  C_10
REMARK    5  A    between atoms: C_24  and  O_25
REMARK    6  A    between atoms: O_25  and  C_26
REMARK    7  A    between atoms: C_27  and  O_28
REMARK                            x       y       z     vdW  Elec       q    Type
REMARK                         _______ _______ _______ _____ _____    ______ ____
ROOT
ATOM      1  C   UNL     1       2.281   7.635  18.421  0.00  0.00    +0.000 A 
ATOM      2  C   UNL     1       2.151   8.794  17.680  0.00  0.00    +0.000 A 
ATOM      3  C   UNL     1       1.548   9.757  18.524  0.00  0.00    +0.000 A 
ATOM      4  C   UNL     1       1.312   9.134  19.732  0.00  0.00    +0.000 A 
ATOM      5  O   UNL     1       1.762   7.841  19.672  0.00  0.00    +0.000 OA
ENDROOT
BRANCH   4   6
ATOM      6  C   UNL     1       0.713   9.579  20.985  0.00  0.00    +0.000 A 
ATOM      7  C   UNL     1       0.943   8.941  22.177  0.00  0.00    +0.000 A 
ATOM      8  C   UNL     1       0.312   9.490  23.262  0.00  0.00    +0.000 A 
ATOM      9  N   UNL     1      -0.479  10.578  23.188  0.00  0.00    +0.000 NA
ATOM     10  C   UNL     1      -0.659  11.148  21.988  0.00  0.00    +0.000 A 
ATOM     11  N   UNL     1      -1.446  12.265  21.897  0.00  0.00    +0.000 N 
ATOM     12  C   UNL     1      -2.071  12.865  23.074  0.00  0.00    +0.000 C 
ATOM     13  C   UNL     1      -3.598  12.866  22.915  0.00  0.00    +0.000 C 
ATOM     14  O   UNL     1      -4.003  13.481  21.679  0.00  0.00    +0.000 OA
ATOM     15  C   UNL     1      -3.436  12.771  20.563  0.00  0.00    +0.000 C 
ATOM     16  C   UNL     1      -1.899  12.779  20.609  0.00  0.00    +0.000 C 
ATOM     17  N   UNL     1      -0.081  10.668  20.875  0.00  0.00    +0.000 NA
ENDBRANCH   4   6
BRANCH   1  20
ATOM     18  C   UNL     1       4.869   4.926  17.864  0.00  0.00    +0.000 A 
ATOM     19  C   UNL     1       4.259   6.176  18.054  0.00  0.00    +0.000 A 
ATOM     20  C   UNL     1       2.866   6.320  18.152  0.00  0.00    +0.000 A 
ATOM     21  C   UNL     1       2.080   5.170  18.008  0.00  0.00    +0.000 A 
ATOM     22  C   UNL     1       2.664   3.909  17.818  0.00  0.00    +0.000 A 
ATOM     23  C   UNL     1       4.062   3.791  17.746  0.00  0.00    +0.000 A 
BRANCH  18  25
ATOM     24  C   UNL     1       6.824   5.148  16.490  0.00  0.00    +0.000 C 
ATOM     25  O   UNL     1       6.233   5.017  17.774  0.00  0.00    +0.000 OA
ENDBRANCH  18  25
BRANCH  22  26
ATOM     26  O   UNL     1       1.775   2.885  17.599  0.00  0.00    +0.000 OA
ATOM     27  C   UNL     1       1.060   2.416  18.742  0.00  0.00    +0.000 C 
ENDBRANCH  22  26
BRANCH  23  28
ATOM     28  O   UNL     1       4.625   2.573  17.486  0.00  0.00    +0.000 OA
ATOM     29  H   UNL     1       5.136   2.695  16.675  0.00  0.00    +0.000 HD
ENDBRANCH  23  28
ENDBRANCH   1  20
TORSDOF 5
ENDMDL
MODEL 9
REMARK VINA RESULT:      -8.5      2.129      3.196
REMARK  Name = 
REMARK  7 active torsions:
REMARK  status: ('A' for Active; 'I' for Inactive)
REMARK    1  A    between atoms: C_1  and  O_2
REMARK    2  A    between atoms: O_2  and  C_3
REMARK    3  A    between atoms: C_5  and  C_6
REMARK    4  A    between atoms: C_9  and  C_10
REMARK    5  A    between atoms: C_24  and  O_25
REMARK    6  A    between atoms: O_25  and  C_26
REMARK    7  A    between atoms: C_27  and  O_28
REMARK                            x       y       z     vdW  Elec       q    Type
REMARK                         _______ _______ _______ _____ _____    ______ ____
ROOT
ATOM      1  C   UNL     1       2.355   7.432  18.634  0.00  0.00    +0.000 A 
ATOM      2  C   UNL     1       2.315   8.511  17.772  0.00  0.00    +0.000 A 
ATOM      3  C   UNL     1       1.707   9.578  18.476  0.00  0.00    +0.000 A 
ATOM      4  C   UNL     1       1.380   9.093  19.726  0.00  0.00    +0.000 A 
ATOM      5  O   UNL     1       1.778   7.786  19.825  0.00  0.00    +0.000 OA
ENDROOT
BRANCH   4   6
ATOM      6  C   UNL     1       0.732   9.688  20.890  0.00  0.00    +0.000 A 
ATOM      7  C   UNL     1       0.358   8.947  21.981  0.00  0.00    +0.000 A 
ATOM      8  C   UNL     1      -0.230   9.658  22.993  0.00  0.00    +0.000 A 
ATOM      9  N   UNL     1      -0.433  10.989  22.944  0.00  0.00    +0.000 NA
ATOM     10  C   UNL     1      -0.042  11.648  21.844  0.00  0.00    +0.000 A 
ATOM     11  N   UNL     1      -0.224  13.003  21.783  0.00  0.00    +0.000 N 
ATOM     12  C   UNL     1      -0.809  13.752  22.894  0.00  0.00    +0.000 C 
ATOM     13  C   UNL     1      -2.094  14.456  22.435  0.00  0.00    +0.000 C 
ATOM     14  O   UNL     1      -1.869  15.260  21.262  0.00  0.00    +0.000 OA
ATOM     15  C   UNL     1      -1.397  14.436  20.181  0.00  0.00    +0.000 C 
ATOM     16  C   UNL     1      -0.072  13.741  20.534  0.00  0.00    +0.000 C 
ATOM     17  N   UNL     1       0.537  11.023  20.805  0.00  0.00    +0.000 NA
ENDBRANCH   4   6
BRANCH   1  20
ATOM     18  C   UNL     1       4.809   4.550  18.785  0.00  0.00    +0.000 A 
ATOM     19  C   UNL     1       4.257   5.840  18.801  0.00  0.00    +0.000 A 
ATOM     20  C   UNL     1       2.899   6.075  18.536  0.00  0.00    +0.000 A 
ATOM     21  C   UNL     1       2.099   4.974  18.203  0.00  0.00    +0.000 A 
ATOM     22  C   UNL     1       2.625   3.675  18.180  0.00  0.00    +0.000 A 
ATOM     23  C   UNL     1       3.983   3.465  18.472  0.00  0.00    +0.000 A 
BRANCH  18  25
ATOM     24  C   UNL     1       7.051   4.910  18.008  0.00  0.00    +0.000 C 
ATOM     25  O   UNL     1       6.153   4.551  19.047  0.00  0.00    +0.000 OA
ENDBRANCH  18  25
BRANCH  22  26
ATOM     26  O   UNL     1       1.754   2.704  17.749  0.00  0.00    +0.000 OA
ATOM     27  C   UNL     1       0.819   2.223  18.713  0.00  0.00    +0.000 C 
ENDBRANCH  22  26
BRANCH  23  28
ATOM     28  O   UNL     1       4.509   2.208  18.375  0.00  0.00    +0.000 OA
ATOM     29  H   UNL     1       3.769   1.640  18.122  0.00  0.00    +0.000 HD
ENDBRANCH  23  28
ENDBRANCH   1  20
TORSDOF 5
ENDMDL
