MODEL 1
REMARK VINA RESULT:      -7.9      0.000      0.000
REMARK  Name = 
REMARK  9 active torsions:
REMARK  status: ('A' for Active; 'I' for Inactive)
REMARK    1  A    between atoms: C_1  and  C_2
REMARK    2  A    between atoms: C_2  and  C_25
REMARK    3  A    between atoms: C_3  and  C_4
REMARK    4  A    between atoms: C_4  and  C_5
REMARK    5  A    between atoms: C_6  and  O_7
REMARK    6  A    between atoms: C_11  and  C_12
REMARK    7  A    between atoms: C_15  and  O_16
REMARK    8  A    between atoms: C_23  and  O_24
REMARK    9  A    between atoms: C_25  and  O_26
REMARK                            x       y       z     vdW  Elec       q    Type
REMARK                         _______ _______ _______ _____ _____    ______ ____
ROOT
ATOM      1  C   UNL     1       0.445  10.779  21.320  0.00  0.00    +0.000 A 
ATOM      2  C   UNL     1       0.536   9.724  22.245  0.00  0.00    +0.000 A 
ATOM      3  C   UNL     1       0.998   8.461  21.867  0.00  0.00    +0.000 A 
ATOM      4  C   UNL     1       1.418   8.237  20.558  0.00  0.00    +0.000 A 
ATOM      5  O   UNL     1       1.880   6.982  20.248  0.00  0.00    +0.000 OA
ATOM      6  C   UNL     1       2.341   6.746  18.959  0.00  0.00    +0.000 A 
ATOM      7  C   UNL     1       2.367   7.674  17.991  0.00  0.00    +0.000 A 
ATOM      8  C   UNL     1       1.842   9.012  18.272  0.00  0.00    +0.000 A 
ATOM      9  O   UNL     1       1.806   9.878  17.408  0.00  0.00    +0.000 OA
ATOM     10  C   UNL     1       1.364   9.273  19.633  0.00  0.00    +0.000 A 
ATOM     11  C   UNL     1       0.873  10.531  20.005  0.00  0.00    +0.000 A 
ENDROOT
BRANCH   6  12
ATOM     12  C   UNL     1       2.816   5.367  18.719  0.00  0.00    +0.000 A 
ATOM     13  C   UNL     1       2.103   4.507  17.869  0.00  0.00    +0.000 A 
ATOM     14  C   UNL     1       2.562   3.211  17.610  0.00  0.00    +0.000 A 
ATOM     15  C   UNL     1       3.740   2.772  18.202  0.00  0.00    +0.000 A 
ATOM     16  C   UNL     1       4.461   3.601  19.049  0.00  0.00    +0.000 A 
ATOM     17  C   UNL     1       4.005   4.894  19.301  0.00  0.00    +0.000 A 
BRANCH  15  18
ATOM     18  O   UNL     1       4.232   1.523  17.971  0.00  0.00    +0.000 OA
ATOM     19  H   UNL     1       5.197   1.582  17.876  0.00  0.00    +0.000 HD
ENDBRANCH  15  18
ENDBRANCH   6  12
BRANCH   2  20
ATOM     20  O   UNL     1       0.188   9.851  23.560  0.00  0.00    +0.000 OA
ATOM     21  H   UNL     1       0.877  10.341  24.039  0.00  0.00    +0.000 HD
ENDBRANCH   2  20
BRANCH  11  22
ATOM     22  O   UNL     1       0.797  11.564  19.101  0.00  0.00    +0.000 OA
ATOM     23  H   UNL     1       1.405  11.373  18.351  0.00  0.00    +0.000 HD
ENDBRANCH  11  22
BRANCH   1  24
ATOM     24  C   UNL     1      -0.073  12.151  21.688  0.00  0.00    +0.000 C 
BRANCH  24  27
ATOM     25  C   UNL     1      -1.263  14.129  23.679  0.00  0.00    +0.000 C 
ATOM     26  C   UNL     1      -2.037  13.000  23.052  0.00  0.00    +0.000 C 
ATOM     27  C   UNL     1      -1.507  12.140  22.157  0.00  0.00    +0.000 C 
BRANCH  26  28
ATOM     28  C   UNL     1      -3.476  12.897  23.490  0.00  0.00    +0.000 C 
BRANCH  28  29
ATOM     29  O   UNL     1      -4.245  12.298  22.459  0.00  0.00    +0.000 OA
ATOM     30  H   UNL     1      -5.118  12.723  22.481  0.00  0.00    +0.000 HD
ENDBRANCH  28  29
ENDBRANCH  26  28
ENDBRANCH  24  27
ENDBRANCH   1  24
TORSDOF 8
ENDMDL
MODEL 2
REMARK VINA RESULT:      -7.9      1.172      1.304
REMARK  Name = 
REMARK  9 active torsions:
REMARK  status: ('A' for Active; 'I' for Inactive)
REMARK    1  A    between atoms: C_1  and  C_2
REMARK    2  A    between atoms: C_2  and  C_25
REMARK    3  A    between atoms: C_3  and  C_4
REMARK    4  A    between atoms: C_4  and  C_5
REMARK    5  A    between atoms: C_6  and  O_7
REMARK    6  A    between atoms: C_11  and  C_12
REMARK    7  A    between atoms: C_15  and  O_16
REMARK    8  A    between atoms: C_23  and  O_24
REMARK    9  A    between atoms: C_25  and  O_26
REMARK                            x       y       z     vdW  Elec       q    Type
REMARK                         _______ _______ _______ _____ _____    ______ ____
ROOT
ATOM      1  C   UNL     1       0.001  11.133  20.847  0.00  0.00    +0.000 A 
ATOM      2  C   UNL     1       0.083  10.303  21.977  0.00  0.00    +0.000 A 
ATOM      3  C   UNL     1       0.691   9.046  21.916  0.00  0.00    +0.000 A 
ATOM      4  C   UNL     1       1.265   8.609  20.725  0.00  0.00    +0.000 A 
ATOM      5  O   UNL     1       1.864   7.374  20.727  0.00  0.00    +0.000 OA
ATOM      6  C   UNL     1       2.479   6.933  19.561  0.00  0.00    +0.000 A 
ATOM      7  C   UNL     1       2.526   7.644  18.425  0.00  0.00    +0.000 A 
ATOM      8  C   UNL     1       1.861   8.948  18.372  0.00  0.00    +0.000 A 
ATOM      9  O   UNL     1       1.842   9.613  17.344  0.00  0.00    +0.000 OA
ATOM     10  C   UNL     1       1.220   9.425  19.601  0.00  0.00    +0.000 A 
ATOM     11  C   UNL     1       0.585  10.673  19.655  0.00  0.00    +0.000 A 
ENDROOT
BRANCH   6  12
ATOM     12  C   UNL     1       3.094   5.593  19.659  0.00  0.00    +0.000 A 
ATOM     13  C   UNL     1       2.415   4.544  20.298  0.00  0.00    +0.000 A 
ATOM     14  C   UNL     1       2.974   3.263  20.368  0.00  0.00    +0.000 A 
ATOM     15  C   UNL     1       4.218   3.029  19.795  0.00  0.00    +0.000 A 
ATOM     16  C   UNL     1       4.912   4.050  19.161  0.00  0.00    +0.000 A 
ATOM     17  C   UNL     1       4.350   5.324  19.088  0.00  0.00    +0.000 A 
BRANCH  15  18
ATOM     18  O   UNL     1       4.798   1.797  19.826  0.00  0.00    +0.000 OA
ATOM     19  H   UNL     1       5.508   1.804  20.490  0.00  0.00    +0.000 HD
ENDBRANCH  15  18
ENDBRANCH   6  12
BRANCH   2  20
ATOM     20  O   UNL     1      -0.411  10.654  23.202  0.00  0.00    +0.000 OA
ATOM     21  H   UNL     1       0.315  10.732  23.842  0.00  0.00    +0.000 HD
ENDBRANCH   2  20
BRANCH  11  22
ATOM     22  O   UNL     1       0.517  11.488  18.551  0.00  0.00    +0.000 OA
ATOM     23  H   UNL     1       1.180  11.183  17.891  0.00  0.00    +0.000 HD
ENDBRANCH  11  22
BRANCH   1  24
ATOM     24  C   UNL     1      -0.670  12.489  20.871  0.00  0.00    +0.000 C 
BRANCH  24  27
ATOM     25  C   UNL     1      -2.732  13.400  22.924  0.00  0.00    +0.000 C 
ATOM     26  C   UNL     1      -3.085  12.800  21.588  0.00  0.00    +0.000 C 
ATOM     27  C   UNL     1      -2.165  12.416  20.678  0.00  0.00    +0.000 C 
BRANCH  26  28
ATOM     28  C   UNL     1      -4.562  12.663  21.325  0.00  0.00    +0.000 C 
BRANCH  28  29
ATOM     29  O   UNL     1      -5.242  12.430  22.549  0.00  0.00    +0.000 OA
ATOM     30  H   UNL     1      -5.947  11.789  22.357  0.00  0.00    +0.000 HD
ENDBRANCH  28  29
ENDBRANCH  26  28
ENDBRANCH  24  27
ENDBRANCH   1  24
TORSDOF 8
ENDMDL
MODEL 3
REMARK VINA RESULT:      -7.9      1.063      1.178
REMARK  Name = 
REMARK  9 active torsions:
REMARK  status: ('A' for Active; 'I' for Inactive)
REMARK    1  A    between atoms: C_1  and  C_2
REMARK    2  A    between atoms: C_2  and  C_25
REMARK    3  A    between atoms: C_3  and  C_4
REMARK    4  A    between atoms: C_4  and  C_5
REMARK    5  A    between atoms: C_6  and  O_7
REMARK    6  A    between atoms: C_11  and  C_12
REMARK    7  A    between atoms: C_15  and  O_16
REMARK    8  A    between atoms: C_23  and  O_24
REMARK    9  A    between atoms: C_25  and  O_26
REMARK                            x       y       z     vdW  Elec       q    Type
REMARK                         _______ _______ _______ _____ _____    ______ ____
ROOT
ATOM      1  C   UNL     1       0.462  10.849  21.184  0.00  0.00    +0.000 A 
ATOM      2  C   UNL     1       0.484   9.844  22.167  0.00  0.00    +0.000 A 
ATOM      3  C   UNL     1       0.925   8.550  21.877  0.00  0.00    +0.000 A 
ATOM      4  C   UNL     1       1.391   8.244  20.601  0.00  0.00    +0.000 A 
ATOM      5  O   UNL     1       1.829   6.963  20.378  0.00  0.00    +0.000 OA
ATOM      6  C   UNL     1       2.336   6.644  19.124  0.00  0.00    +0.000 A 
ATOM      7  C   UNL     1       2.428   7.517  18.110  0.00  0.00    +0.000 A 
ATOM      8  C   UNL     1       1.932   8.882  18.297  0.00  0.00    +0.000 A 
ATOM      9  O   UNL     1       1.956   9.700  17.387  0.00  0.00    +0.000 OA
ATOM     10  C   UNL     1       1.405   9.229  19.620  0.00  0.00    +0.000 A 
ATOM     11  C   UNL     1       0.936  10.519  19.903  0.00  0.00    +0.000 A 
ENDROOT
BRANCH   6  12
ATOM     12  C   UNL     1       2.780   5.242  18.978  0.00  0.00    +0.000 A 
ATOM     13  C   UNL     1       3.332   4.793  17.768  0.00  0.00    +0.000 A 
ATOM     14  C   UNL     1       3.785   3.476  17.631  0.00  0.00    +0.000 A 
ATOM     15  C   UNL     1       3.688   2.604  18.709  0.00  0.00    +0.000 A 
ATOM     16  C   UNL     1       3.142   3.022  19.914  0.00  0.00    +0.000 A 
ATOM     17  C   UNL     1       2.696   4.336  20.050  0.00  0.00    +0.000 A 
BRANCH  15  18
ATOM     18  O   UNL     1       4.126   1.317  18.627  0.00  0.00    +0.000 OA
ATOM     19  H   UNL     1       3.428   0.776  18.222  0.00  0.00    +0.000 HD
ENDBRANCH  15  18
ENDBRANCH   6  12
BRANCH   2  20
ATOM     20  O   UNL     1       0.087  10.052  23.457  0.00  0.00    +0.000 OA
ATOM     21  H   UNL     1      -0.407   9.280  23.780  0.00  0.00    +0.000 HD
ENDBRANCH   2  20
BRANCH  11  22
ATOM     22  O   UNL     1       0.928  11.503  18.944  0.00  0.00    +0.000 OA
ATOM     23  H   UNL     1       1.853  11.798  18.786  0.00  0.00    +0.000 HD
ENDBRANCH  11  22
BRANCH   1  24
ATOM     24  C   UNL     1      -0.030  12.253  21.456  0.00  0.00    +0.000 C 
BRANCH  24  27
ATOM     25  C   UNL     1      -2.625  12.286  23.056  0.00  0.00    +0.000 C 
ATOM     26  C   UNL     1      -2.551  12.526  21.571  0.00  0.00    +0.000 C 
ATOM     27  C   UNL     1      -1.395  12.527  20.874  0.00  0.00    +0.000 C 
BRANCH  26  28
ATOM     28  C   UNL     1      -3.878  12.780  20.903  0.00  0.00    +0.000 C 
BRANCH  28  29
ATOM     29  O   UNL     1      -3.722  12.702  19.494  0.00  0.00    +0.000 OA
ATOM     30  H   UNL     1      -4.442  12.138  19.167  0.00  0.00    +0.000 HD
ENDBRANCH  28  29
ENDBRANCH  26  28
ENDBRANCH  24  27
ENDBRANCH   1  24
TORSDOF 8
ENDMDL
MODEL 4
REMARK VINA RESULT:      -7.9      0.702      1.168
REMARK  Name = 
REMARK  9 active torsions:
REMARK  status: ('A' for Active; 'I' for Inactive)
REMARK    1  A    between atoms: C_1  and  C_2
REMARK    2  A    between atoms: C_2  and  C_25
REMARK    3  A    between atoms: C_3  and  C_4
REMARK    4  A    between atoms: C_4  and  C_5
REMARK    5  A    between atoms: C_6  and  O_7
REMARK    6  A    between atoms: C_11  and  C_12
REMARK    7  A    between atoms: C_15  and  O_16
REMARK    8  A    between atoms: C_23  and  O_24
REMARK    9  A    between atoms: C_25  and  O_26
REMARK                            x       y       z     vdW  Elec       q    Type
REMARK                         _______ _______ _______ _____ _____    ______ ____
ROOT
ATOM      1  C   UNL     1       0.264  10.919  21.138  0.00  0.00    +0.000 A 
ATOM      2  C   UNL     1       0.314   9.938  22.142  0.00  0.00    +0.000 A 
ATOM      3  C   UNL     1       0.828   8.663  21.892  0.00  0.00    +0.000 A 
ATOM      4  C   UNL     1       1.341   8.355  20.634  0.00  0.00    +0.000 A 
ATOM      5  O   UNL     1       1.850   7.094  20.449  0.00  0.00    +0.000 OA
ATOM      6  C   UNL     1       2.404   6.777  19.215  0.00  0.00    +0.000 A 
ATOM      7  C   UNL     1       2.475   7.632  18.185  0.00  0.00    +0.000 A 
ATOM      8  C   UNL     1       1.904   8.973  18.330  0.00  0.00    +0.000 A 
ATOM      9  O   UNL     1       1.908   9.772  17.403  0.00  0.00    +0.000 OA
ATOM     10  C   UNL     1       1.328   9.319  19.632  0.00  0.00    +0.000 A 
ATOM     11  C   UNL     1       0.786  10.587  19.876  0.00  0.00    +0.000 A 
ENDROOT
BRANCH   6  12
ATOM     12  C   UNL     1       2.923   5.397  19.111  0.00  0.00    +0.000 A 
ATOM     13  C   UNL     1       4.291   5.136  19.294  0.00  0.00    +0.000 A 
ATOM     14  C   UNL     1       4.787   3.829  19.229  0.00  0.00    +0.000 A 
ATOM     15  C   UNL     1       3.913   2.778  18.982  0.00  0.00    +0.000 A 
ATOM     16  C   UNL     1       2.558   3.009  18.794  0.00  0.00    +0.000 A 
ATOM     17  C   UNL     1       2.064   4.311  18.864  0.00  0.00    +0.000 A 
BRANCH  15  18
ATOM     18  O   UNL     1       4.347   1.488  18.923  0.00  0.00    +0.000 OA
ATOM     19  H   UNL     1       3.894   1.041  18.189  0.00  0.00    +0.000 HD
ENDBRANCH  15  18
ENDBRANCH   6  12
BRANCH   2  20
ATOM     20  O   UNL     1      -0.125  10.150  23.419  0.00  0.00    +0.000 OA
ATOM     21  H   UNL     1      -0.142  11.103  23.609  0.00  0.00    +0.000 HD
ENDBRANCH   2  20
BRANCH  11  22
ATOM     22  O   UNL     1       0.750  11.549  18.895  0.00  0.00    +0.000 OA
ATOM     23  H   UNL     1       0.667  12.433  19.322  0.00  0.00    +0.000 HD
ENDBRANCH  11  22
BRANCH   1  24
ATOM     24  C   UNL     1      -0.307  12.300  21.367  0.00  0.00    +0.000 C 
BRANCH  24  27
ATOM     25  C   UNL     1      -2.369  13.138  23.451  0.00  0.00    +0.000 C 
ATOM     26  C   UNL     1      -2.715  12.729  22.043  0.00  0.00    +0.000 C 
ATOM     27  C   UNL     1      -1.794  12.377  21.122  0.00  0.00    +0.000 C 
BRANCH  26  28
ATOM     28  C   UNL     1      -4.188  12.749  21.722  0.00  0.00    +0.000 C 
BRANCH  28  29
ATOM     29  O   UNL     1      -4.929  12.369  22.871  0.00  0.00    +0.000 OA
ATOM     30  H   UNL     1      -5.730  12.919  22.878  0.00  0.00    +0.000 HD
ENDBRANCH  28  29
ENDBRANCH  26  28
ENDBRANCH  24  27
ENDBRANCH   1  24
TORSDOF 8
ENDMDL
MODEL 5
REMARK VINA RESULT:      -7.8      3.068      9.566
REMARK  Name = 
REMARK  9 active torsions:
REMARK  status: ('A' for Active; 'I' for Inactive)
REMARK    1  A    between atoms: C_1  and  C_2
REMARK    2  A    between atoms: C_2  and  C_25
REMARK    3  A    between atoms: C_3  and  C_4
REMARK    4  A    between atoms: C_4  and  C_5
REMARK    5  A    between atoms: C_6  and  O_7
REMARK    6  A    between atoms: C_11  and  C_12
REMARK    7  A    between atoms: C_15  and  O_16
REMARK    8  A    between atoms: C_23  and  O_24
REMARK    9  A    between atoms: C_25  and  O_26
REMARK                            x       y       z     vdW  Elec       q    Type
REMARK                         _______ _______ _______ _____ _____    ______ ____
ROOT
ATOM      1  C   UNL     1       5.025   5.093  16.991  0.00  0.00    +0.000 A 
ATOM      2  C   UNL     1       4.879   6.418  16.547  0.00  0.00    +0.000 A 
ATOM      3  C   UNL     1       4.024   7.314  17.195  0.00  0.00    +0.000 A 
ATOM      4  C   UNL     1       3.324   6.910  18.329  0.00  0.00    +0.000 A 
ATOM      5  O   UNL     1       2.513   7.836  18.935  0.00  0.00    +0.000 OA
ATOM      6  C   UNL     1       1.836   7.469  20.092  0.00  0.00    +0.000 A 
ATOM      7  C   UNL     1       1.926   6.257  20.658  0.00  0.00    +0.000 A 
ATOM      8  C   UNL     1       2.748   5.228  20.017  0.00  0.00    +0.000 A 
ATOM      9  O   UNL     1       2.825   4.096  20.475  0.00  0.00    +0.000 OA
ATOM     10  C   UNL     1       3.474   5.611  18.803  0.00  0.00    +0.000 A 
ATOM     11  C   UNL     1       4.309   4.705  18.136  0.00  0.00    +0.000 A 
ENDROOT
BRANCH   6  12
ATOM     12  C   UNL     1       0.987   8.531  20.671  0.00  0.00    +0.000 A 
ATOM     13  C   UNL     1       0.578   8.463  22.012  0.00  0.00    +0.000 A 
ATOM     14  C   UNL     1      -0.199   9.480  22.578  0.00  0.00    +0.000 A 
ATOM     15  C   UNL     1      -0.568  10.571  21.801  0.00  0.00    +0.000 A 
ATOM     16  C   UNL     1      -0.180  10.661  20.472  0.00  0.00    +0.000 A 
ATOM     17  C   UNL     1       0.599   9.649  19.911  0.00  0.00    +0.000 A 
BRANCH  15  18
ATOM     18  O   UNL     1      -1.312  11.591  22.311  0.00  0.00    +0.000 OA
ATOM     19  H   UNL     1      -1.852  11.247  23.042  0.00  0.00    +0.000 HD
ENDBRANCH  15  18
ENDBRANCH   6  12
BRANCH   2  20
ATOM     20  O   UNL     1       5.550   6.925  15.471  0.00  0.00    +0.000 OA
ATOM     21  H   UNL     1       6.150   7.633  15.758  0.00  0.00    +0.000 HD
ENDBRANCH   2  20
BRANCH  11  22
ATOM     22  O   UNL     1       4.460   3.413  18.580  0.00  0.00    +0.000 OA
ATOM     23  H   UNL     1       5.408   3.262  18.796  0.00  0.00    +0.000 HD
ENDBRANCH  11  22
BRANCH   1  24
ATOM     24  C   UNL     1       5.922   4.090  16.300  0.00  0.00    +0.000 C 
BRANCH  24  27
ATOM     25  C   UNL     1       7.317   4.701  13.659  0.00  0.00    +0.000 C 
ATOM     26  C   UNL     1       6.014   3.954  13.768  0.00  0.00    +0.000 C 
ATOM     27  C   UNL     1       5.413   3.672  14.943  0.00  0.00    +0.000 C 
BRANCH  26  28
ATOM     28  C   UNL     1       5.419   3.524  12.451  0.00  0.00    +0.000 C 
BRANCH  28  29
ATOM     29  O   UNL     1       6.028   2.314  12.028  0.00  0.00    +0.000 OA
ATOM     30  H   UNL     1       5.878   2.250  11.070  0.00  0.00    +0.000 HD
ENDBRANCH  28  29
ENDBRANCH  26  28
ENDBRANCH  24  27
ENDBRANCH   1  24
TORSDOF 8
ENDMDL
MODEL 6
REMARK VINA RESULT:      -7.7      0.864      1.120
REMARK  Name = 
REMARK  9 active torsions:
REMARK  status: ('A' for Active; 'I' for Inactive)
REMARK    1  A    between atoms: C_1  and  C_2
REMARK    2  A    between atoms: C_2  and  C_25
REMARK    3  A    between atoms: C_3  and  C_4
REMARK    4  A    between atoms: C_4  and  C_5
REMARK    5  A    between atoms: C_6  and  O_7
REMARK    6  A    between atoms: C_11  and  C_12
REMARK    7  A    between atoms: C_15  and  O_16
REMARK    8  A    between atoms: C_23  and  O_24
REMARK    9  A    between atoms: C_25  and  O_26
REMARK                            x       y       z     vdW  Elec       q    Type
REMARK                         _______ _______ _______ _____ _____    ______ ____
ROOT
ATOM      1  C   UNL     1       0.529  10.710  21.291  0.00  0.00    +0.000 A 
ATOM      2  C   UNL     1       0.576   9.687  22.253  0.00  0.00    +0.000 A 
ATOM      3  C   UNL     1       1.004   8.397  21.926  0.00  0.00    +0.000 A 
ATOM      4  C   UNL     1       1.433   8.114  20.632  0.00  0.00    +0.000 A 
ATOM      5  O   UNL     1       1.859   6.836  20.372  0.00  0.00    +0.000 OA
ATOM      6  C   UNL     1       2.330   6.540  19.099  0.00  0.00    +0.000 A 
ATOM      7  C   UNL     1       2.395   7.431  18.099  0.00  0.00    +0.000 A 
ATOM      8  C   UNL     1       1.909   8.794  18.326  0.00  0.00    +0.000 A 
ATOM      9  O   UNL     1       1.909   9.629  17.431  0.00  0.00    +0.000 OA
ATOM     10  C   UNL     1       1.422   9.117  19.670  0.00  0.00    +0.000 A 
ATOM     11  C   UNL     1       0.965  10.402  19.990  0.00  0.00    +0.000 A 
ENDROOT
BRANCH   6  12
ATOM     12  C   UNL     1       2.765   5.139  18.914  0.00  0.00    +0.000 A 
ATOM     13  C   UNL     1       2.993   4.629  17.626  0.00  0.00    +0.000 A 
ATOM     14  C   UNL     1       3.436   3.315  17.443  0.00  0.00    +0.000 A 
ATOM     15  C   UNL     1       3.654   2.506  18.552  0.00  0.00    +0.000 A 
ATOM     16  C   UNL     1       3.432   2.985  19.835  0.00  0.00    +0.000 A 
ATOM     17  C   UNL     1       2.995   4.297  20.016  0.00  0.00    +0.000 A 
BRANCH  15  18
ATOM     18  O   UNL     1       4.097   1.224  18.424  0.00  0.00    +0.000 OA
ATOM     19  H   UNL     1       5.068   1.230  18.423  0.00  0.00    +0.000 HD
ENDBRANCH  15  18
ENDBRANCH   6  12
BRANCH   2  20
ATOM     20  O   UNL     1       0.217   9.871  23.558  0.00  0.00    +0.000 OA
ATOM     21  H   UNL     1       1.004  10.058  24.095  0.00  0.00    +0.000 HD
ENDBRANCH   2  20
BRANCH  11  22
ATOM     22  O   UNL     1       0.932  11.404  19.050  0.00  0.00    +0.000 OA
ATOM     23  H   UNL     1       0.769  11.002  18.166  0.00  0.00    +0.000 HD
ENDBRANCH  11  22
BRANCH   1  24
ATOM     24  C   UNL     1       0.049  12.110  21.603  0.00  0.00    +0.000 C 
BRANCH  24  27
ATOM     25  C   UNL     1      -2.262  12.833  19.751  0.00  0.00    +0.000 C 
ATOM     26  C   UNL     1      -2.427  12.499  21.210  0.00  0.00    +0.000 C 
ATOM     27  C   UNL     1      -1.400  12.162  22.018  0.00  0.00    +0.000 C 
BRANCH  26  28
ATOM     28  C   UNL     1      -3.846  12.558  21.716  0.00  0.00    +0.000 C 
BRANCH  28  29
ATOM     29  O   UNL     1      -3.867  12.262  23.104  0.00  0.00    +0.000 OA
ATOM     30  H   UNL     1      -3.004  12.535  23.458  0.00  0.00    +0.000 HD
ENDBRANCH  28  29
ENDBRANCH  26  28
ENDBRANCH  24  27
ENDBRANCH   1  24
TORSDOF 8
ENDMDL
MODEL 7
REMARK VINA RESULT:      -7.7      1.689      2.398
REMARK  Name = 
REMARK  9 active torsions:
REMARK  status: ('A' for Active; 'I' for Inactive)
REMARK    1  A    between atoms: C_1  and  C_2
REMARK    2  A    between atoms: C_2  and  C_25
REMARK    3  A    between atoms: C_3  and  C_4
REMARK    4  A    between atoms: C_4  and  C_5
REMARK    5  A    between atoms: C_6  and  O_7
REMARK    6  A    between atoms: C_11  and  C_12
REMARK    7  A    between atoms: C_15  and  O_16
REMARK    8  A    between atoms: C_23  and  O_24
REMARK    9  A    between atoms: C_25  and  O_26
REMARK                            x       y       z     vdW  Elec       q    Type
REMARK                         _______ _______ _______ _____ _____    ______ ____
ROOT
ATOM      1  C   UNL     1      -0.065  10.943  20.855  0.00  0.00    +0.000 A 
ATOM      2  C   UNL     1       0.021  10.095  21.972  0.00  0.00    +0.000 A 
ATOM      3  C   UNL     1       0.654   8.852  21.897  0.00  0.00    +0.000 A 
ATOM      4  C   UNL     1       1.251   8.447  20.706  0.00  0.00    +0.000 A 
ATOM      5  O   UNL     1       1.873   7.224  20.695  0.00  0.00    +0.000 OA
ATOM      6  C   UNL     1       2.511   6.815  19.529  0.00  0.00    +0.000 A 
ATOM      7  C   UNL     1       2.558   7.546  18.407  0.00  0.00    +0.000 A 
ATOM      8  C   UNL     1       1.869   8.838  18.367  0.00  0.00    +0.000 A 
ATOM      9  O   UNL     1       1.849   9.520  17.351  0.00  0.00    +0.000 OA
ATOM     10  C   UNL     1       1.203   9.281  19.595  0.00  0.00    +0.000 A 
ATOM     11  C   UNL     1       0.543  10.515  19.663  0.00  0.00    +0.000 A 
ENDROOT
BRANCH   6  12
ATOM     12  C   UNL     1       3.151   5.486  19.612  0.00  0.00    +0.000 A 
ATOM     13  C   UNL     1       2.488   4.414  20.231  0.00  0.00    +0.000 A 
ATOM     14  C   UNL     1       3.072   3.144  20.286  0.00  0.00    +0.000 A 
ATOM     15  C   UNL     1       4.324   2.942  19.719  0.00  0.00    +0.000 A 
ATOM     16  C   UNL     1       5.003   3.985  19.105  0.00  0.00    +0.000 A 
ATOM     17  C   UNL     1       4.417   5.249  19.047  0.00  0.00    +0.000 A 
BRANCH  15  18
ATOM     18  O   UNL     1       4.927   1.721  19.737  0.00  0.00    +0.000 OA
ATOM     19  H   UNL     1       5.737   1.766  19.202  0.00  0.00    +0.000 HD
ENDBRANCH  15  18
ENDBRANCH   6  12
BRANCH   2  20
ATOM     20  O   UNL     1      -0.496  10.416  23.196  0.00  0.00    +0.000 OA
ATOM     21  H   UNL     1      -1.252  11.016  23.090  0.00  0.00    +0.000 HD
ENDBRANCH   2  20
BRANCH  11  22
ATOM     22  O   UNL     1       0.472  11.348  18.572  0.00  0.00    +0.000 OA
ATOM     23  H   UNL     1       0.330  10.801  17.766  0.00  0.00    +0.000 HD
ENDBRANCH  11  22
BRANCH   1  24
ATOM     24  C   UNL     1      -0.763  12.285  20.894  0.00  0.00    +0.000 C 
BRANCH  24  27
ATOM     25  C   UNL     1       0.456  14.712  19.509  0.00  0.00    +0.000 C 
ATOM     26  C   UNL     1       0.602  14.423  20.980  0.00  0.00    +0.000 C 
ATOM     27  C   UNL     1       0.043  13.355  21.588  0.00  0.00    +0.000 C 
BRANCH  26  28
ATOM     28  C   UNL     1       1.421  15.430  21.746  0.00  0.00    +0.000 C 
BRANCH  28  29
ATOM     29  O   UNL     1       2.502  14.772  22.389  0.00  0.00    +0.000 OA
ATOM     30  H   UNL     1       2.393  13.823  22.212  0.00  0.00    +0.000 HD
ENDBRANCH  28  29
ENDBRANCH  26  28
ENDBRANCH  24  27
ENDBRANCH   1  24
TORSDOF 8
ENDMDL
MODEL 8
REMARK VINA RESULT:      -7.6      3.305      9.595
REMARK  Name = 
REMARK  9 active torsions:
REMARK  status: ('A' for Active; 'I' for Inactive)
REMARK    1  A    between atoms: C_1  and  C_2
REMARK    2  A    between atoms: C_2  and  C_25
REMARK    3  A    between atoms: C_3  and  C_4
REMARK    4  A    between atoms: C_4  and  C_5
REMARK    5  A    between atoms: C_6  and  O_7
REMARK    6  A    between atoms: C_11  and  C_12
REMARK    7  A    between atoms: C_15  and  O_16
REMARK    8  A    between atoms: C_23  and  O_24
REMARK    9  A    between atoms: C_25  and  O_26
REMARK                            x       y       z     vdW  Elec       q    Type
REMARK                         _______ _______ _______ _____ _____    ______ ____
ROOT
ATOM      1  C   UNL     1       4.849   4.942  16.717  0.00  0.00    +0.000 A 
ATOM      2  C   UNL     1       4.814   6.300  16.358  0.00  0.00    +0.000 A 
ATOM      3  C   UNL     1       4.052   7.225  17.078  0.00  0.00    +0.000 A 
ATOM      4  C   UNL     1       3.338   6.814  18.199  0.00  0.00    +0.000 A 
ATOM      5  O   UNL     1       2.622   7.769  18.878  0.00  0.00    +0.000 OA
ATOM      6  C   UNL     1       1.932   7.390  20.024  0.00  0.00    +0.000 A 
ATOM      7  C   UNL     1       1.923   6.143  20.514  0.00  0.00    +0.000 A 
ATOM      8  C   UNL     1       2.641   5.088  19.794  0.00  0.00    +0.000 A 
ATOM      9  O   UNL     1       2.625   3.927  20.180  0.00  0.00    +0.000 OA
ATOM     10  C   UNL     1       3.379   5.480  18.590  0.00  0.00    +0.000 A 
ATOM     11  C   UNL     1       4.119   4.548  17.852  0.00  0.00    +0.000 A 
ENDROOT
BRANCH   6  12
ATOM     12  C   UNL     1       1.191   8.485  20.684  0.00  0.00    +0.000 A 
ATOM     13  C   UNL     1       0.958   8.453  22.069  0.00  0.00    +0.000 A 
ATOM     14  C   UNL     1       0.285   9.499  22.708  0.00  0.00    +0.000 A 
ATOM     15  C   UNL     1      -0.157  10.585  21.961  0.00  0.00    +0.000 A 
ATOM     16  C   UNL     1       0.057  10.639  20.591  0.00  0.00    +0.000 A 
ATOM     17  C   UNL     1       0.733   9.597  19.957  0.00  0.00    +0.000 A 
BRANCH  15  18
ATOM     18  O   UNL     1      -0.805  11.633  22.541  0.00  0.00    +0.000 OA
ATOM     19  H   UNL     1      -0.241  11.999  23.242  0.00  0.00    +0.000 HD
ENDBRANCH  15  18
ENDBRANCH   6  12
BRANCH   2  20
ATOM     20  O   UNL     1       5.511   6.812  15.301  0.00  0.00    +0.000 OA
ATOM     21  H   UNL     1       6.465   6.733  15.463  0.00  0.00    +0.000 HD
ENDBRANCH   2  20
BRANCH  11  22
ATOM     22  O   UNL     1       4.162   3.223  18.213  0.00  0.00    +0.000 OA
ATOM     23  H   UNL     1       3.656   3.107  19.049  0.00  0.00    +0.000 HD
ENDBRANCH  11  22
BRANCH   1  24
ATOM     24  C   UNL     1       5.642   3.909  15.948  0.00  0.00    +0.000 C 
BRANCH  24  27
ATOM     25  C   UNL     1       5.659   3.536  12.923  0.00  0.00    +0.000 C 
ATOM     26  C   UNL     1       6.686   4.341  13.676  0.00  0.00    +0.000 C 
ATOM     27  C   UNL     1       6.660   4.516  15.014  0.00  0.00    +0.000 C 
BRANCH  26  28
ATOM     28  C   UNL     1       7.760   4.960  12.818  0.00  0.00    +0.000 C 
BRANCH  28  29
ATOM     29  O   UNL     1       8.533   5.857  13.600  0.00  0.00    +0.000 OA
ATOM     30  H   UNL     1       9.047   5.312  14.219  0.00  0.00    +0.000 HD
ENDBRANCH  28  29
ENDBRANCH  26  28
ENDBRANCH  24  27
ENDBRANCH   1  24
TORSDOF 8
ENDMDL
MODEL 9
REMARK VINA RESULT:      -7.6      1.251      1.602
REMARK  Name = 
REMARK  9 active torsions:
REMARK  status: ('A' for Active; 'I' for Inactive)
REMARK    1  A    between atoms: C_1  and  C_2
REMARK    2  A    between atoms: C_2  and  C_25
REMARK    3  A    between atoms: C_3  and  C_4
REMARK    4  A    between atoms: C_4  and  C_5
REMARK    5  A    between atoms: C_6  and  O_7
REMARK    6  A    between atoms: C_11  and  C_12
REMARK    7  A    between atoms: C_15  and  O_16
REMARK    8  A    between atoms: C_23  and  O_24
REMARK    9  A    between atoms: C_25  and  O_26
REMARK                            x       y       z     vdW  Elec       q    Type
REMARK                         _______ _______ _______ _____ _____    ______ ____
ROOT
ATOM      1  C   UNL     1       0.576  10.682  21.133  0.00  0.00    +0.000 A 
ATOM      2  C   UNL     1       0.613   9.684  22.121  0.00  0.00    +0.000 A 
ATOM      3  C   UNL     1       1.052   8.388  21.833  0.00  0.00    +0.000 A 
ATOM      4  C   UNL     1       1.502   8.075  20.554  0.00  0.00    +0.000 A 
ATOM      5  O   UNL     1       1.938   6.793  20.332  0.00  0.00    +0.000 OA
ATOM      6  C   UNL     1       2.430   6.468  19.073  0.00  0.00    +0.000 A 
ATOM      7  C   UNL     1       2.506   7.334  18.053  0.00  0.00    +0.000 A 
ATOM      8  C   UNL     1       2.010   8.700  18.239  0.00  0.00    +0.000 A 
ATOM      9  O   UNL     1       2.021   9.512  17.323  0.00  0.00    +0.000 OA
ATOM     10  C   UNL     1       1.501   9.054  19.566  0.00  0.00    +0.000 A 
ATOM     11  C   UNL     1       1.034  10.345  19.848  0.00  0.00    +0.000 A 
ENDROOT
BRANCH   6  12
ATOM     12  C   UNL     1       2.874   5.065  18.931  0.00  0.00    +0.000 A 
ATOM     13  C   UNL     1       2.802   4.182  20.019  0.00  0.00    +0.000 A 
ATOM     14  C   UNL     1       3.190   2.845  19.885  0.00  0.00    +0.000 A 
ATOM     15  C   UNL     1       3.650   2.386  18.657  0.00  0.00    +0.000 A 
ATOM     16  C   UNL     1       3.734   3.240  17.566  0.00  0.00    +0.000 A 
ATOM     17  C   UNL     1       3.342   4.571  17.701  0.00  0.00    +0.000 A 
BRANCH  15  18
ATOM     18  O   UNL     1       4.027   1.090  18.475  0.00  0.00    +0.000 OA
ATOM     19  H   UNL     1       4.637   0.840  19.188  0.00  0.00    +0.000 HD
ENDBRANCH  15  18
ENDBRANCH   6  12
BRANCH   2  20
ATOM     20  O   UNL     1       0.233   9.898  23.416  0.00  0.00    +0.000 OA
ATOM     21  H   UNL     1       0.933   9.601  24.020  0.00  0.00    +0.000 HD
ENDBRANCH   2  20
BRANCH  11  22
ATOM     22  O   UNL     1       1.011  11.323  18.883  0.00  0.00    +0.000 OA
ATOM     23  H   UNL     1       1.170  12.194  19.312  0.00  0.00    +0.000 HD
ENDBRANCH  11  22
BRANCH   1  24
ATOM     24  C   UNL     1       0.085  12.087  21.403  0.00  0.00    +0.000 C 
BRANCH  24  27
ATOM     25  C   UNL     1      -1.744  12.889  19.100  0.00  0.00    +0.000 C 
ATOM     26  C   UNL     1      -2.234  12.556  20.485  0.00  0.00    +0.000 C 
ATOM     27  C   UNL     1      -1.418  12.184  21.493  0.00  0.00    +0.000 C 
BRANCH  26  28
ATOM     28  C   UNL     1      -3.726  12.657  20.671  0.00  0.00    +0.000 C 
BRANCH  28  29
ATOM     29  O   UNL     1      -4.338  12.981  19.432  0.00  0.00    +0.000 OA
ATOM     30  H   UNL     1      -5.267  13.185  19.627  0.00  0.00    +0.000 HD
ENDBRANCH  28  29
ENDBRANCH  26  28
ENDBRANCH  24  27
ENDBRANCH   1  24
TORSDOF 8
ENDMDL
