MODEL 1
REMARK VINA RESULT:      -8.3      0.000      0.000
REMARK  Name = 
REMARK  12 active torsions:
REMARK  status: ('A' for Active; 'I' for Inactive)
REMARK    1  A    between atoms: C_1  and  O_2
REMARK    2  A    between atoms: O_2  and  C_3
REMARK    3  A    between atoms: C_6  and  C_7
REMARK    4  A    between atoms: C_8  and  C_9
REMARK    5  A    between atoms: C_15  and  C_16
REMARK    6  A    between atoms: C_16  and  C_17
REMARK    7  A    between atoms: C_17  and  C_18
REMARK    8  A    between atoms: C_17  and  N_19
REMARK    9  A    between atoms: N_19  and  C_20
REMARK   10  A    between atoms: N_19  and  C_21
REMARK   11  A    between atoms: C_21  and  C_22
REMARK   12  A    between atoms: C_22  and  C_23
REMARK                            x       y       z     vdW  Elec       q    Type
REMARK                         _______ _______ _______ _____ _____    ______ ____
ROOT
ATOM      1  C   UNL     1       2.602   5.697  17.860  0.00  0.00    +0.000 C 
ENDROOT
BRANCH   1   6
ATOM      2  C   UNL     1       2.850   3.328  20.821  0.00  0.00    +0.000 A 
ATOM      3  C   UNL     1       3.935   2.532  20.452  0.00  0.00    +0.000 A 
ATOM      4  C   UNL     1       4.546   2.700  19.204  0.00  0.00    +0.000 A 
ATOM      5  C   UNL     1       4.110   3.698  18.334  0.00  0.00    +0.000 A 
ATOM      6  C   UNL     1       3.054   4.541  18.718  0.00  0.00    +0.000 A 
ATOM      7  C   UNL     1       2.398   4.307  19.939  0.00  0.00    +0.000 A 
BRANCH   2   9
ATOM      8  C   UNL     1       1.151   2.272  22.093  0.00  0.00    +0.000 C 
ATOM      9  O   UNL     1       2.322   3.086  22.061  0.00  0.00    +0.000 OA
ENDBRANCH   2   9
BRANCH   5  10
ATOM     10  C   UNL     1       4.748   3.832  17.052  0.00  0.00    +0.000 C 
ATOM     11  C   UNL     1       5.264   3.972  15.984  0.00  0.00    +0.000 C 
BRANCH  11  12
ATOM     12  C   UNL     1       5.888   4.111  14.702  0.00  0.00    +0.000 A 
ATOM     13  C   UNL     1       7.045   4.895  14.592  0.00  0.00    +0.000 A 
ATOM     14  C   UNL     1       7.651   5.074  13.352  0.00  0.00    +0.000 A 
ATOM     15  C   UNL     1       7.112   4.470  12.217  0.00  0.00    +0.000 A 
ATOM     16  C   UNL     1       5.970   3.675  12.326  0.00  0.00    +0.000 A 
ATOM     17  C   UNL     1       5.356   3.497  13.567  0.00  0.00    +0.000 A 
ENDBRANCH  11  12
ENDBRANCH   5  10
ENDBRANCH   1   6
BRANCH   1  18
ATOM     18  C   UNL     1       2.956   7.112  18.403  0.00  0.00    +0.000 C 
ATOM     19  C   UNL     1       3.685   7.977  17.360  0.00  0.00    +0.000 C 
BRANCH  18  20
ATOM     20  N   UNL     1       1.778   7.825  18.982  0.00  0.00    +0.000 NA
ATOM     21  C   UNL     1       1.762   7.796  20.453  0.00  0.00    +0.000 C 
BRANCH  20  22
ATOM     22  C   UNL     1       1.700   9.237  18.533  0.00  0.00    +0.000 C 
BRANCH  22  23
ATOM     23  C   UNL     1       0.484   9.533  17.637  0.00  0.00    +0.000 C 
BRANCH  23  24
ATOM     24  C   UNL     1      -0.539  10.401  18.337  0.00  0.00    +0.000 A 
ATOM     25  C   UNL     1      -0.192  10.974  19.576  0.00  0.00    +0.000 A 
ATOM     26  C   UNL     1      -1.095  11.778  20.263  0.00  0.00    +0.000 A 
ATOM     27  C   UNL     1      -2.355  12.016  19.723  0.00  0.00    +0.000 A 
ATOM     28  C   UNL     1      -2.730  11.457  18.491  0.00  0.00    +0.000 A 
ATOM     29  C   UNL     1      -4.003  11.709  17.955  0.00  0.00    +0.000 A 
ATOM     30  C   UNL     1      -4.390  11.161  16.732  0.00  0.00    +0.000 A 
ATOM     31  C   UNL     1      -3.513  10.348  16.028  0.00  0.00    +0.000 A 
ATOM     32  C   UNL     1      -2.248  10.084  16.551  0.00  0.00    +0.000 A 
ATOM     33  C   UNL     1      -1.823  10.633  17.782  0.00  0.00    +0.000 A 
ENDBRANCH  23  24
ENDBRANCH  22  23
ENDBRANCH  20  22
ENDBRANCH  18  20
ENDBRANCH   1  18
TORSDOF 9
ENDMDL
MODEL 2
REMARK VINA RESULT:      -8.3      3.037     11.028
REMARK  Name = 
REMARK  12 active torsions:
REMARK  status: ('A' for Active; 'I' for Inactive)
REMARK    1  A    between atoms: C_1  and  O_2
REMARK    2  A    between atoms: O_2  and  C_3
REMARK    3  A    between atoms: C_6  and  C_7
REMARK    4  A    between atoms: C_8  and  C_9
REMARK    5  A    between atoms: C_15  and  C_16
REMARK    6  A    between atoms: C_16  and  C_17
REMARK    7  A    between atoms: C_17  and  C_18
REMARK    8  A    between atoms: C_17  and  N_19
REMARK    9  A    between atoms: N_19  and  C_20
REMARK   10  A    between atoms: N_19  and  C_21
REMARK   11  A    between atoms: C_21  and  C_22
REMARK   12  A    between atoms: C_22  and  C_23
REMARK                            x       y       z     vdW  Elec       q    Type
REMARK                         _______ _______ _______ _____ _____    ______ ____
ROOT
ATOM      1  C   UNL     1      -0.864  10.788  19.562  0.00  0.00    +0.000 C 
ENDROOT
BRANCH   1   6
ATOM      2  C   UNL     1      -2.854  10.175  16.382  0.00  0.00    +0.000 A 
ATOM      3  C   UNL     1      -3.926  11.051  16.551  0.00  0.00    +0.000 A 
ATOM      4  C   UNL     1      -4.062  11.787  17.733  0.00  0.00    +0.000 A 
ATOM      5  C   UNL     1      -3.098  11.695  18.737  0.00  0.00    +0.000 A 
ATOM      6  C   UNL     1      -1.984  10.858  18.554  0.00  0.00    +0.000 A 
ATOM      7  C   UNL     1      -1.906  10.063  17.398  0.00  0.00    +0.000 A 
BRANCH   2   9
ATOM      8  C   UNL     1      -3.539  10.086  14.115  0.00  0.00    +0.000 C 
ATOM      9  O   UNL     1      -2.811   9.499  15.192  0.00  0.00    +0.000 OA
ENDBRANCH   2   9
BRANCH   5  10
ATOM     10  C   UNL     1      -3.276  12.452  19.946  0.00  0.00    +0.000 C 
ATOM     11  C   UNL     1      -3.398  13.097  20.944  0.00  0.00    +0.000 C 
BRANCH  11  12
ATOM     12  C   UNL     1      -3.562  13.851  22.151  0.00  0.00    +0.000 A 
ATOM     13  C   UNL     1      -4.076  15.153  22.073  0.00  0.00    +0.000 A 
ATOM     14  C   UNL     1      -4.213  15.918  23.227  0.00  0.00    +0.000 A 
ATOM     15  C   UNL     1      -3.844  15.391  24.463  0.00  0.00    +0.000 A 
ATOM     16  C   UNL     1      -3.348  14.089  24.547  0.00  0.00    +0.000 A 
ATOM     17  C   UNL     1      -3.204  13.320  23.391  0.00  0.00    +0.000 A 
ENDBRANCH  11  12
ENDBRANCH   5  10
ENDBRANCH   1   6
BRANCH   1  18
ATOM     18  C   UNL     1       0.550  10.513  18.972  0.00  0.00    +0.000 C 
ATOM     19  C   UNL     1       1.352  11.806  18.741  0.00  0.00    +0.000 C 
BRANCH  18  20
ATOM     20  N   UNL     1       1.330   9.518  19.767  0.00  0.00    +0.000 NA
ATOM     21  C   UNL     1       0.536   8.904  20.844  0.00  0.00    +0.000 C 
BRANCH  20  22
ATOM     22  C   UNL     1       1.896   8.440  18.919  0.00  0.00    +0.000 C 
BRANCH  22  23
ATOM     23  C   UNL     1       2.254   7.164  19.701  0.00  0.00    +0.000 C 
BRANCH  23  24
ATOM     24  C   UNL     1       2.799   6.079  18.798  0.00  0.00    +0.000 A 
ATOM     25  C   UNL     1       3.793   6.426  17.862  0.00  0.00    +0.000 A 
ATOM     26  C   UNL     1       4.326   5.469  17.007  0.00  0.00    +0.000 A 
ATOM     27  C   UNL     1       3.871   4.155  17.073  0.00  0.00    +0.000 A 
ATOM     28  C   UNL     1       2.879   3.780  17.993  0.00  0.00    +0.000 A 
ATOM     29  C   UNL     1       2.432   2.451  18.053  0.00  0.00    +0.000 A 
ATOM     30  C   UNL     1       1.448   2.062  18.962  0.00  0.00    +0.000 A 
ATOM     31  C   UNL     1       0.892   2.999  19.823  0.00  0.00    +0.000 A 
ATOM     32  C   UNL     1       1.322   4.323  19.771  0.00  0.00    +0.000 A 
ATOM     33  C   UNL     1       2.324   4.745  18.868  0.00  0.00    +0.000 A 
ENDBRANCH  23  24
ENDBRANCH  22  23
ENDBRANCH  20  22
ENDBRANCH  18  20
ENDBRANCH   1  18
TORSDOF 9
ENDMDL
MODEL 3
REMARK VINA RESULT:      -8.1      3.138      6.366
REMARK  Name = 
REMARK  12 active torsions:
REMARK  status: ('A' for Active; 'I' for Inactive)
REMARK    1  A    between atoms: C_1  and  O_2
REMARK    2  A    between atoms: O_2  and  C_3
REMARK    3  A    between atoms: C_6  and  C_7
REMARK    4  A    between atoms: C_8  and  C_9
REMARK    5  A    between atoms: C_15  and  C_16
REMARK    6  A    between atoms: C_16  and  C_17
REMARK    7  A    between atoms: C_17  and  C_18
REMARK    8  A    between atoms: C_17  and  N_19
REMARK    9  A    between atoms: N_19  and  C_20
REMARK   10  A    between atoms: N_19  and  C_21
REMARK   11  A    between atoms: C_21  and  C_22
REMARK   12  A    between atoms: C_22  and  C_23
REMARK                            x       y       z     vdW  Elec       q    Type
REMARK                         _______ _______ _______ _____ _____    ______ ____
ROOT
ATOM      1  C   UNL     1      -0.129  10.252  18.791  0.00  0.00    +0.000 C 
ENDROOT
BRANCH   1   6
ATOM      2  C   UNL     1      -0.635  10.640  22.538  0.00  0.00    +0.000 A 
ATOM      3  C   UNL     1       0.296   9.730  23.040  0.00  0.00    +0.000 A 
ATOM      4  C   UNL     1       1.038   8.921  22.173  0.00  0.00    +0.000 A 
ATOM      5  C   UNL     1       0.894   9.050  20.791  0.00  0.00    +0.000 A 
ATOM      6  C   UNL     1       0.000  10.002  20.273  0.00  0.00    +0.000 A 
ATOM      7  C   UNL     1      -0.797  10.748  21.157  0.00  0.00    +0.000 A 
BRANCH   2   9
ATOM      8  C   UNL     1      -1.387  12.784  23.211  0.00  0.00    +0.000 C 
ATOM      9  O   UNL     1      -1.311  11.383  23.467  0.00  0.00    +0.000 OA
ENDBRANCH   2   9
BRANCH   5  10
ATOM     10  C   UNL     1       1.659   8.192  19.928  0.00  0.00    +0.000 C 
ATOM     11  C   UNL     1       2.272   7.456  19.215  0.00  0.00    +0.000 C 
BRANCH  11  12
ATOM     12  C   UNL     1       3.032   6.590  18.362  0.00  0.00    +0.000 A 
ATOM     13  C   UNL     1       3.998   7.150  17.514  0.00  0.00    +0.000 A 
ATOM     14  C   UNL     1       4.725   6.335  16.653  0.00  0.00    +0.000 A 
ATOM     15  C   UNL     1       4.498   4.960  16.633  0.00  0.00    +0.000 A 
ATOM     16  C   UNL     1       3.549   4.397  17.488  0.00  0.00    +0.000 A 
ATOM     17  C   UNL     1       2.814   5.212  18.351  0.00  0.00    +0.000 A 
ENDBRANCH  11  12
ENDBRANCH   5  10
ENDBRANCH   1   6
BRANCH   1  18
ATOM     18  C   UNL     1      -0.991  11.486  18.393  0.00  0.00    +0.000 C 
ATOM     19  C   UNL     1      -0.139  12.746  18.158  0.00  0.00    +0.000 C 
BRANCH  18  20
ATOM     20  N   UNL     1      -1.900  11.214  17.241  0.00  0.00    +0.000 NA
ATOM     21  C   UNL     1      -1.850   9.812  16.796  0.00  0.00    +0.000 C 
BRANCH  20  22
ATOM     22  C   UNL     1      -3.309  11.568  17.542  0.00  0.00    +0.000 C 
BRANCH  22  23
ATOM     23  C   UNL     1      -3.533  12.030  18.992  0.00  0.00    +0.000 C 
BRANCH  23  24
ATOM     24  C   UNL     1      -4.949  11.772  19.458  0.00  0.00    +0.000 A 
ATOM     25  C   UNL     1      -5.801  11.026  18.622  0.00  0.00    +0.000 A 
ATOM     26  C   UNL     1      -7.113  10.761  19.001  0.00  0.00    +0.000 A 
ATOM     27  C   UNL     1      -7.590  11.242  20.216  0.00  0.00    +0.000 A 
ATOM     28  C   UNL     1      -6.764  11.991  21.070  0.00  0.00    +0.000 A 
ATOM     29  C   UNL     1      -7.256  12.466  22.296  0.00  0.00    +0.000 A 
ATOM     30  C   UNL     1      -6.448  13.211  23.156  0.00  0.00    +0.000 A 
ATOM     31  C   UNL     1      -5.137  13.497  22.800  0.00  0.00    +0.000 A 
ATOM     32  C   UNL     1      -4.637  13.037  21.583  0.00  0.00    +0.000 A 
ATOM     33  C   UNL     1      -5.428  12.271  20.696  0.00  0.00    +0.000 A 
ENDBRANCH  23  24
ENDBRANCH  22  23
ENDBRANCH  20  22
ENDBRANCH  18  20
ENDBRANCH   1  18
TORSDOF 9
ENDMDL
MODEL 4
REMARK VINA RESULT:      -8.0      1.173      2.343
REMARK  Name = 
REMARK  12 active torsions:
REMARK  status: ('A' for Active; 'I' for Inactive)
REMARK    1  A    between atoms: C_1  and  O_2
REMARK    2  A    between atoms: O_2  and  C_3
REMARK    3  A    between atoms: C_6  and  C_7
REMARK    4  A    between atoms: C_8  and  C_9
REMARK    5  A    between atoms: C_15  and  C_16
REMARK    6  A    between atoms: C_16  and  C_17
REMARK    7  A    between atoms: C_17  and  C_18
REMARK    8  A    between atoms: C_17  and  N_19
REMARK    9  A    between atoms: N_19  and  C_20
REMARK   10  A    between atoms: N_19  and  C_21
REMARK   11  A    between atoms: C_21  and  C_22
REMARK   12  A    between atoms: C_22  and  C_23
REMARK                            x       y       z     vdW  Elec       q    Type
REMARK                         _______ _______ _______ _____ _____    ______ ____
ROOT
ATOM      1  C   UNL     1       4.483   5.542  18.839  0.00  0.00    +0.000 C 
ENDROOT
BRANCH   1   6
ATOM      2  C   UNL     1       1.759   3.047  19.736  0.00  0.00    +0.000 A 
ATOM      3  C   UNL     1       1.814   2.172  18.651  0.00  0.00    +0.000 A 
ATOM      4  C   UNL     1       2.675   2.425  17.577  0.00  0.00    +0.000 A 
ATOM      5  C   UNL     1       3.527   3.529  17.601  0.00  0.00    +0.000 A 
ATOM      6  C   UNL     1       3.519   4.387  18.714  0.00  0.00    +0.000 A 
ATOM      7  C   UNL     1       2.591   4.165  19.746  0.00  0.00    +0.000 A 
BRANCH   2   9
ATOM      8  C   UNL     1       1.437   2.629  22.046  0.00  0.00    +0.000 C 
ATOM      9  O   UNL     1       0.884   2.713  20.734  0.00  0.00    +0.000 OA
ENDBRANCH   2   9
BRANCH   5  10
ATOM     10  C   UNL     1       4.387   3.771  16.474  0.00  0.00    +0.000 C 
ATOM     11  C   UNL     1       5.084   3.951  15.522  0.00  0.00    +0.000 C 
BRANCH  11  12
ATOM     12  C   UNL     1       5.941   4.178  14.396  0.00  0.00    +0.000 A 
ATOM     13  C   UNL     1       7.005   5.081  14.526  0.00  0.00    +0.000 A 
ATOM     14  C   UNL     1       7.832   5.345  13.438  0.00  0.00    +0.000 A 
ATOM     15  C   UNL     1       7.605   4.710  12.218  0.00  0.00    +0.000 A 
ATOM     16  C   UNL     1       6.557   3.797  12.090  0.00  0.00    +0.000 A 
ATOM     17  C   UNL     1       5.722   3.534  13.178  0.00  0.00    +0.000 A 
ENDBRANCH  11  12
ENDBRANCH   5  10
ENDBRANCH   1   6
BRANCH   1  18
ATOM     18  C   UNL     1       3.941   6.920  18.358  0.00  0.00    +0.000 C 
ATOM     19  C   UNL     1       4.290   7.207  16.887  0.00  0.00    +0.000 C 
BRANCH  18  20
ATOM     20  N   UNL     1       2.482   7.096  18.622  0.00  0.00    +0.000 NA
ATOM     21  C   UNL     1       2.195   7.445  20.023  0.00  0.00    +0.000 C 
BRANCH  20  22
ATOM     22  C   UNL     1       1.872   8.123  17.741  0.00  0.00    +0.000 C 
BRANCH  22  23
ATOM     23  C   UNL     1       1.735   9.503  18.407  0.00  0.00    +0.000 C 
BRANCH  23  24
ATOM     24  C   UNL     1       0.305   9.998  18.397  0.00  0.00    +0.000 A 
ATOM     25  C   UNL     1      -0.551   9.546  17.374  0.00  0.00    +0.000 A 
ATOM     26  C   UNL     1      -1.873   9.972  17.316  0.00  0.00    +0.000 A 
ATOM     27  C   UNL     1      -2.355  10.857  18.276  0.00  0.00    +0.000 A 
ATOM     28  C   UNL     1      -1.525  11.327  19.306  0.00  0.00    +0.000 A 
ATOM     29  C   UNL     1      -2.025  12.216  20.271  0.00  0.00    +0.000 A 
ATOM     30  C   UNL     1      -1.213  12.691  21.301  0.00  0.00    +0.000 A 
ATOM     31  C   UNL     1       0.113  12.290  21.379  0.00  0.00    +0.000 A 
ATOM     32  C   UNL     1       0.625  11.412  20.425  0.00  0.00    +0.000 A 
ATOM     33  C   UNL     1      -0.175  10.906  19.375  0.00  0.00    +0.000 A 
ENDBRANCH  23  24
ENDBRANCH  22  23
ENDBRANCH  20  22
ENDBRANCH  18  20
ENDBRANCH   1  18
TORSDOF 9
ENDMDL
MODEL 5
REMARK VINA RESULT:      -8.0      3.275     10.698
REMARK  Name = 
REMARK  12 active torsions:
REMARK  status: ('A' for Active; 'I' for Inactive)
REMARK    1  A    between atoms: C_1  and  O_2
REMARK    2  A    between atoms: O_2  and  C_3
REMARK    3  A    between atoms: C_6  and  C_7
REMARK    4  A    between atoms: C_8  and  C_9
REMARK    5  A    between atoms: C_15  and  C_16
REMARK    6  A    between atoms: C_16  and  C_17
REMARK    7  A    between atoms: C_17  and  C_18
REMARK    8  A    between atoms: C_17  and  N_19
REMARK    9  A    between atoms: N_19  and  C_20
REMARK   10  A    between atoms: N_19  and  C_21
REMARK   11  A    between atoms: C_21  and  C_22
REMARK   12  A    between atoms: C_22  and  C_23
REMARK                            x       y       z     vdW  Elec       q    Type
REMARK                         _______ _______ _______ _____ _____    ______ ____
ROOT
ATOM      1  C   UNL     1      -0.276  11.325  19.058  0.00  0.00    +0.000 C 
ENDROOT
BRANCH   1   6
ATOM      2  C   UNL     1      -3.167  10.283  16.822  0.00  0.00    +0.000 A 
ATOM      3  C   UNL     1      -4.240  10.935  17.431  0.00  0.00    +0.000 A 
ATOM      4  C   UNL     1      -4.054  11.650  18.619  0.00  0.00    +0.000 A 
ATOM      5  C   UNL     1      -2.783  11.764  19.183  0.00  0.00    +0.000 A 
ATOM      6  C   UNL     1      -1.686  11.158  18.548  0.00  0.00    +0.000 A 
ATOM      7  C   UNL     1      -1.902  10.375  17.401  0.00  0.00    +0.000 A 
BRANCH   2   9
ATOM      8  C   UNL     1      -2.958  10.199  14.462  0.00  0.00    +0.000 C 
ATOM      9  O   UNL     1      -3.451   9.610  15.664  0.00  0.00    +0.000 OA
ENDBRANCH   2   9
BRANCH   5  10
ATOM     10  C   UNL     1      -2.630  12.491  20.414  0.00  0.00    +0.000 C 
ATOM     11  C   UNL     1      -2.532  13.089  21.442  0.00  0.00    +0.000 C 
BRANCH  11  12
ATOM     12  C   UNL     1      -2.392  13.820  22.667  0.00  0.00    +0.000 A 
ATOM     13  C   UNL     1      -1.231  14.580  22.874  0.00  0.00    +0.000 A 
ATOM     14  C   UNL     1      -1.055  15.271  24.068  0.00  0.00    +0.000 A 
ATOM     15  C   UNL     1      -2.032  15.213  25.061  0.00  0.00    +0.000 A 
ATOM     16  C   UNL     1      -3.196  14.471  24.851  0.00  0.00    +0.000 A 
ATOM     17  C   UNL     1      -3.375  13.772  23.656  0.00  0.00    +0.000 A 
ENDBRANCH  11  12
ENDBRANCH   5  10
ENDBRANCH   1   6
BRANCH   1  18
ATOM     18  C   UNL     1       0.613  10.049  18.998  0.00  0.00    +0.000 C 
ATOM     19  C   UNL     1       1.816  10.216  18.052  0.00  0.00    +0.000 C 
BRANCH  18  20
ATOM     20  N   UNL     1       1.037   9.570  20.347  0.00  0.00    +0.000 NA
ATOM     21  C   UNL     1       0.482  10.385  21.440  0.00  0.00    +0.000 C 
BRANCH  20  22
ATOM     22  C   UNL     1       0.671   8.150  20.579  0.00  0.00    +0.000 C 
BRANCH  22  23
ATOM     23  C   UNL     1       1.870   7.254  20.934  0.00  0.00    +0.000 C 
BRANCH  23  24
ATOM     24  C   UNL     1       2.336   6.434  19.751  0.00  0.00    +0.000 A 
ATOM     25  C   UNL     1       3.132   7.064  18.775  0.00  0.00    +0.000 A 
ATOM     26  C   UNL     1       3.585   6.357  17.666  0.00  0.00    +0.000 A 
ATOM     27  C   UNL     1       3.244   5.016  17.517  0.00  0.00    +0.000 A 
ATOM     28  C   UNL     1       2.449   4.362  18.472  0.00  0.00    +0.000 A 
ATOM     29  C   UNL     1       2.117   3.008  18.313  0.00  0.00    +0.000 A 
ATOM     30  C   UNL     1       1.329   2.344  19.253  0.00  0.00    +0.000 A 
ATOM     31  C   UNL     1       0.857   3.027  20.365  0.00  0.00    +0.000 A 
ATOM     32  C   UNL     1       1.173   4.373  20.534  0.00  0.00    +0.000 A 
ATOM     33  C   UNL     1       1.978   5.070  19.604  0.00  0.00    +0.000 A 
ENDBRANCH  23  24
ENDBRANCH  22  23
ENDBRANCH  20  22
ENDBRANCH  18  20
ENDBRANCH   1  18
TORSDOF 9
ENDMDL
MODEL 6
REMARK VINA RESULT:      -7.9      2.918     10.778
REMARK  Name = 
REMARK  12 active torsions:
REMARK  status: ('A' for Active; 'I' for Inactive)
REMARK    1  A    between atoms: C_1  and  O_2
REMARK    2  A    between atoms: O_2  and  C_3
REMARK    3  A    between atoms: C_6  and  C_7
REMARK    4  A    between atoms: C_8  and  C_9
REMARK    5  A    between atoms: C_15  and  C_16
REMARK    6  A    between atoms: C_16  and  C_17
REMARK    7  A    between atoms: C_17  and  C_18
REMARK    8  A    between atoms: C_17  and  N_19
REMARK    9  A    between atoms: N_19  and  C_20
REMARK   10  A    between atoms: N_19  and  C_21
REMARK   11  A    between atoms: C_21  and  C_22
REMARK   12  A    between atoms: C_22  and  C_23
REMARK                            x       y       z     vdW  Elec       q    Type
REMARK                         _______ _______ _______ _____ _____    ______ ____
ROOT
ATOM      1  C   UNL     1      -0.708  10.160  19.340  0.00  0.00    +0.000 C 
ENDROOT
BRANCH   1   6
ATOM      2  C   UNL     1      -2.842  10.005  16.198  0.00  0.00    +0.000 A 
ATOM      3  C   UNL     1      -3.774  11.014  16.444  0.00  0.00    +0.000 A 
ATOM      4  C   UNL     1      -3.774  11.699  17.664  0.00  0.00    +0.000 A 
ATOM      5  C   UNL     1      -2.809  11.417  18.631  0.00  0.00    +0.000 A 
ATOM      6  C   UNL     1      -1.831  10.441  18.373  0.00  0.00    +0.000 A 
ATOM      7  C   UNL     1      -1.896   9.706  17.177  0.00  0.00    +0.000 A 
BRANCH   2   9
ATOM      8  C   UNL     1      -3.414  10.202  13.907  0.00  0.00    +0.000 C 
ATOM      9  O   UNL     1      -2.926   9.394  14.976  0.00  0.00    +0.000 OA
ENDBRANCH   2   9
BRANCH   5  10
ATOM     10  C   UNL     1      -2.847  12.127  19.881  0.00  0.00    +0.000 C 
ATOM     11  C   UNL     1      -2.893  12.690  20.933  0.00  0.00    +0.000 C 
BRANCH  11  12
ATOM     12  C   UNL     1      -2.943  13.393  22.181  0.00  0.00    +0.000 A 
ATOM     13  C   UNL     1      -3.655  12.827  23.248  0.00  0.00    +0.000 A 
ATOM     14  C   UNL     1      -3.748  13.504  24.460  0.00  0.00    +0.000 A 
ATOM     15  C   UNL     1      -3.130  14.744  24.617  0.00  0.00    +0.000 A 
ATOM     16  C   UNL     1      -2.406  15.302  23.562  0.00  0.00    +0.000 A 
ATOM     17  C   UNL     1      -2.315  14.628  22.343  0.00  0.00    +0.000 A 
ENDBRANCH  11  12
ENDBRANCH   5  10
ENDBRANCH   1   6
BRANCH   1  18
ATOM     18  C   UNL     1       0.722  10.178  18.727  0.00  0.00    +0.000 C 
ATOM     19  C   UNL     1       1.320  11.595  18.671  0.00  0.00    +0.000 C 
BRANCH  18  20
ATOM     20  N   UNL     1       1.652   9.216  19.389  0.00  0.00    +0.000 NA
ATOM     21  C   UNL     1       1.091   8.642  20.624  0.00  0.00    +0.000 C 
BRANCH  20  22
ATOM     22  C   UNL     1       2.049   8.106  18.487  0.00  0.00    +0.000 C 
BRANCH  22  23
ATOM     23  C   UNL     1       3.225   7.269  19.020  0.00  0.00    +0.000 C 
BRANCH  23  24
ATOM     24  C   UNL     1       3.332   5.931  18.322  0.00  0.00    +0.000 A 
ATOM     25  C   UNL     1       4.242   5.806  17.254  0.00  0.00    +0.000 A 
ATOM     26  C   UNL     1       4.378   4.599  16.577  0.00  0.00    +0.000 A 
ATOM     27  C   UNL     1       3.604   3.506  16.954  0.00  0.00    +0.000 A 
ATOM     28  C   UNL     1       2.687   3.601  18.012  0.00  0.00    +0.000 A 
ATOM     29  C   UNL     1       1.916   2.489  18.386  0.00  0.00    +0.000 A 
ATOM     30  C   UNL     1       1.001   2.567  19.437  0.00  0.00    +0.000 A 
ATOM     31  C   UNL     1       0.838   3.761  20.125  0.00  0.00    +0.000 A 
ATOM     32  C   UNL     1       1.592   4.875  19.762  0.00  0.00    +0.000 A 
ATOM     33  C   UNL     1       2.535   4.824  18.709  0.00  0.00    +0.000 A 
ENDBRANCH  23  24
ENDBRANCH  22  23
ENDBRANCH  20  22
ENDBRANCH  18  20
ENDBRANCH   1  18
TORSDOF 9
ENDMDL
MODEL 7
REMARK VINA RESULT:      -7.9      2.960     10.961
REMARK  Name = 
REMARK  12 active torsions:
REMARK  status: ('A' for Active; 'I' for Inactive)
REMARK    1  A    between atoms: C_1  and  O_2
REMARK    2  A    between atoms: O_2  and  C_3
REMARK    3  A    between atoms: C_6  and  C_7
REMARK    4  A    between atoms: C_8  and  C_9
REMARK    5  A    between atoms: C_15  and  C_16
REMARK    6  A    between atoms: C_16  and  C_17
REMARK    7  A    between atoms: C_17  and  C_18
REMARK    8  A    between atoms: C_17  and  N_19
REMARK    9  A    between atoms: N_19  and  C_20
REMARK   10  A    between atoms: N_19  and  C_21
REMARK   11  A    between atoms: C_21  and  C_22
REMARK   12  A    between atoms: C_22  and  C_23
REMARK                            x       y       z     vdW  Elec       q    Type
REMARK                         _______ _______ _______ _____ _____    ______ ____
ROOT
ATOM      1  C   UNL     1      -1.257  10.232  18.946  0.00  0.00    +0.000 C 
ENDROOT
BRANCH   1   6
ATOM      2  C   UNL     1      -3.008  10.176  15.573  0.00  0.00    +0.000 A 
ATOM      3  C   UNL     1      -4.014  11.124  15.766  0.00  0.00    +0.000 A 
ATOM      4  C   UNL     1      -4.189  11.730  17.014  0.00  0.00    +0.000 A 
ATOM      5  C   UNL     1      -3.327  11.433  18.070  0.00  0.00    +0.000 A 
ATOM      6  C   UNL     1      -2.276  10.522  17.872  0.00  0.00    +0.000 A 
ATOM      7  C   UNL     1      -2.165   9.860  16.637  0.00  0.00    +0.000 A 
BRANCH   2   9
ATOM      8  C   UNL     1      -4.003   9.932  13.436  0.00  0.00    +0.000 C 
ATOM      9  O   UNL     1      -2.920   9.640  14.317  0.00  0.00    +0.000 OA
ENDBRANCH   2   9
BRANCH   5  10
ATOM     10  C   UNL     1      -3.544  12.061  19.345  0.00  0.00    +0.000 C 
ATOM     11  C   UNL     1      -3.753  12.566  20.406  0.00  0.00    +0.000 C 
BRANCH  11  12
ATOM     12  C   UNL     1      -3.983  13.193  21.674  0.00  0.00    +0.000 A 
ATOM     13  C   UNL     1      -3.489  12.579  22.834  0.00  0.00    +0.000 A 
ATOM     14  C   UNL     1      -3.727  13.150  24.080  0.00  0.00    +0.000 A 
ATOM     15  C   UNL     1      -4.455  14.335  24.179  0.00  0.00    +0.000 A 
ATOM     16  C   UNL     1      -4.933  14.959  23.025  0.00  0.00    +0.000 A 
ATOM     17  C   UNL     1      -4.700  14.386  21.773  0.00  0.00    +0.000 A 
ENDBRANCH  11  12
ENDBRANCH   5  10
ENDBRANCH   1   6
BRANCH   1  18
ATOM     18  C   UNL     1       0.036  11.097  18.891  0.00  0.00    +0.000 C 
ATOM     19  C   UNL     1       0.602  11.396  20.291  0.00  0.00    +0.000 C 
BRANCH  18  20
ATOM     20  N   UNL     1       1.080  10.527  17.988  0.00  0.00    +0.000 NA
ATOM     21  C   UNL     1       2.370  11.226  18.098  0.00  0.00    +0.000 C 
BRANCH  20  22
ATOM     22  C   UNL     1       1.301   9.079  18.227  0.00  0.00    +0.000 C 
BRANCH  22  23
ATOM     23  C   UNL     1       2.739   8.618  17.933  0.00  0.00    +0.000 C 
BRANCH  23  24
ATOM     24  C   UNL     1       2.968   7.179  18.339  0.00  0.00    +0.000 A 
ATOM     25  C   UNL     1       2.300   6.693  19.480  0.00  0.00    +0.000 A 
ATOM     26  C   UNL     1       2.476   5.379  19.899  0.00  0.00    +0.000 A 
ATOM     27  C   UNL     1       3.325   4.537  19.187  0.00  0.00    +0.000 A 
ATOM     28  C   UNL     1       4.007   4.993  18.048  0.00  0.00    +0.000 A 
ATOM     29  C   UNL     1       4.856   4.132  17.336  0.00  0.00    +0.000 A 
ATOM     30  C   UNL     1       5.540   4.571  16.201  0.00  0.00    +0.000 A 
ATOM     31  C   UNL     1       5.389   5.879  15.765  0.00  0.00    +0.000 A 
ATOM     32  C   UNL     1       4.554   6.748  16.465  0.00  0.00    +0.000 A 
ATOM     33  C   UNL     1       3.840   6.330  17.611  0.00  0.00    +0.000 A 
ENDBRANCH  23  24
ENDBRANCH  22  23
ENDBRANCH  20  22
ENDBRANCH  18  20
ENDBRANCH   1  18
TORSDOF 9
ENDMDL
MODEL 8
REMARK VINA RESULT:      -7.9      0.892      2.080
REMARK  Name = 
REMARK  12 active torsions:
REMARK  status: ('A' for Active; 'I' for Inactive)
REMARK    1  A    between atoms: C_1  and  O_2
REMARK    2  A    between atoms: O_2  and  C_3
REMARK    3  A    between atoms: C_6  and  C_7
REMARK    4  A    between atoms: C_8  and  C_9
REMARK    5  A    between atoms: C_15  and  C_16
REMARK    6  A    between atoms: C_16  and  C_17
REMARK    7  A    between atoms: C_17  and  C_18
REMARK    8  A    between atoms: C_17  and  N_19
REMARK    9  A    between atoms: N_19  and  C_20
REMARK   10  A    between atoms: N_19  and  C_21
REMARK   11  A    between atoms: C_21  and  C_22
REMARK   12  A    between atoms: C_22  and  C_23
REMARK                            x       y       z     vdW  Elec       q    Type
REMARK                         _______ _______ _______ _____ _____    ______ ____
ROOT
ATOM      1  C   UNL     1       2.344   5.972  17.456  0.00  0.00    +0.000 C 
ENDROOT
BRANCH   1   6
ATOM      2  C   UNL     1       1.746   3.208  19.996  0.00  0.00    +0.000 A 
ATOM      3  C   UNL     1       2.740   2.292  19.650  0.00  0.00    +0.000 A 
ATOM      4  C   UNL     1       3.560   2.519  18.540  0.00  0.00    +0.000 A 
ATOM      5  C   UNL     1       3.429   3.690  17.794  0.00  0.00    +0.000 A 
ATOM      6  C   UNL     1       2.469   4.646  18.166  0.00  0.00    +0.000 A 
ATOM      7  C   UNL     1       1.598   4.365  19.233  0.00  0.00    +0.000 A 
BRANCH   2   9
ATOM      8  C   UNL     1       1.709   2.337  22.200  0.00  0.00    +0.000 C 
ATOM      9  O   UNL     1       0.996   2.895  21.097  0.00  0.00    +0.000 OA
ENDBRANCH   2   9
BRANCH   5  10
ATOM     10  C   UNL     1       4.276   3.885  16.648  0.00  0.00    +0.000 C 
ATOM     11  C   UNL     1       4.992   4.072  15.711  0.00  0.00    +0.000 C 
BRANCH  11  12
ATOM     12  C   UNL     1       5.834   4.280  14.570  0.00  0.00    +0.000 A 
ATOM     13  C   UNL     1       5.567   3.567  13.392  0.00  0.00    +0.000 A 
ATOM     14  C   UNL     1       6.390   3.726  12.281  0.00  0.00    +0.000 A 
ATOM     15  C   UNL     1       7.478   4.596  12.335  0.00  0.00    +0.000 A 
ATOM     16  C   UNL     1       7.736   5.320  13.501  0.00  0.00    +0.000 A 
ATOM     17  C   UNL     1       6.915   5.160  14.619  0.00  0.00    +0.000 A 
ENDBRANCH  11  12
ENDBRANCH   5  10
ENDBRANCH   1   6
BRANCH   1  18
ATOM     18  C   UNL     1       2.751   7.219  18.293  0.00  0.00    +0.000 C 
ATOM     19  C   UNL     1       3.731   8.138  17.540  0.00  0.00    +0.000 C 
BRANCH  18  20
ATOM     20  N   UNL     1       1.577   7.979  18.815  0.00  0.00    +0.000 NA
ATOM     21  C   UNL     1       1.674   8.256  20.257  0.00  0.00    +0.000 C 
BRANCH  20  22
ATOM     22  C   UNL     1       1.373   9.262  18.097  0.00  0.00    +0.000 C 
BRANCH  22  23
ATOM     23  C   UNL     1       0.589  10.306  18.910  0.00  0.00    +0.000 C 
BRANCH  23  24
ATOM     24  C   UNL     1      -0.831  10.463  18.413  0.00  0.00    +0.000 A 
ATOM     25  C   UNL     1      -1.210   9.771  17.246  0.00  0.00    +0.000 A 
ATOM     26  C   UNL     1      -2.502   9.882  16.745  0.00  0.00    +0.000 A 
ATOM     27  C   UNL     1      -3.429  10.688  17.399  0.00  0.00    +0.000 A 
ATOM     28  C   UNL     1      -3.080  11.392  18.562  0.00  0.00    +0.000 A 
ATOM     29  C   UNL     1      -4.026  12.198  19.215  0.00  0.00    +0.000 A 
ATOM     30  C   UNL     1      -3.695  12.903  20.372  0.00  0.00    +0.000 A 
ATOM     31  C   UNL     1      -2.410  12.818  20.891  0.00  0.00    +0.000 A 
ATOM     32  C   UNL     1      -1.459  12.026  20.250  0.00  0.00    +0.000 A 
ATOM     33  C   UNL     1      -1.767  11.292  19.082  0.00  0.00    +0.000 A 
ENDBRANCH  23  24
ENDBRANCH  22  23
ENDBRANCH  20  22
ENDBRANCH  18  20
ENDBRANCH   1  18
TORSDOF 9
ENDMDL
MODEL 9
REMARK VINA RESULT:      -7.8      3.536     10.529
REMARK  Name = 
REMARK  12 active torsions:
REMARK  status: ('A' for Active; 'I' for Inactive)
REMARK    1  A    between atoms: C_1  and  O_2
REMARK    2  A    between atoms: O_2  and  C_3
REMARK    3  A    between atoms: C_6  and  C_7
REMARK    4  A    between atoms: C_8  and  C_9
REMARK    5  A    between atoms: C_15  and  C_16
REMARK    6  A    between atoms: C_16  and  C_17
REMARK    7  A    between atoms: C_17  and  C_18
REMARK    8  A    between atoms: C_17  and  N_19
REMARK    9  A    between atoms: N_19  and  C_20
REMARK   10  A    between atoms: N_19  and  C_21
REMARK   11  A    between atoms: C_21  and  C_22
REMARK   12  A    between atoms: C_22  and  C_23
REMARK                            x       y       z     vdW  Elec       q    Type
REMARK                         _______ _______ _______ _____ _____    ______ ____
ROOT
ATOM      1  C   UNL     1       0.223  10.768  19.944  0.00  0.00    +0.000 C 
ENDROOT
BRANCH   1   6
ATOM      2  C   UNL     1       2.181  13.849  18.887  0.00  0.00    +0.000 A 
ATOM      3  C   UNL     1       1.155  14.771  18.672  0.00  0.00    +0.000 A 
ATOM      4  C   UNL     1      -0.184  14.382  18.786  0.00  0.00    +0.000 A 
ATOM      5  C   UNL     1      -0.511  13.081  19.166  0.00  0.00    +0.000 A 
ATOM      6  C   UNL     1       0.514  12.159  19.439  0.00  0.00    +0.000 A 
ATOM      7  C   UNL     1       1.852  12.542  19.241  0.00  0.00    +0.000 A 
BRANCH   2   9
ATOM      8  C   UNL     1       3.655  15.290  17.718  0.00  0.00    +0.000 C 
ATOM      9  O   UNL     1       3.456  14.327  18.751  0.00  0.00    +0.000 OA
ENDBRANCH   2   9
BRANCH   5  10
ATOM     10  C   UNL     1      -1.897  12.708  19.256  0.00  0.00    +0.000 C 
ATOM     11  C   UNL     1      -3.055  12.423  19.311  0.00  0.00    +0.000 C 
BRANCH  11  12
ATOM     12  C   UNL     1      -4.440  12.065  19.401  0.00  0.00    +0.000 A 
ATOM     13  C   UNL     1      -5.020  11.334  18.354  0.00  0.00    +0.000 A 
ATOM     14  C   UNL     1      -6.371  11.003  18.402  0.00  0.00    +0.000 A 
ATOM     15  C   UNL     1      -7.149  11.394  19.491  0.00  0.00    +0.000 A 
ATOM     16  C   UNL     1      -6.570  12.106  20.542  0.00  0.00    +0.000 A 
ATOM     17  C   UNL     1      -5.216  12.445  20.496  0.00  0.00    +0.000 A 
ENDBRANCH  11  12
ENDBRANCH   5  10
ENDBRANCH   1   6
BRANCH   1  18
ATOM     18  C   UNL     1       0.477  10.541  21.463  0.00  0.00    +0.000 C 
ATOM     19  C   UNL     1      -0.661  11.095  22.338  0.00  0.00    +0.000 C 
BRANCH  18  20
ATOM     20  N   UNL     1       0.784   9.119  21.796  0.00  0.00    +0.000 NA
ATOM     21  C   UNL     1      -0.417   8.345  22.150  0.00  0.00    +0.000 C 
BRANCH  20  22
ATOM     22  C   UNL     1       1.490   8.423  20.692  0.00  0.00    +0.000 C 
BRANCH  22  23
ATOM     23  C   UNL     1       1.467   6.889  20.815  0.00  0.00    +0.000 C 
BRANCH  23  24
ATOM     24  C   UNL     1       2.153   6.215  19.647  0.00  0.00    +0.000 A 
ATOM     25  C   UNL     1       3.026   6.984  18.852  0.00  0.00    +0.000 A 
ATOM     26  C   UNL     1       3.680   6.415  17.765  0.00  0.00    +0.000 A 
ATOM     27  C   UNL     1       3.468   5.074  17.456  0.00  0.00    +0.000 A 
ATOM     28  C   UNL     1       2.602   4.284  18.229  0.00  0.00    +0.000 A 
ATOM     29  C   UNL     1       2.400   2.932  17.910  0.00  0.00    +0.000 A 
ATOM     30  C   UNL     1       1.544   2.134  18.668  0.00  0.00    +0.000 A 
ATOM     31  C   UNL     1       0.871   2.677  19.754  0.00  0.00    +0.000 A 
ATOM     32  C   UNL     1       1.056   4.019  20.079  0.00  0.00    +0.000 A 
ATOM     33  C   UNL     1       1.925   4.851  19.336  0.00  0.00    +0.000 A 
ENDBRANCH  23  24
ENDBRANCH  22  23
ENDBRANCH  20  22
ENDBRANCH  18  20
ENDBRANCH   1  18
TORSDOF 9
ENDMDL
