MODEL 1
REMARK VINA RESULT:      -6.0      0.000      0.000
REMARK  Name = 
REMARK  8 active torsions:
REMARK  status: ('A' for Active; 'I' for Inactive)
REMARK    1  A    between atoms: C_1  and  C_2
REMARK    2  A    between atoms: C_2  and  C_3
REMARK    3  A    between atoms: C_3  and  C_4
REMARK    4  A    between atoms: C_4  and  C_5
REMARK    5  A    between atoms: C_5  and  N_6
REMARK    6  A    between atoms: N_6  and  C_7
REMARK    7  A    between atoms: C_12  and  C_13
REMARK    8  A    between atoms: C_13  and  O_15
REMARK                            x       y       z     vdW  Elec       q    Type
REMARK                         _______ _______ _______ _____ _____    ______ ____
ROOT
ATOM      1  C   UNL     1       4.818   4.579  18.520  0.00  0.00    +0.000 A 
ATOM      2  C   UNL     1       3.916   5.407  19.214  0.00  0.00    +0.000 A 
ATOM      3  C   UNL     1       3.452   6.608  18.668  0.00  0.00    +0.000 A 
ATOM      4  C   UNL     1       3.910   7.037  17.430  0.00  0.00    +0.000 A 
ATOM      5  C   UNL     1       4.859   6.280  16.749  0.00  0.00    +0.000 A 
ATOM      6  C   UNL     1       5.335   5.077  17.300  0.00  0.00    +0.000 A 
ENDROOT
BRANCH   1   7
ATOM      7  N   UNL     1       5.303   3.366  19.078  0.00  0.00    +0.000 N 
ATOM      8  H   UNL     1       5.849   2.862  18.368  0.00  0.00    +0.000 HD
BRANCH   7   9
ATOM      9  C   UNL     1       4.297   2.445  19.626  0.00  0.00    +0.000 C 
BRANCH   9  10
ATOM     10  C   UNL     1       3.473   1.841  18.490  0.00  0.00    +0.000 C 
BRANCH  10  11
ATOM     11  C   UNL     1       1.988   2.156  18.675  0.00  0.00    +0.000 C 
BRANCH  11  13
ATOM     12  C   UNL     1       0.855   3.791  20.219  0.00  0.00    +0.000 C 
ATOM     13  C   UNL     1       1.670   2.511  20.125  0.00  0.00    +0.000 C 
ENDBRANCH  11  13
ENDBRANCH  10  11
ENDBRANCH   9  10
ENDBRANCH   7   9
ENDBRANCH   1   7
BRANCH   6  14
ATOM     14  C   UNL     1       6.383   4.367  16.518  0.00  0.00    +0.000 C 
ATOM     15  O   UNL     1       7.523   4.782  16.399  0.00  0.00    +0.000 OA
BRANCH  14  16
ATOM     16  O   UNL     1       5.962   3.199  15.991  0.00  0.00    +0.000 OA
ATOM     17  H   UNL     1       6.676   2.732  15.500  0.00  0.00    +0.000 HD
ENDBRANCH  14  16
ENDBRANCH   6  14
TORSDOF 7
ENDMDL
MODEL 2
REMARK VINA RESULT:      -5.9      2.453      4.958
REMARK  Name = 
REMARK  8 active torsions:
REMARK  status: ('A' for Active; 'I' for Inactive)
REMARK    1  A    between atoms: C_1  and  C_2
REMARK    2  A    between atoms: C_2  and  C_3
REMARK    3  A    between atoms: C_3  and  C_4
REMARK    4  A    between atoms: C_4  and  C_5
REMARK    5  A    between atoms: C_5  and  N_6
REMARK    6  A    between atoms: N_6  and  C_7
REMARK    7  A    between atoms: C_12  and  C_13
REMARK    8  A    between atoms: C_13  and  O_15
REMARK                            x       y       z     vdW  Elec       q    Type
REMARK                         _______ _______ _______ _____ _____    ______ ____
ROOT
ATOM      1  C   UNL     1       4.174   3.710  18.547  0.00  0.00    +0.000 A 
ATOM      2  C   UNL     1       3.431   4.309  17.513  0.00  0.00    +0.000 A 
ATOM      3  C   UNL     1       2.035   4.224  17.465  0.00  0.00    +0.000 A 
ATOM      4  C   UNL     1       1.345   3.500  18.429  0.00  0.00    +0.000 A 
ATOM      5  C   UNL     1       2.054   2.833  19.423  0.00  0.00    +0.000 A 
ATOM      6  C   UNL     1       3.458   2.909  19.468  0.00  0.00    +0.000 A 
ENDROOT
BRANCH   1   7
ATOM      7  N   UNL     1       5.592   3.781  18.590  0.00  0.00    +0.000 N 
ATOM      8  H   UNL     1       5.907   3.664  19.560  0.00  0.00    +0.000 HD
BRANCH   7   9
ATOM      9  C   UNL     1       6.206   5.003  18.050  0.00  0.00    +0.000 C 
BRANCH   9  10
ATOM     10  C   UNL     1       7.374   4.636  17.136  0.00  0.00    +0.000 C 
BRANCH  10  11
ATOM     11  C   UNL     1       7.015   4.893  15.672  0.00  0.00    +0.000 C 
BRANCH  11  13
ATOM     12  C   UNL     1       6.006   3.887  13.595  0.00  0.00    +0.000 C 
ATOM     13  C   UNL     1       6.153   3.768  15.104  0.00  0.00    +0.000 C 
ENDBRANCH  11  13
ENDBRANCH  10  11
ENDBRANCH   9  10
ENDBRANCH   7   9
ENDBRANCH   1   7
BRANCH   6  14
ATOM     14  C   UNL     1       4.122   2.121  20.541  0.00  0.00    +0.000 C 
ATOM     15  O   UNL     1       3.691   2.043  21.678  0.00  0.00    +0.000 OA
BRANCH  14  16
ATOM     16  O   UNL     1       5.223   1.464  20.121  0.00  0.00    +0.000 OA
ATOM     17  H   UNL     1       5.576   1.829  19.277  0.00  0.00    +0.000 HD
ENDBRANCH  14  16
ENDBRANCH   6  14
TORSDOF 7
ENDMDL
MODEL 3
REMARK VINA RESULT:      -5.8      2.174      2.971
REMARK  Name = 
REMARK  8 active torsions:
REMARK  status: ('A' for Active; 'I' for Inactive)
REMARK    1  A    between atoms: C_1  and  C_2
REMARK    2  A    between atoms: C_2  and  C_3
REMARK    3  A    between atoms: C_3  and  C_4
REMARK    4  A    between atoms: C_4  and  C_5
REMARK    5  A    between atoms: C_5  and  N_6
REMARK    6  A    between atoms: N_6  and  C_7
REMARK    7  A    between atoms: C_12  and  C_13
REMARK    8  A    between atoms: C_13  and  O_15
REMARK                            x       y       z     vdW  Elec       q    Type
REMARK                         _______ _______ _______ _____ _____    ______ ____
ROOT
ATOM      1  C   UNL     1       4.677   4.137  17.357  0.00  0.00    +0.000 A 
ATOM      2  C   UNL     1       5.326   3.875  16.136  0.00  0.00    +0.000 A 
ATOM      3  C   UNL     1       5.663   4.901  15.247  0.00  0.00    +0.000 A 
ATOM      4  C   UNL     1       5.323   6.216  15.535  0.00  0.00    +0.000 A 
ATOM      5  C   UNL     1       4.616   6.503  16.698  0.00  0.00    +0.000 A 
ATOM      6  C   UNL     1       4.266   5.471  17.589  0.00  0.00    +0.000 A 
ENDROOT
BRANCH   1   7
ATOM      7  N   UNL     1       4.319   3.096  18.254  0.00  0.00    +0.000 N 
ATOM      8  H   UNL     1       5.131   2.485  18.404  0.00  0.00    +0.000 HD
BRANCH   7   9
ATOM      9  C   UNL     1       3.176   2.257  17.867  0.00  0.00    +0.000 C 
BRANCH   9  10
ATOM     10  C   UNL     1       2.283   2.005  19.081  0.00  0.00    +0.000 C 
BRANCH  10  11
ATOM     11  C   UNL     1       1.115   2.992  19.105  0.00  0.00    +0.000 C 
BRANCH  11  13
ATOM     12  C   UNL     1       1.920   3.043  21.491  0.00  0.00    +0.000 C 
ATOM     13  C   UNL     1       0.987   3.670  20.467  0.00  0.00    +0.000 C 
ENDBRANCH  11  13
ENDBRANCH  10  11
ENDBRANCH   9  10
ENDBRANCH   7   9
ENDBRANCH   1   7
BRANCH   6  14
ATOM     14  C   UNL     1       3.468   5.875  18.778  0.00  0.00    +0.000 C 
ATOM     15  O   UNL     1       2.396   6.450  18.700  0.00  0.00    +0.000 OA
BRANCH  14  16
ATOM     16  O   UNL     1       4.025   5.505  19.950  0.00  0.00    +0.000 OA
ATOM     17  H   UNL     1       3.554   4.744  20.362  0.00  0.00    +0.000 HD
ENDBRANCH  14  16
ENDBRANCH   6  14
TORSDOF 7
ENDMDL
MODEL 4
REMARK VINA RESULT:      -5.8      2.186      3.116
REMARK  Name = 
REMARK  8 active torsions:
REMARK  status: ('A' for Active; 'I' for Inactive)
REMARK    1  A    between atoms: C_1  and  C_2
REMARK    2  A    between atoms: C_2  and  C_3
REMARK    3  A    between atoms: C_3  and  C_4
REMARK    4  A    between atoms: C_4  and  C_5
REMARK    5  A    between atoms: C_5  and  N_6
REMARK    6  A    between atoms: N_6  and  C_7
REMARK    7  A    between atoms: C_12  and  C_13
REMARK    8  A    between atoms: C_13  and  O_15
REMARK                            x       y       z     vdW  Elec       q    Type
REMARK                         _______ _______ _______ _____ _____    ______ ____
ROOT
ATOM      1  C   UNL     1       5.260   4.814  18.460  0.00  0.00    +0.000 A 
ATOM      2  C   UNL     1       4.538   4.331  17.355  0.00  0.00    +0.000 A 
ATOM      3  C   UNL     1       5.167   4.008  16.148  0.00  0.00    +0.000 A 
ATOM      4  C   UNL     1       6.535   4.201  16.000  0.00  0.00    +0.000 A 
ATOM      5  C   UNL     1       7.268   4.747  17.048  0.00  0.00    +0.000 A 
ATOM      6  C   UNL     1       6.635   5.082  18.259  0.00  0.00    +0.000 A 
ENDROOT
BRANCH   1   7
ATOM      7  N   UNL     1       4.622   5.158  19.682  0.00  0.00    +0.000 N 
ATOM      8  H   UNL     1       4.713   4.376  20.343  0.00  0.00    +0.000 HD
BRANCH   7   9
ATOM      9  C   UNL     1       3.201   5.528  19.601  0.00  0.00    +0.000 C 
BRANCH   9  10
ATOM     10  C   UNL     1       2.446   4.955  20.800  0.00  0.00    +0.000 C 
BRANCH  10  11
ATOM     11  C   UNL     1       1.169   4.248  20.345  0.00  0.00    +0.000 C 
BRANCH  11  13
ATOM     12  C   UNL     1       1.140   2.398  18.637  0.00  0.00    +0.000 C 
ATOM     13  C   UNL     1       1.416   2.764  20.087  0.00  0.00    +0.000 C 
ENDBRANCH  11  13
ENDBRANCH  10  11
ENDBRANCH   9  10
ENDBRANCH   7   9
ENDBRANCH   1   7
BRANCH   6  14
ATOM     14  C   UNL     1       7.498   5.705  19.299  0.00  0.00    +0.000 C 
ATOM     15  O   UNL     1       7.609   5.261  20.429  0.00  0.00    +0.000 OA
BRANCH  14  16
ATOM     16  O   UNL     1       8.181   6.781  18.856  0.00  0.00    +0.000 OA
ATOM     17  H   UNL     1       8.232   7.494  19.534  0.00  0.00    +0.000 HD
ENDBRANCH  14  16
ENDBRANCH   6  14
TORSDOF 7
ENDMDL
MODEL 5
REMARK VINA RESULT:      -5.7      1.023      1.188
REMARK  Name = 
REMARK  8 active torsions:
REMARK  status: ('A' for Active; 'I' for Inactive)
REMARK    1  A    between atoms: C_1  and  C_2
REMARK    2  A    between atoms: C_2  and  C_3
REMARK    3  A    between atoms: C_3  and  C_4
REMARK    4  A    between atoms: C_4  and  C_5
REMARK    5  A    between atoms: C_5  and  N_6
REMARK    6  A    between atoms: N_6  and  C_7
REMARK    7  A    between atoms: C_12  and  C_13
REMARK    8  A    between atoms: C_13  and  O_15
REMARK                            x       y       z     vdW  Elec       q    Type
REMARK                         _______ _______ _______ _____ _____    ______ ____
ROOT
ATOM      1  C   UNL     1       4.329   4.383  17.465  0.00  0.00    +0.000 A 
ATOM      2  C   UNL     1       3.362   5.236  18.025  0.00  0.00    +0.000 A 
ATOM      3  C   UNL     1       3.411   6.622  17.847  0.00  0.00    +0.000 A 
ATOM      4  C   UNL     1       4.455   7.200  17.137  0.00  0.00    +0.000 A 
ATOM      5  C   UNL     1       5.470   6.393  16.632  0.00  0.00    +0.000 A 
ATOM      6  C   UNL     1       5.428   4.999  16.819  0.00  0.00    +0.000 A 
ENDROOT
BRANCH   1   7
ATOM      7  N   UNL     1       4.291   2.976  17.657  0.00  0.00    +0.000 N 
ATOM      8  H   UNL     1       4.828   2.518  16.910  0.00  0.00    +0.000 HD
BRANCH   7   9
ATOM      9  C   UNL     1       2.959   2.355  17.713  0.00  0.00    +0.000 C 
BRANCH   9  10
ATOM     10  C   UNL     1       2.611   2.004  19.158  0.00  0.00    +0.000 C 
BRANCH  10  11
ATOM     11  C   UNL     1       1.224   2.534  19.523  0.00  0.00    +0.000 C 
BRANCH  11  13
ATOM     12  C   UNL     1       2.215   3.955  21.351  0.00  0.00    +0.000 C 
ATOM     13  C   UNL     1       1.149   2.931  20.996  0.00  0.00    +0.000 C 
ENDBRANCH  11  13
ENDBRANCH  10  11
ENDBRANCH   9  10
ENDBRANCH   7   9
ENDBRANCH   1   7
BRANCH   6  14
ATOM     14  C   UNL     1       6.584   4.231  16.283  0.00  0.00    +0.000 C 
ATOM     15  O   UNL     1       7.742   4.477  16.575  0.00  0.00    +0.000 OA
BRANCH  14  16
ATOM     16  O   UNL     1       6.225   3.209  15.479  0.00  0.00    +0.000 OA
ATOM     17  H   UNL     1       5.606   3.494  14.768  0.00  0.00    +0.000 HD
ENDBRANCH  14  16
ENDBRANCH   6  14
TORSDOF 7
ENDMDL
MODEL 6
REMARK VINA RESULT:      -5.7      1.908      2.989
REMARK  Name = 
REMARK  8 active torsions:
REMARK  status: ('A' for Active; 'I' for Inactive)
REMARK    1  A    between atoms: C_1  and  C_2
REMARK    2  A    between atoms: C_2  and  C_3
REMARK    3  A    between atoms: C_3  and  C_4
REMARK    4  A    between atoms: C_4  and  C_5
REMARK    5  A    between atoms: C_5  and  N_6
REMARK    6  A    between atoms: N_6  and  C_7
REMARK    7  A    between atoms: C_12  and  C_13
REMARK    8  A    between atoms: C_13  and  O_15
REMARK                            x       y       z     vdW  Elec       q    Type
REMARK                         _______ _______ _______ _____ _____    ______ ____
ROOT
ATOM      1  C   UNL     1       4.417   5.538  18.141  0.00  0.00    +0.000 A 
ATOM      2  C   UNL     1       4.785   6.650  17.363  0.00  0.00    +0.000 A 
ATOM      3  C   UNL     1       5.190   6.514  16.031  0.00  0.00    +0.000 A 
ATOM      4  C   UNL     1       5.277   5.255  15.451  0.00  0.00    +0.000 A 
ATOM      5  C   UNL     1       4.991   4.128  16.214  0.00  0.00    +0.000 A 
ATOM      6  C   UNL     1       4.594   4.261  17.557  0.00  0.00    +0.000 A 
ENDROOT
BRANCH   1   7
ATOM      7  N   UNL     1       4.021   5.671  19.499  0.00  0.00    +0.000 N 
ATOM      8  H   UNL     1       4.001   4.742  19.938  0.00  0.00    +0.000 HD
BRANCH   7   9
ATOM      9  C   UNL     1       2.728   6.325  19.747  0.00  0.00    +0.000 C 
BRANCH   9  10
ATOM     10  C   UNL     1       1.661   5.271  20.040  0.00  0.00    +0.000 C 
BRANCH  10  11
ATOM     11  C   UNL     1       2.121   4.337  21.161  0.00  0.00    +0.000 C 
BRANCH  11  13
ATOM     12  C   UNL     1       0.791   2.796  19.678  0.00  0.00    +0.000 C 
ATOM     13  C   UNL     1       1.521   2.942  21.003  0.00  0.00    +0.000 C 
ENDBRANCH  11  13
ENDBRANCH  10  11
ENDBRANCH   9  10
ENDBRANCH   7   9
ENDBRANCH   1   7
BRANCH   6  14
ATOM     14  C   UNL     1       4.359   2.993  18.300  0.00  0.00    +0.000 C 
ATOM     15  O   UNL     1       3.626   2.107  17.895  0.00  0.00    +0.000 OA
BRANCH  14  16
ATOM     16  O   UNL     1       5.071   2.900  19.442  0.00  0.00    +0.000 OA
ATOM     17  H   UNL     1       5.535   2.035  19.523  0.00  0.00    +0.000 HD
ENDBRANCH  14  16
ENDBRANCH   6  14
TORSDOF 7
ENDMDL
MODEL 7
REMARK VINA RESULT:      -5.7      2.398      4.930
REMARK  Name = 
REMARK  8 active torsions:
REMARK  status: ('A' for Active; 'I' for Inactive)
REMARK    1  A    between atoms: C_1  and  C_2
REMARK    2  A    between atoms: C_2  and  C_3
REMARK    3  A    between atoms: C_3  and  C_4
REMARK    4  A    between atoms: C_4  and  C_5
REMARK    5  A    between atoms: C_5  and  N_6
REMARK    6  A    between atoms: N_6  and  C_7
REMARK    7  A    between atoms: C_12  and  C_13
REMARK    8  A    between atoms: C_13  and  O_15
REMARK                            x       y       z     vdW  Elec       q    Type
REMARK                         _______ _______ _______ _____ _____    ______ ____
ROOT
ATOM      1  C   UNL     1       2.753   3.321  18.737  0.00  0.00    +0.000 A 
ATOM      2  C   UNL     1       1.549   4.027  18.910  0.00  0.00    +0.000 A 
ATOM      3  C   UNL     1       0.902   4.087  20.148  0.00  0.00    +0.000 A 
ATOM      4  C   UNL     1       1.419   3.404  21.241  0.00  0.00    +0.000 A 
ATOM      5  C   UNL     1       2.567   2.634  21.088  0.00  0.00    +0.000 A 
ATOM      6  C   UNL     1       3.215   2.565  19.841  0.00  0.00    +0.000 A 
ENDROOT
BRANCH   1   7
ATOM      7  N   UNL     1       3.405   3.246  17.477  0.00  0.00    +0.000 N 
ATOM      8  H   UNL     1       4.064   2.457  17.484  0.00  0.00    +0.000 HD
BRANCH   7   9
ATOM      9  C   UNL     1       4.129   4.448  17.038  0.00  0.00    +0.000 C 
BRANCH   9  10
ATOM     10  C   UNL     1       5.609   4.323  17.399  0.00  0.00    +0.000 C 
BRANCH  10  11
ATOM     11  C   UNL     1       6.488   4.707  16.208  0.00  0.00    +0.000 C 
BRANCH  11  13
ATOM     12  C   UNL     1       6.066   3.936  13.849  0.00  0.00    +0.000 C 
ATOM     13  C   UNL     1       5.657   4.908  14.944  0.00  0.00    +0.000 C 
ENDBRANCH  11  13
ENDBRANCH  10  11
ENDBRANCH   9  10
ENDBRANCH   7   9
ENDBRANCH   1   7
BRANCH   6  14
ATOM     14  C   UNL     1       4.407   1.677  19.770  0.00  0.00    +0.000 C 
ATOM     15  O   UNL     1       5.289   1.673  20.611  0.00  0.00    +0.000 OA
BRANCH  14  16
ATOM     16  O   UNL     1       4.393   0.844  18.709  0.00  0.00    +0.000 OA
ATOM     17  H   UNL     1       4.069  -0.055  18.945  0.00  0.00    +0.000 HD
ENDBRANCH  14  16
ENDBRANCH   6  14
TORSDOF 7
ENDMDL
MODEL 8
REMARK VINA RESULT:      -5.7      0.984      1.136
REMARK  Name = 
REMARK  8 active torsions:
REMARK  status: ('A' for Active; 'I' for Inactive)
REMARK    1  A    between atoms: C_1  and  C_2
REMARK    2  A    between atoms: C_2  and  C_3
REMARK    3  A    between atoms: C_3  and  C_4
REMARK    4  A    between atoms: C_4  and  C_5
REMARK    5  A    between atoms: C_5  and  N_6
REMARK    6  A    between atoms: N_6  and  C_7
REMARK    7  A    between atoms: C_12  and  C_13
REMARK    8  A    between atoms: C_13  and  O_15
REMARK                            x       y       z     vdW  Elec       q    Type
REMARK                         _______ _______ _______ _____ _____    ______ ____
ROOT
ATOM      1  C   UNL     1       4.745   4.514  17.703  0.00  0.00    +0.000 A 
ATOM      2  C   UNL     1       3.608   5.247  18.088  0.00  0.00    +0.000 A 
ATOM      3  C   UNL     1       3.468   6.604  17.778  0.00  0.00    +0.000 A 
ATOM      4  C   UNL     1       4.482   7.277  17.109  0.00  0.00    +0.000 A 
ATOM      5  C   UNL     1       5.652   6.601  16.778  0.00  0.00    +0.000 A 
ATOM      6  C   UNL     1       5.799   5.239  17.098  0.00  0.00    +0.000 A 
ENDROOT
BRANCH   1   7
ATOM      7  N   UNL     1       4.897   3.140  18.030  0.00  0.00    +0.000 N 
ATOM      8  H   UNL     1       4.709   2.571  17.195  0.00  0.00    +0.000 HD
BRANCH   7   9
ATOM      9  C   UNL     1       4.069   2.630  19.132  0.00  0.00    +0.000 C 
BRANCH   9  10
ATOM     10  C   UNL     1       2.967   1.729  18.579  0.00  0.00    +0.000 C 
BRANCH  10  11
ATOM     11  C   UNL     1       1.618   2.078  19.210  0.00  0.00    +0.000 C 
BRANCH  11  13
ATOM     12  C   UNL     1       1.444   2.630  21.661  0.00  0.00    +0.000 C 
ATOM     13  C   UNL     1       1.764   3.163  20.273  0.00  0.00    +0.000 C 
ENDBRANCH  11  13
ENDBRANCH  10  11
ENDBRANCH   9  10
ENDBRANCH   7   9
ENDBRANCH   1   7
BRANCH   6  14
ATOM     14  C   UNL     1       7.106   4.621  16.745  0.00  0.00    +0.000 C 
ATOM     15  O   UNL     1       7.580   4.655  15.622  0.00  0.00    +0.000 OA
BRANCH  14  16
ATOM     16  O   UNL     1       7.736   4.059  17.797  0.00  0.00    +0.000 OA
ATOM     17  H   UNL     1       8.703   3.955  17.641  0.00  0.00    +0.000 HD
ENDBRANCH  14  16
ENDBRANCH   6  14
TORSDOF 7
ENDMDL
MODEL 9
REMARK VINA RESULT:      -5.7      1.935      2.462
REMARK  Name = 
REMARK  8 active torsions:
REMARK  status: ('A' for Active; 'I' for Inactive)
REMARK    1  A    between atoms: C_1  and  C_2
REMARK    2  A    between atoms: C_2  and  C_3
REMARK    3  A    between atoms: C_3  and  C_4
REMARK    4  A    between atoms: C_4  and  C_5
REMARK    5  A    between atoms: C_5  and  N_6
REMARK    6  A    between atoms: N_6  and  C_7
REMARK    7  A    between atoms: C_12  and  C_13
REMARK    8  A    between atoms: C_13  and  O_15
REMARK                            x       y       z     vdW  Elec       q    Type
REMARK                         _______ _______ _______ _____ _____    ______ ____
ROOT
ATOM      1  C   UNL     1       3.284   5.665  19.650  0.00  0.00    +0.000 A 
ATOM      2  C   UNL     1       2.313   6.602  19.251  0.00  0.00    +0.000 A 
ATOM      3  C   UNL     1       2.471   7.380  18.100  0.00  0.00    +0.000 A 
ATOM      4  C   UNL     1       3.627   7.274  17.337  0.00  0.00    +0.000 A 
ATOM      5  C   UNL     1       4.640   6.411  17.743  0.00  0.00    +0.000 A 
ATOM      6  C   UNL     1       4.487   5.634  18.906  0.00  0.00    +0.000 A 
ENDROOT
BRANCH   1   7
ATOM      7  N   UNL     1       3.133   4.883  20.827  0.00  0.00    +0.000 N 
ATOM      8  H   UNL     1       4.030   4.847  21.325  0.00  0.00    +0.000 HD
BRANCH   7   9
ATOM      9  C   UNL     1       2.650   3.507  20.646  0.00  0.00    +0.000 C 
BRANCH   9  10
ATOM     10  C   UNL     1       1.143   3.514  20.394  0.00  0.00    +0.000 C 
BRANCH  10  11
ATOM     11  C   UNL     1       0.828   2.976  18.997  0.00  0.00    +0.000 C 
BRANCH  11  13
ATOM     12  C   UNL     1       2.470   3.185  17.100  0.00  0.00    +0.000 C 
ATOM     13  C   UNL     1       2.070   2.389  18.332  0.00  0.00    +0.000 C 
ENDBRANCH  11  13
ENDBRANCH  10  11
ENDBRANCH   9  10
ENDBRANCH   7   9
ENDBRANCH   1   7
BRANCH   6  14
ATOM     14  C   UNL     1       5.647   4.780  19.280  0.00  0.00    +0.000 C 
ATOM     15  O   UNL     1       6.639   5.210  19.843  0.00  0.00    +0.000 OA
BRANCH  14  16
ATOM     16  O   UNL     1       5.474   3.477  18.978  0.00  0.00    +0.000 OA
ATOM     17  H   UNL     1       5.590   2.894  19.762  0.00  0.00    +0.000 HD
ENDBRANCH  14  16
ENDBRANCH   6  14
TORSDOF 7
ENDMDL
