MODEL 1
REMARK VINA RESULT:      -6.9      0.000      0.000
REMARK  Name = 
REMARK  6 active torsions:
REMARK  status: ('A' for Active; 'I' for Inactive)
REMARK    1  A    between atoms: C_2  and  C_3
REMARK    2  A    between atoms: N_9  and  C_10
REMARK    3  A    between atoms: C_10  and  C_11
REMARK    4  A    between atoms: C_11  and  O_12
REMARK    5  A    between atoms: C_11  and  C_13
REMARK    6  A    between atoms: C_13  and  O_14
REMARK                            x       y       z     vdW  Elec       q    Type
REMARK                         _______ _______ _______ _____ _____    ______ ____
ROOT
ATOM      1  C   UNL     1       5.932   5.619  15.910  0.00  0.00    +0.000 A 
ATOM      2  C   UNL     1       4.828   6.315  15.449  0.00  0.00    +0.000 A 
ATOM      3  C   UNL     1       4.224   7.209  16.306  0.00  0.00    +0.000 A 
ATOM      4  C   UNL     1       4.163   6.832  17.637  0.00  0.00    +0.000 A 
ATOM      5  C   UNL     1       3.186   7.383  18.533  0.00  0.00    +0.000 A 
ATOM      6  C   UNL     1       2.689   6.694  19.580  0.00  0.00    +0.000 A 
ATOM      7  N   UNL     1       3.208   5.425  19.885  0.00  0.00    +0.000 N 
ATOM      8  C   UNL     1       4.420   4.982  19.256  0.00  0.00    +0.000 A 
ATOM      9  O   UNL     1       4.971   3.921  19.527  0.00  0.00    +0.000 OA
ATOM     10  C   UNL     1       4.960   5.797  18.083  0.00  0.00    +0.000 A 
ATOM     11  C   UNL     1       6.044   5.425  17.285  0.00  0.00    +0.000 A 
ATOM     12  C   UNL     1       1.598   7.520  20.152  0.00  0.00    +0.000 A 
ATOM     13  C   UNL     1       0.635   7.380  21.127  0.00  0.00    +0.000 A 
ATOM     14  C   UNL     1      -0.325   8.421  21.306  0.00  0.00    +0.000 A 
ATOM     15  C   UNL     1      -0.298   9.595  20.541  0.00  0.00    +0.000 A 
ATOM     16  C   UNL     1       0.648   9.765  19.575  0.00  0.00    +0.000 A 
ATOM     17  C   UNL     1       1.554   8.722  19.412  0.00  0.00    +0.000 A 
ATOM     18  C   UNL     1       2.553   8.681  18.409  0.00  0.00    +0.000 C 
ATOM     19  O   UNL     1       2.815   9.579  17.602  0.00  0.00    +0.000 OA
ENDROOT
BRANCH   1  21
ATOM     20  N   UNL     1       7.759   4.904  14.208  0.00  0.00    +0.000 NA
ATOM     21  C   UNL     1       6.915   5.185  14.956  0.00  0.00    +0.000 C 
ENDBRANCH   1  21
BRANCH   7  22
ATOM     22  C   UNL     1       2.567   4.535  20.881  0.00  0.00    +0.000 C 
BRANCH  22  23
ATOM     23  C   UNL     1       1.294   3.803  20.381  0.00  0.00    +0.000 C 
BRANCH  23  24
ATOM     24  O   UNL     1       0.910   2.818  21.361  0.00  0.00    +0.000 OA
ATOM     25  H   UNL     1       1.652   2.173  21.389  0.00  0.00    +0.000 HD
ENDBRANCH  23  24
BRANCH  23  26
ATOM     26  C   UNL     1       1.422   3.090  19.025  0.00  0.00    +0.000 C 
BRANCH  26  27
ATOM     27  O   UNL     1       2.458   2.103  19.096  0.00  0.00    +0.000 OA
ATOM     28  H   UNL     1       3.193   2.484  19.608  0.00  0.00    +0.000 HD
ENDBRANCH  26  27
ENDBRANCH  23  26
ENDBRANCH  22  23
ENDBRANCH   7  22
TORSDOF 6
ENDMDL
MODEL 2
REMARK VINA RESULT:      -6.5      6.171      8.678
REMARK  Name = 
REMARK  6 active torsions:
REMARK  status: ('A' for Active; 'I' for Inactive)
REMARK    1  A    between atoms: C_2  and  C_3
REMARK    2  A    between atoms: N_9  and  C_10
REMARK    3  A    between atoms: C_10  and  C_11
REMARK    4  A    between atoms: C_11  and  O_12
REMARK    5  A    between atoms: C_11  and  C_13
REMARK    6  A    between atoms: C_13  and  O_14
REMARK                            x       y       z     vdW  Elec       q    Type
REMARK                         _______ _______ _______ _____ _____    ______ ____
ROOT
ATOM      1  C   UNL     1      -3.095  10.634  16.130  0.00  0.00    +0.000 A 
ATOM      2  C   UNL     1      -4.204  10.348  16.906  0.00  0.00    +0.000 A 
ATOM      3  C   UNL     1      -4.527  11.225  17.919  0.00  0.00    +0.000 A 
ATOM      4  C   UNL     1      -3.461  11.782  18.605  0.00  0.00    +0.000 A 
ATOM      5  C   UNL     1      -3.609  12.302  19.935  0.00  0.00    +0.000 A 
ATOM      6  C   UNL     1      -2.605  12.294  20.835  0.00  0.00    +0.000 A 
ATOM      7  N   UNL     1      -1.327  11.860  20.445  0.00  0.00    +0.000 N 
ATOM      8  C   UNL     1      -1.032  11.676  19.053  0.00  0.00    +0.000 A 
ATOM      9  O   UNL     1       0.079  11.371  18.634  0.00  0.00    +0.000 OA
ATOM     10  C   UNL     1      -2.194  11.706  18.062  0.00  0.00    +0.000 A 
ATOM     11  C   UNL     1      -2.090  11.411  16.702  0.00  0.00    +0.000 A 
ATOM     12  C   UNL     1      -3.185  12.746  22.123  0.00  0.00    +0.000 A 
ATOM     13  C   UNL     1      -2.767  12.864  23.430  0.00  0.00    +0.000 A 
ATOM     14  C   UNL     1      -3.707  13.267  24.425  0.00  0.00    +0.000 A 
ATOM     15  C   UNL     1      -5.037  13.577  24.107  0.00  0.00    +0.000 A 
ATOM     16  C   UNL     1      -5.478  13.478  22.821  0.00  0.00    +0.000 A 
ATOM     17  C   UNL     1      -4.541  13.061  21.881  0.00  0.00    +0.000 A 
ATOM     18  C   UNL     1      -4.832  12.821  20.515  0.00  0.00    +0.000 C 
ATOM     19  O   UNL     1      -5.913  13.019  19.953  0.00  0.00    +0.000 OA
ENDROOT
BRANCH   1  21
ATOM     20  N   UNL     1      -3.076   9.852  13.653  0.00  0.00    +0.000 NA
ATOM     21  C   UNL     1      -3.067  10.157  14.774  0.00  0.00    +0.000 C 
ENDBRANCH   1  21
BRANCH   7  22
ATOM     22  C   UNL     1      -0.245  11.627  21.430  0.00  0.00    +0.000 C 
BRANCH  22  23
ATOM     23  C   UNL     1      -0.216  10.205  22.048  0.00  0.00    +0.000 C 
BRANCH  23  24
ATOM     24  O   UNL     1      -0.192  10.325  23.485  0.00  0.00    +0.000 OA
ATOM     25  H   UNL     1      -0.684  11.152  23.688  0.00  0.00    +0.000 HD
ENDBRANCH  23  24
BRANCH  23  26
ATOM     26  C   UNL     1       0.968   9.319  21.630  0.00  0.00    +0.000 C 
BRANCH  26  27
ATOM     27  O   UNL     1       1.914   9.243  22.703  0.00  0.00    +0.000 OA
ATOM     28  H   UNL     1       2.609   9.904  22.531  0.00  0.00    +0.000 HD
ENDBRANCH  26  27
ENDBRANCH  23  26
ENDBRANCH  22  23
ENDBRANCH   7  22
TORSDOF 6
ENDMDL
MODEL 3
REMARK VINA RESULT:      -6.3      1.912      5.824
REMARK  Name = 
REMARK  6 active torsions:
REMARK  status: ('A' for Active; 'I' for Inactive)
REMARK    1  A    between atoms: C_2  and  C_3
REMARK    2  A    between atoms: N_9  and  C_10
REMARK    3  A    between atoms: C_10  and  C_11
REMARK    4  A    between atoms: C_11  and  O_12
REMARK    5  A    between atoms: C_11  and  C_13
REMARK    6  A    between atoms: C_13  and  O_14
REMARK                            x       y       z     vdW  Elec       q    Type
REMARK                         _______ _______ _______ _____ _____    ______ ____
ROOT
ATOM      1  C   UNL     1       0.808   8.200  21.441  0.00  0.00    +0.000 A 
ATOM      2  C   UNL     1       1.856   8.877  20.843  0.00  0.00    +0.000 A 
ATOM      3  C   UNL     1       2.287   8.440  19.609  0.00  0.00    +0.000 A 
ATOM      4  C   UNL     1       2.290   7.069  19.416  0.00  0.00    +0.000 A 
ATOM      5  C   UNL     1       3.127   6.449  18.428  0.00  0.00    +0.000 A 
ATOM      6  C   UNL     1       3.619   5.202  18.571  0.00  0.00    +0.000 A 
ATOM      7  N   UNL     1       3.229   4.423  19.674  0.00  0.00    +0.000 N 
ATOM      8  C   UNL     1       2.127   4.848  20.490  0.00  0.00    +0.000 A 
ATOM      9  O   UNL     1       1.684   4.185  21.420  0.00  0.00    +0.000 OA
ATOM     10  C   UNL     1       1.586   6.261  20.287  0.00  0.00    +0.000 A 
ATOM     11  C   UNL     1       0.616   6.866  21.088  0.00  0.00    +0.000 A 
ATOM     12  C   UNL     1       4.562   4.986  17.447  0.00  0.00    +0.000 A 
ATOM     13  C   UNL     1       5.459   4.016  17.057  0.00  0.00    +0.000 A 
ATOM     14  C   UNL     1       6.276   4.249  15.910  0.00  0.00    +0.000 A 
ATOM     15  C   UNL     1       6.172   5.422  15.151  0.00  0.00    +0.000 A 
ATOM     16  C   UNL     1       5.287   6.396  15.507  0.00  0.00    +0.000 A 
ATOM     17  C   UNL     1       4.523   6.146  16.642  0.00  0.00    +0.000 A 
ATOM     18  C   UNL     1       3.613   7.070  17.212  0.00  0.00    +0.000 C 
ATOM     19  O   UNL     1       3.311   8.176  16.753  0.00  0.00    +0.000 OA
ENDROOT
BRANCH   1  21
ATOM     20  N   UNL     1      -0.749   9.561  23.013  0.00  0.00    +0.000 NA
ATOM     21  C   UNL     1      -0.044   8.921  22.347  0.00  0.00    +0.000 C 
ENDBRANCH   1  21
BRANCH   7  22
ATOM     22  C   UNL     1       3.892   3.139  20.001  0.00  0.00    +0.000 C 
BRANCH  22  23
ATOM     23  C   UNL     1       3.289   1.894  19.301  0.00  0.00    +0.000 C 
BRANCH  23  24
ATOM     24  O   UNL     1       4.363   1.108  18.745  0.00  0.00    +0.000 OA
ATOM     25  H   UNL     1       5.079   1.129  19.420  0.00  0.00    +0.000 HD
ENDBRANCH  23  24
BRANCH  23  26
ATOM     26  C   UNL     1       2.286   2.182  18.171  0.00  0.00    +0.000 C 
BRANCH  26  27
ATOM     27  O   UNL     1       0.972   1.787  18.582  0.00  0.00    +0.000 OA
ATOM     28  H   UNL     1       0.385   1.869  17.809  0.00  0.00    +0.000 HD
ENDBRANCH  26  27
ENDBRANCH  23  26
ENDBRANCH  22  23
ENDBRANCH   7  22
TORSDOF 6
ENDMDL
MODEL 4
REMARK VINA RESULT:      -6.3      1.688      4.665
REMARK  Name = 
REMARK  6 active torsions:
REMARK  status: ('A' for Active; 'I' for Inactive)
REMARK    1  A    between atoms: C_2  and  C_3
REMARK    2  A    between atoms: N_9  and  C_10
REMARK    3  A    between atoms: C_10  and  C_11
REMARK    4  A    between atoms: C_11  and  O_12
REMARK    5  A    between atoms: C_11  and  C_13
REMARK    6  A    between atoms: C_13  and  O_14
REMARK                            x       y       z     vdW  Elec       q    Type
REMARK                         _______ _______ _______ _____ _____    ______ ____
ROOT
ATOM      1  C   UNL     1       6.571   5.073  14.778  0.00  0.00    +0.000 A 
ATOM      2  C   UNL     1       6.807   4.019  15.644  0.00  0.00    +0.000 A 
ATOM      3  C   UNL     1       5.728   3.470  16.303  0.00  0.00    +0.000 A 
ATOM      4  C   UNL     1       4.751   4.360  16.716  0.00  0.00    +0.000 A 
ATOM      5  C   UNL     1       3.851   4.045  17.790  0.00  0.00    +0.000 A 
ATOM      6  C   UNL     1       3.330   4.987  18.602  0.00  0.00    +0.000 A 
ATOM      7  N   UNL     1       3.581   6.345  18.342  0.00  0.00    +0.000 N 
ATOM      8  C   UNL     1       4.164   6.732  17.088  0.00  0.00    +0.000 A 
ATOM      9  O   UNL     1       4.344   7.900  16.762  0.00  0.00    +0.000 OA
ATOM     10  C   UNL     1       4.730   5.636  16.189  0.00  0.00    +0.000 A 
ATOM     11  C   UNL     1       5.446   5.860  15.012  0.00  0.00    +0.000 A 
ATOM     12  C   UNL     1       2.600   4.267  19.675  0.00  0.00    +0.000 A 
ATOM     13  C   UNL     1       1.952   4.593  20.845  0.00  0.00    +0.000 A 
ATOM     14  C   UNL     1       1.447   3.545  21.672  0.00  0.00    +0.000 A 
ATOM     15  C   UNL     1       1.563   2.195  21.313  0.00  0.00    +0.000 A 
ATOM     16  C   UNL     1       2.192   1.842  20.156  0.00  0.00    +0.000 A 
ATOM     17  C   UNL     1       2.691   2.887  19.386  0.00  0.00    +0.000 A 
ATOM     18  C   UNL     1       3.444   2.715  18.198  0.00  0.00    +0.000 C 
ATOM     19  O   UNL     1       3.692   1.641  17.640  0.00  0.00    +0.000 OA
ENDROOT
BRANCH   1  21
ATOM     20  N   UNL     1       8.195   5.500  12.797  0.00  0.00    +0.000 NA
ATOM     21  C   UNL     1       7.466   5.261  13.670  0.00  0.00    +0.000 C 
ENDBRANCH   1  21
BRANCH   7  22
ATOM     22  C   UNL     1       3.219   7.408  19.308  0.00  0.00    +0.000 C 
BRANCH  22  23
ATOM     23  C   UNL     1       1.818   8.037  19.095  0.00  0.00    +0.000 C 
BRANCH  23  24
ATOM     24  O   UNL     1       1.917   9.057  18.081  0.00  0.00    +0.000 OA
ATOM     25  H   UNL     1       2.880   9.210  17.955  0.00  0.00    +0.000 HD
ENDBRANCH  23  24
BRANCH  23  26
ATOM     26  C   UNL     1       1.176   8.672  20.339  0.00  0.00    +0.000 C 
BRANCH  26  27
ATOM     27  O   UNL     1       1.785   8.140  21.521  0.00  0.00    +0.000 OA
ATOM     28  H   UNL     1       2.732   8.366  21.491  0.00  0.00    +0.000 HD
ENDBRANCH  26  27
ENDBRANCH  23  26
ENDBRANCH  22  23
ENDBRANCH   7  22
TORSDOF 6
ENDMDL
MODEL 5
REMARK VINA RESULT:      -6.2      5.199      9.297
REMARK  Name = 
REMARK  6 active torsions:
REMARK  status: ('A' for Active; 'I' for Inactive)
REMARK    1  A    between atoms: C_2  and  C_3
REMARK    2  A    between atoms: N_9  and  C_10
REMARK    3  A    between atoms: C_10  and  C_11
REMARK    4  A    between atoms: C_11  and  O_12
REMARK    5  A    between atoms: C_11  and  C_13
REMARK    6  A    between atoms: C_13  and  O_14
REMARK                            x       y       z     vdW  Elec       q    Type
REMARK                         _______ _______ _______ _____ _____    ______ ____
ROOT
ATOM      1  C   UNL     1      -1.729  14.264  23.381  0.00  0.00    +0.000 A 
ATOM      2  C   UNL     1      -2.506  14.818  22.378  0.00  0.00    +0.000 A 
ATOM      3  C   UNL     1      -3.108  13.963  21.480  0.00  0.00    +0.000 A 
ATOM      4  C   UNL     1      -2.366  12.857  21.102  0.00  0.00    +0.000 A 
ATOM      5  C   UNL     1      -2.622  12.165  19.870  0.00  0.00    +0.000 A 
ATOM      6  C   UNL     1      -1.654  11.528  19.180  0.00  0.00    +0.000 A 
ATOM      7  N   UNL     1      -0.360  11.438  19.720  0.00  0.00    +0.000 N 
ATOM      8  C   UNL     1      -0.137  11.789  21.094  0.00  0.00    +0.000 A 
ATOM      9  O   UNL     1       0.947  11.666  21.653  0.00  0.00    +0.000 OA
ATOM     10  C   UNL     1      -1.262  12.495  21.847  0.00  0.00    +0.000 A 
ATOM     11  C   UNL     1      -1.153  13.019  23.136  0.00  0.00    +0.000 A 
ATOM     12  C   UNL     1      -2.261  11.093  17.899  0.00  0.00    +0.000 A 
ATOM     13  C   UNL     1      -1.832  10.509  16.727  0.00  0.00    +0.000 A 
ATOM     14  C   UNL     1      -2.761  10.340  15.657  0.00  0.00    +0.000 A 
ATOM     15  C   UNL     1      -4.104  10.722  15.773  0.00  0.00    +0.000 A 
ATOM     16  C   UNL     1      -4.560  11.294  16.923  0.00  0.00    +0.000 A 
ATOM     17  C   UNL     1      -3.624  11.464  17.937  0.00  0.00    +0.000 A 
ATOM     18  C   UNL     1      -3.889  12.113  19.169  0.00  0.00    +0.000 C 
ATOM     19  O   UNL     1      -4.984  12.540  19.548  0.00  0.00    +0.000 OA
ENDROOT
BRANCH   1  21
ATOM     20  N   UNL     1      -1.450  15.487  25.655  0.00  0.00    +0.000 NA
ATOM     21  C   UNL     1      -1.603  14.977  24.622  0.00  0.00    +0.000 C 
ENDBRANCH   1  21
BRANCH   7  22
ATOM     22  C   UNL     1       0.789  10.945  18.926  0.00  0.00    +0.000 C 
BRANCH  22  23
ATOM     23  C   UNL     1       0.938   9.402  18.878  0.00  0.00    +0.000 C 
BRANCH  23  24
ATOM     24  O   UNL     1       1.313   8.932  20.189  0.00  0.00    +0.000 OA
ATOM     25  H   UNL     1       0.668   8.221  20.407  0.00  0.00    +0.000 HD
ENDBRANCH  23  24
BRANCH  23  26
ATOM     26  C   UNL     1       1.967   8.861  17.873  0.00  0.00    +0.000 C 
BRANCH  26  27
ATOM     27  O   UNL     1       2.501   7.620  18.352  0.00  0.00    +0.000 OA
ATOM     28  H   UNL     1       2.190   6.916  17.755  0.00  0.00    +0.000 HD
ENDBRANCH  26  27
ENDBRANCH  23  26
ENDBRANCH  22  23
ENDBRANCH   7  22
TORSDOF 6
ENDMDL
MODEL 6
REMARK VINA RESULT:      -6.1      6.221     10.479
REMARK  Name = 
REMARK  6 active torsions:
REMARK  status: ('A' for Active; 'I' for Inactive)
REMARK    1  A    between atoms: C_2  and  C_3
REMARK    2  A    between atoms: N_9  and  C_10
REMARK    3  A    between atoms: C_10  and  C_11
REMARK    4  A    between atoms: C_11  and  O_12
REMARK    5  A    between atoms: C_11  and  C_13
REMARK    6  A    between atoms: C_13  and  O_14
REMARK                            x       y       z     vdW  Elec       q    Type
REMARK                         _______ _______ _______ _____ _____    ______ ____
ROOT
ATOM      1  C   UNL     1      -4.223  15.366  23.215  0.00  0.00    +0.000 A 
ATOM      2  C   UNL     1      -4.502  15.662  21.891  0.00  0.00    +0.000 A 
ATOM      3  C   UNL     1      -4.685  14.610  21.020  0.00  0.00    +0.000 A 
ATOM      4  C   UNL     1      -3.868  13.509  21.214  0.00  0.00    +0.000 A 
ATOM      5  C   UNL     1      -3.595  12.578  20.155  0.00  0.00    +0.000 A 
ATOM      6  C   UNL     1      -2.436  11.893  20.071  0.00  0.00    +0.000 A 
ATOM      7  N   UNL     1      -1.488  12.002  21.103  0.00  0.00    +0.000 N 
ATOM      8  C   UNL     1      -1.856  12.623  22.344  0.00  0.00    +0.000 A 
ATOM      9  O   UNL     1      -1.107  12.688  23.312  0.00  0.00    +0.000 OA
ATOM     10  C   UNL     1      -3.183  13.376  22.405  0.00  0.00    +0.000 A 
ATOM     11  C   UNL     1      -3.616  14.142  23.488  0.00  0.00    +0.000 A 
ATOM     12  C   UNL     1      -2.458  11.179  18.771  0.00  0.00    +0.000 A 
ATOM     13  C   UNL     1      -1.586  10.416  18.027  0.00  0.00    +0.000 A 
ATOM     14  C   UNL     1      -1.984   9.979  16.728  0.00  0.00    +0.000 A 
ATOM     15  C   UNL     1      -3.247  10.278  16.199  0.00  0.00    +0.000 A 
ATOM     16  C   UNL     1      -4.134  11.024  16.916  0.00  0.00    +0.000 A 
ATOM     17  C   UNL     1      -3.706  11.451  18.168  0.00  0.00    +0.000 A 
ATOM     18  C   UNL     1      -4.453  12.301  19.021  0.00  0.00    +0.000 C 
ATOM     19  O   UNL     1      -5.600  12.712  18.820  0.00  0.00    +0.000 OA
ENDROOT
BRANCH   1  21
ATOM     20  N   UNL     1      -4.887  17.027  25.098  0.00  0.00    +0.000 NA
ATOM     21  C   UNL     1      -4.618  16.309  24.224  0.00  0.00    +0.000 C 
ENDBRANCH   1  21
BRANCH   7  22
ATOM     22  C   UNL     1      -0.120  11.451  20.971  0.00  0.00    +0.000 C 
BRANCH  22  23
ATOM     23  C   UNL     1       0.077  10.036  21.574  0.00  0.00    +0.000 C 
BRANCH  23  24
ATOM     24  O   UNL     1       0.593  10.170  22.914  0.00  0.00    +0.000 OA
ATOM     25  H   UNL     1       1.144   9.369  23.065  0.00  0.00    +0.000 HD
ENDBRANCH  23  24
BRANCH  23  26
ATOM     26  C   UNL     1       1.023   9.105  20.798  0.00  0.00    +0.000 C 
BRANCH  26  27
ATOM     27  O   UNL     1       1.642   8.184  21.705  0.00  0.00    +0.000 OA
ATOM     28  H   UNL     1       2.577   8.097  21.443  0.00  0.00    +0.000 HD
ENDBRANCH  26  27
ENDBRANCH  23  26
ENDBRANCH  22  23
ENDBRANCH   7  22
TORSDOF 6
ENDMDL
MODEL 7
REMARK VINA RESULT:      -6.0      7.041      9.047
REMARK  Name = 
REMARK  6 active torsions:
REMARK  status: ('A' for Active; 'I' for Inactive)
REMARK    1  A    between atoms: C_2  and  C_3
REMARK    2  A    between atoms: N_9  and  C_10
REMARK    3  A    between atoms: C_10  and  C_11
REMARK    4  A    between atoms: C_11  and  O_12
REMARK    5  A    between atoms: C_11  and  C_13
REMARK    6  A    between atoms: C_13  and  O_14
REMARK                            x       y       z     vdW  Elec       q    Type
REMARK                         _______ _______ _______ _____ _____    ______ ____
ROOT
ATOM      1  C   UNL     1       1.121  13.203  20.501  0.00  0.00    +0.000 A 
ATOM      2  C   UNL     1       0.238  14.245  20.278  0.00  0.00    +0.000 A 
ATOM      3  C   UNL     1      -1.102  14.015  20.503  0.00  0.00    +0.000 A 
ATOM      4  C   UNL     1      -1.573  12.763  20.148  0.00  0.00    +0.000 A 
ATOM      5  C   UNL     1      -2.962  12.532  19.867  0.00  0.00    +0.000 A 
ATOM      6  C   UNL     1      -3.381  11.593  18.995  0.00  0.00    +0.000 A 
ATOM      7  N   UNL     1      -2.446  10.727  18.404  0.00  0.00    +0.000 N 
ATOM      8  C   UNL     1      -1.106  10.671  18.916  0.00  0.00    +0.000 A 
ATOM      9  O   UNL     1      -0.258   9.889  18.501  0.00  0.00    +0.000 OA
ATOM     10  C   UNL     1      -0.673  11.743  19.914  0.00  0.00    +0.000 A 
ATOM     11  C   UNL     1       0.627  11.905  20.396  0.00  0.00    +0.000 A 
ATOM     12  C   UNL     1      -4.846  11.773  18.847  0.00  0.00    +0.000 A 
ATOM     13  C   UNL     1      -5.852  11.249  18.066  0.00  0.00    +0.000 A 
ATOM     14  C   UNL     1      -7.168  11.790  18.177  0.00  0.00    +0.000 A 
ATOM     15  C   UNL     1      -7.475  12.817  19.080  0.00  0.00    +0.000 A 
ATOM     16  C   UNL     1      -6.502  13.350  19.873  0.00  0.00    +0.000 A 
ATOM     17  C   UNL     1      -5.227  12.815  19.723  0.00  0.00    +0.000 A 
ATOM     18  C   UNL     1      -4.076  13.293  20.397  0.00  0.00    +0.000 C 
ATOM     19  O   UNL     1      -4.049  14.179  21.257  0.00  0.00    +0.000 OA
ENDROOT
BRANCH   1  21
ATOM     20  N   UNL     1       3.533  13.846  21.220  0.00  0.00    +0.000 NA
ATOM     21  C   UNL     1       2.472  13.520  20.874  0.00  0.00    +0.000 C 
ENDBRANCH   1  21
BRANCH   7  22
ATOM     22  C   UNL     1      -2.810   9.824  17.287  0.00  0.00    +0.000 C 
BRANCH  22  23
ATOM     23  C   UNL     1      -2.404  10.329  15.878  0.00  0.00    +0.000 C 
BRANCH  23  24
ATOM     24  O   UNL     1      -2.238  11.760  15.928  0.00  0.00    +0.000 OA
ATOM     25  H   UNL     1      -2.601  12.096  15.077  0.00  0.00    +0.000 HD
ENDBRANCH  23  24
BRANCH  23  26
ATOM     26  C   UNL     1      -3.393  10.010  14.744  0.00  0.00    +0.000 C 
BRANCH  26  27
ATOM     27  O   UNL     1      -2.702  10.009  13.490  0.00  0.00    +0.000 OA
ATOM     28  H   UNL     1      -1.973   9.366  13.555  0.00  0.00    +0.000 HD
ENDBRANCH  26  27
ENDBRANCH  23  26
ENDBRANCH  22  23
ENDBRANCH   7  22
TORSDOF 6
ENDMDL
MODEL 8
REMARK VINA RESULT:      -6.0      8.013     11.036
REMARK  Name = 
REMARK  6 active torsions:
REMARK  status: ('A' for Active; 'I' for Inactive)
REMARK    1  A    between atoms: C_2  and  C_3
REMARK    2  A    between atoms: N_9  and  C_10
REMARK    3  A    between atoms: C_10  and  C_11
REMARK    4  A    between atoms: C_11  and  O_12
REMARK    5  A    between atoms: C_11  and  C_13
REMARK    6  A    between atoms: C_13  and  O_14
REMARK                            x       y       z     vdW  Elec       q    Type
REMARK                         _______ _______ _______ _____ _____    ______ ____
ROOT
ATOM      1  C   UNL     1      -2.896  14.057  23.762  0.00  0.00    +0.000 A 
ATOM      2  C   UNL     1      -2.176  12.915  23.456  0.00  0.00    +0.000 A 
ATOM      3  C   UNL     1      -1.879  12.674  22.133  0.00  0.00    +0.000 A 
ATOM      4  C   UNL     1      -2.862  13.008  21.217  0.00  0.00    +0.000 A 
ATOM      5  C   UNL     1      -2.918  12.402  19.916  0.00  0.00    +0.000 A 
ATOM      6  C   UNL     1      -4.076  12.211  19.252  0.00  0.00    +0.000 A 
ATOM      7  N   UNL     1      -5.275  12.710  19.789  0.00  0.00    +0.000 N 
ATOM      8  C   UNL     1      -5.233  13.630  20.890  0.00  0.00    +0.000 A 
ATOM      9  O   UNL     1      -6.231  14.162  21.361  0.00  0.00    +0.000 OA
ATOM     10  C   UNL     1      -3.900  13.830  21.608  0.00  0.00    +0.000 A 
ATOM     11  C   UNL     1      -3.726  14.580  22.772  0.00  0.00    +0.000 A 
ATOM     12  C   UNL     1      -3.747  11.415  18.045  0.00  0.00    +0.000 A 
ATOM     13  C   UNL     1      -4.439  10.799  17.025  0.00  0.00    +0.000 A 
ATOM     14  C   UNL     1      -3.718  10.018  16.072  0.00  0.00    +0.000 A 
ATOM     15  C   UNL     1      -2.324   9.886  16.124  0.00  0.00    +0.000 A 
ATOM     16  C   UNL     1      -1.611  10.491  17.116  0.00  0.00    +0.000 A 
ATOM     17  C   UNL     1      -2.347  11.225  18.040  0.00  0.00    +0.000 A 
ATOM     18  C   UNL     1      -1.794  11.854  19.183  0.00  0.00    +0.000 C 
ATOM     19  O   UNL     1      -0.596  11.912  19.477  0.00  0.00    +0.000 OA
ENDROOT
BRANCH   1  21
ATOM     20  N   UNL     1      -2.500  15.199  26.060  0.00  0.00    +0.000 NA
ATOM     21  C   UNL     1      -2.710  14.658  25.053  0.00  0.00    +0.000 C 
ENDBRANCH   1  21
BRANCH   7  22
ATOM     22  C   UNL     1      -6.596  12.352  19.222  0.00  0.00    +0.000 C 
BRANCH  22  23
ATOM     23  C   UNL     1      -7.294  11.145  19.899  0.00  0.00    +0.000 C 
BRANCH  23  24
ATOM     24  O   UNL     1      -6.913  11.108  21.289  0.00  0.00    +0.000 OA
ATOM     25  H   UNL     1      -7.440  10.378  21.686  0.00  0.00    +0.000 HD
ENDBRANCH  23  24
BRANCH  23  26
ATOM     26  C   UNL     1      -6.984   9.767  19.290  0.00  0.00    +0.000 C 
BRANCH  26  27
ATOM     27  O   UNL     1      -7.917   8.800  19.788  0.00  0.00    +0.000 OA
ATOM     28  H   UNL     1      -7.404   8.082  20.200  0.00  0.00    +0.000 HD
ENDBRANCH  26  27
ENDBRANCH  23  26
ENDBRANCH  22  23
ENDBRANCH   7  22
TORSDOF 6
ENDMDL
MODEL 9
REMARK VINA RESULT:      -6.0      3.414      6.733
REMARK  Name = 
REMARK  6 active torsions:
REMARK  status: ('A' for Active; 'I' for Inactive)
REMARK    1  A    between atoms: C_2  and  C_3
REMARK    2  A    between atoms: N_9  and  C_10
REMARK    3  A    between atoms: C_10  and  C_11
REMARK    4  A    between atoms: C_11  and  O_12
REMARK    5  A    between atoms: C_11  and  C_13
REMARK    6  A    between atoms: C_13  and  O_14
REMARK                            x       y       z     vdW  Elec       q    Type
REMARK                         _______ _______ _______ _____ _____    ______ ____
ROOT
ATOM      1  C   UNL     1       2.744   7.098  18.495  0.00  0.00    +0.000 A 
ATOM      2  C   UNL     1       2.627   7.099  19.874  0.00  0.00    +0.000 A 
ATOM      3  C   UNL     1       1.558   7.767  20.431  0.00  0.00    +0.000 A 
ATOM      4  C   UNL     1       1.190   8.950  19.812  0.00  0.00    +0.000 A 
ATOM      5  C   UNL     1       0.460   9.970  20.511  0.00  0.00    +0.000 A 
ATOM      6  C   UNL     1       0.585  11.281  20.221  0.00  0.00    +0.000 A 
ATOM      7  N   UNL     1       1.376  11.679  19.130  0.00  0.00    +0.000 N 
ATOM      8  C   UNL     1       1.831  10.698  18.186  0.00  0.00    +0.000 A 
ATOM      9  O   UNL     1       2.461  10.979  17.173  0.00  0.00    +0.000 OA
ATOM     10  C   UNL     1       1.658   9.223  18.543  0.00  0.00    +0.000 A 
ATOM     11  C   UNL     1       2.167   8.157  17.798  0.00  0.00    +0.000 A 
ATOM     12  C   UNL     1      -0.182  12.020  21.254  0.00  0.00    +0.000 A 
ATOM     13  C   UNL     1      -0.382  13.335  21.611  0.00  0.00    +0.000 A 
ATOM     14  C   UNL     1      -1.149  13.626  22.779  0.00  0.00    +0.000 A 
ATOM     15  C   UNL     1      -1.730  12.615  23.557  0.00  0.00    +0.000 A 
ATOM     16  C   UNL     1      -1.556  11.304  23.223  0.00  0.00    +0.000 A 
ATOM     17  C   UNL     1      -0.786  11.056  22.093  0.00  0.00    +0.000 A 
ATOM     18  C   UNL     1      -0.427   9.762  21.638  0.00  0.00    +0.000 C 
ATOM     19  O   UNL     1      -0.804   8.689  22.119  0.00  0.00    +0.000 OA
ENDROOT
BRANCH   1  21
ATOM     20  N   UNL     1       3.868   5.045  17.369  0.00  0.00    +0.000 NA
ATOM     21  C   UNL     1       3.406   5.989  17.866  0.00  0.00    +0.000 C 
ENDBRANCH   1  21
BRANCH   7  22
ATOM     22  C   UNL     1       1.724  13.099  18.891  0.00  0.00    +0.000 C 
BRANCH  22  23
ATOM     23  C   UNL     1       3.106  13.536  19.441  0.00  0.00    +0.000 C 
BRANCH  23  24
ATOM     24  O   UNL     1       2.989  13.768  20.860  0.00  0.00    +0.000 OA
ATOM     25  H   UNL     1       3.880  13.581  21.231  0.00  0.00    +0.000 HD
ENDBRANCH  23  24
BRANCH  23  26
ATOM     26  C   UNL     1       3.708  14.801  18.807  0.00  0.00    +0.000 C 
BRANCH  26  27
ATOM     27  O   UNL     1       3.764  14.646  17.385  0.00  0.00    +0.000 OA
ATOM     28  H   UNL     1       4.584  15.071  17.074  0.00  0.00    +0.000 HD
ENDBRANCH  26  27
ENDBRANCH  23  26
ENDBRANCH  22  23
ENDBRANCH   7  22
TORSDOF 6
ENDMDL
