MODEL 1
REMARK VINA RESULT:      -6.5      0.000      0.000
REMARK  Name = 
REMARK  4 active torsions:
REMARK  status: ('A' for Active; 'I' for Inactive)
REMARK    1  A    between atoms: C_1  and  C_2
REMARK    2  A    between atoms: C_2  and  C_3
REMARK    3  A    between atoms: C_13  and  N_14
REMARK    4  A    between atoms: N_17  and  C_18
REMARK                            x       y       z     vdW  Elec       q    Type
REMARK                         _______ _______ _______ _____ _____    ______ ____
ROOT
ATOM      1  C   UNL     1       0.858   9.668  21.551  0.00  0.00    +0.000 C 
ATOM      2  C   UNL     1      -0.201  10.552  22.170  0.00  0.00    +0.000 C 
ATOM      3  C   UNL     1      -0.776  10.019  23.464  0.00  0.00    +0.000 C 
ATOM      4  C   UNL     1      -0.642  11.698  21.580  0.00  0.00    +0.000 C 
ATOM      5  C   UNL     1      -1.744  12.493  22.184  0.00  0.00    +0.000 A 
ATOM      6  C   UNL     1      -1.549  13.131  23.420  0.00  0.00    +0.000 A 
ATOM      7  C   UNL     1      -2.569  13.887  23.995  0.00  0.00    +0.000 A 
ATOM      8  C   UNL     1      -3.783  14.021  23.328  0.00  0.00    +0.000 A 
ATOM      9 CL   UNL     1      -5.050  14.940  24.044  0.00  0.00    +0.000 Cl
ATOM     10  C   UNL     1      -3.976  13.428  22.080  0.00  0.00    +0.000 A 
ATOM     11  C   UNL     1      -2.949  12.683  21.480  0.00  0.00    +0.000 A 
ATOM     12  C   UNL     1      -3.209  12.089  20.154  0.00  0.00    +0.000 C 
ATOM     13  C   UNL     1      -2.359  11.914  19.118  0.00  0.00    +0.000 C 
ATOM     14  C   UNL     1      -0.928  12.359  19.163  0.00  0.00    +0.000 A 
ATOM     15  C   UNL     1      -0.385  12.990  18.025  0.00  0.00    +0.000 A 
ATOM     16  C   UNL     1       0.944  13.415  17.985  0.00  0.00    +0.000 A 
ATOM     17  C   UNL     1       1.755  13.242  19.098  0.00  0.00    +0.000 A 
ATOM     18  C   UNL     1       1.237  12.650  20.248  0.00  0.00    +0.000 A 
ATOM     19  C   UNL     1      -0.094  12.190  20.288  0.00  0.00    +0.000 A 
ENDROOT
BRANCH  13  20
ATOM     20  N   UNL     1      -2.823  11.325  17.927  0.00  0.00    +0.000 N 
ATOM     21  C   UNL     1      -2.283  10.024  17.473  0.00  0.00    +0.000 C 
ATOM     22  C   UNL     1      -2.322   9.929  15.932  0.00  0.00    +0.000 C 
ATOM     23  N   UNL     1      -3.683  10.142  15.389  0.00  0.00    +0.000 NA
ATOM     24  C   UNL     1      -3.672  10.077  13.931  0.00  0.00    +0.000 C 
ATOM     25  C   UNL     1      -4.183  11.457  15.853  0.00  0.00    +0.000 C 
ATOM     26  C   UNL     1      -4.181  11.578  17.393  0.00  0.00    +0.000 C 
ENDBRANCH  13  20
TORSDOF 1
ENDMDL
MODEL 2
REMARK VINA RESULT:      -6.3      2.826      6.390
REMARK  Name = 
REMARK  4 active torsions:
REMARK  status: ('A' for Active; 'I' for Inactive)
REMARK    1  A    between atoms: C_1  and  C_2
REMARK    2  A    between atoms: C_2  and  C_3
REMARK    3  A    between atoms: C_13  and  N_14
REMARK    4  A    between atoms: N_17  and  C_18
REMARK                            x       y       z     vdW  Elec       q    Type
REMARK                         _______ _______ _______ _____ _____    ______ ____
ROOT
ATOM      1  C   UNL     1       2.352  12.690  20.298  0.00  0.00    +0.000 C 
ATOM      2  C   UNL     1       1.202  12.367  19.371  0.00  0.00    +0.000 C 
ATOM      3  C   UNL     1       1.323  12.986  17.995  0.00  0.00    +0.000 C 
ATOM      4  C   UNL     1       0.122  11.635  19.761  0.00  0.00    +0.000 C 
ATOM      5  C   UNL     1      -1.024  11.413  18.840  0.00  0.00    +0.000 A 
ATOM      6  C   UNL     1      -0.847  10.646  17.677  0.00  0.00    +0.000 A 
ATOM      7  C   UNL     1      -1.913  10.422  16.808  0.00  0.00    +0.000 A 
ATOM      8  C   UNL     1      -3.165  10.950  17.108  0.00  0.00    +0.000 A 
ATOM      9 CL   UNL     1      -4.480  10.688  16.028  0.00  0.00    +0.000 Cl
ATOM     10  C   UNL     1      -3.366  11.678  18.281  0.00  0.00    +0.000 A 
ATOM     11  C   UNL     1      -2.305  11.892  19.176  0.00  0.00    +0.000 A 
ATOM     12  C   UNL     1      -2.582  12.661  20.405  0.00  0.00    +0.000 C 
ATOM     13  C   UNL     1      -2.061  12.504  21.642  0.00  0.00    +0.000 C 
ATOM     14  C   UNL     1      -1.074  11.425  21.972  0.00  0.00    +0.000 A 
ATOM     15  C   UNL     1      -1.228  10.722  23.184  0.00  0.00    +0.000 A 
ATOM     16  C   UNL     1      -0.337   9.717  23.569  0.00  0.00    +0.000 A 
ATOM     17  C   UNL     1       0.715   9.374  22.732  0.00  0.00    +0.000 A 
ATOM     18  C   UNL     1       0.874  10.030  21.513  0.00  0.00    +0.000 A 
ATOM     19  C   UNL     1      -0.001  11.066  21.129  0.00  0.00    +0.000 A 
ENDROOT
BRANCH  13  20
ATOM     20  N   UNL     1      -2.473  13.352  22.685  0.00  0.00    +0.000 N 
ATOM     21  C   UNL     1      -3.790  13.160  23.334  0.00  0.00    +0.000 C 
ATOM     22  C   UNL     1      -4.343  14.506  23.849  0.00  0.00    +0.000 C 
ATOM     23  N   UNL     1      -3.406  15.183  24.774  0.00  0.00    +0.000 NA
ATOM     24  C   UNL     1      -3.949  16.465  25.212  0.00  0.00    +0.000 C 
ATOM     25  C   UNL     1      -2.107  15.370  24.086  0.00  0.00    +0.000 C 
ATOM     26  C   UNL     1      -1.512  14.038  23.579  0.00  0.00    +0.000 C 
ENDBRANCH  13  20
TORSDOF 1
ENDMDL
MODEL 3
REMARK VINA RESULT:      -6.3      2.968      5.529
REMARK  Name = 
REMARK  4 active torsions:
REMARK  status: ('A' for Active; 'I' for Inactive)
REMARK    1  A    between atoms: C_1  and  C_2
REMARK    2  A    between atoms: C_2  and  C_3
REMARK    3  A    between atoms: C_13  and  N_14
REMARK    4  A    between atoms: N_17  and  C_18
REMARK                            x       y       z     vdW  Elec       q    Type
REMARK                         _______ _______ _______ _____ _____    ______ ____
ROOT
ATOM      1  C   UNL     1      -0.628   8.965  21.067  0.00  0.00    +0.000 C 
ATOM      2  C   UNL     1       0.181  10.152  20.596  0.00  0.00    +0.000 C 
ATOM      3  C   UNL     1       1.524  10.298  21.278  0.00  0.00    +0.000 C 
ATOM      4  C   UNL     1      -0.286  11.048  19.682  0.00  0.00    +0.000 C 
ATOM      5  C   UNL     1       0.512  12.247  19.310  0.00  0.00    +0.000 A 
ATOM      6  C   UNL     1       1.729  12.092  18.628  0.00  0.00    +0.000 A 
ATOM      7  C   UNL     1       2.484  13.205  18.265  0.00  0.00    +0.000 A 
ATOM      8  C   UNL     1       2.016  14.480  18.569  0.00  0.00    +0.000 A 
ATOM      9 CL   UNL     1       2.954  15.856  18.136  0.00  0.00    +0.000 Cl
ATOM     10  C   UNL     1       0.788  14.651  19.209  0.00  0.00    +0.000 A 
ATOM     11  C   UNL     1       0.007  13.538  19.559  0.00  0.00    +0.000 A 
ATOM     12  C   UNL     1      -1.287  13.783  20.225  0.00  0.00    +0.000 C 
ATOM     13  C   UNL     1      -2.447  13.099  20.109  0.00  0.00    +0.000 C 
ATOM     14  C   UNL     1      -2.602  11.921  19.195  0.00  0.00    +0.000 A 
ATOM     15  C   UNL     1      -3.781  11.815  18.430  0.00  0.00    +0.000 A 
ATOM     16  C   UNL     1      -4.005  10.737  17.571  0.00  0.00    +0.000 A 
ATOM     17  C   UNL     1      -3.037   9.752  17.437  0.00  0.00    +0.000 A 
ATOM     18  C   UNL     1      -1.848   9.847  18.156  0.00  0.00    +0.000 A 
ATOM     19  C   UNL     1      -1.624  10.914  19.048  0.00  0.00    +0.000 A 
ENDROOT
BRANCH  13  20
ATOM     20  N   UNL     1      -3.577  13.513  20.837  0.00  0.00    +0.000 N 
ATOM     21  C   UNL     1      -4.041  12.737  22.009  0.00  0.00    +0.000 C 
ATOM     22  C   UNL     1      -5.569  12.874  22.180  0.00  0.00    +0.000 C 
ATOM     23  N   UNL     1      -5.998  14.286  22.294  0.00  0.00    +0.000 NA
ATOM     24  C   UNL     1      -7.449  14.376  22.420  0.00  0.00    +0.000 C 
ATOM     25  C   UNL     1      -5.528  15.027  21.099  0.00  0.00    +0.000 C 
ATOM     26  C   UNL     1      -3.998  14.931  20.911  0.00  0.00    +0.000 C 
ENDBRANCH  13  20
TORSDOF 1
ENDMDL
MODEL 4
REMARK VINA RESULT:      -6.3      2.821      6.496
REMARK  Name = 
REMARK  4 active torsions:
REMARK  status: ('A' for Active; 'I' for Inactive)
REMARK    1  A    between atoms: C_1  and  C_2
REMARK    2  A    between atoms: C_2  and  C_3
REMARK    3  A    between atoms: C_13  and  N_14
REMARK    4  A    between atoms: N_17  and  C_18
REMARK                            x       y       z     vdW  Elec       q    Type
REMARK                         _______ _______ _______ _____ _____    ______ ____
ROOT
ATOM      1  C   UNL     1       1.190  12.367  19.128  0.00  0.00    +0.000 C 
ATOM      2  C   UNL     1      -0.263  12.300  18.714  0.00  0.00    +0.000 C 
ATOM      3  C   UNL     1      -0.554  12.930  17.369  0.00  0.00    +0.000 C 
ATOM      4  C   UNL     1      -1.234  11.773  19.511  0.00  0.00    +0.000 C 
ATOM      5  C   UNL     1      -2.662  11.803  19.097  0.00  0.00    +0.000 A 
ATOM      6  C   UNL     1      -3.083  11.056  17.985  0.00  0.00    +0.000 A 
ATOM      7  C   UNL     1      -4.419  11.067  17.589  0.00  0.00    +0.000 A 
ATOM      8  C   UNL     1      -5.343  11.813  18.315  0.00  0.00    +0.000 A 
ATOM      9 CL   UNL     1      -6.991  11.842  17.819  0.00  0.00    +0.000 Cl
ATOM     10  C   UNL     1      -4.947  12.527  19.446  0.00  0.00    +0.000 A 
ATOM     11  C   UNL     1      -3.608  12.505  19.869  0.00  0.00    +0.000 A 
ATOM     12  C   UNL     1      -3.252  13.271  21.079  0.00  0.00    +0.000 C 
ATOM     13  C   UNL     1      -2.344  12.977  22.036  0.00  0.00    +0.000 C 
ATOM     14  C   UNL     1      -1.528  11.720  22.016  0.00  0.00    +0.000 A 
ATOM     15  C   UNL     1      -1.344  11.018  23.225  0.00  0.00    +0.000 A 
ATOM     16  C   UNL     1      -0.581   9.851  23.288  0.00  0.00    +0.000 A 
ATOM     17  C   UNL     1      -0.005   9.342  22.132  0.00  0.00    +0.000 A 
ATOM     18  C   UNL     1      -0.196   9.996  20.917  0.00  0.00    +0.000 A 
ATOM     19  C   UNL     1      -0.939  11.192  20.847  0.00  0.00    +0.000 A 
ENDROOT
BRANCH  13  20
ATOM     20  N   UNL     1      -2.167  13.853  23.122  0.00  0.00    +0.000 N 
ATOM     21  C   UNL     1      -3.118  13.846  24.257  0.00  0.00    +0.000 C 
ATOM     22  C   UNL     1      -3.209  15.248  24.897  0.00  0.00    +0.000 C 
ATOM     23  N   UNL     1      -1.888  15.753  25.335  0.00  0.00    +0.000 NA
ATOM     24  C   UNL     1      -2.011  17.092  25.904  0.00  0.00    +0.000 C 
ATOM     25  C   UNL     1      -0.969  15.758  24.172  0.00  0.00    +0.000 C 
ATOM     26  C   UNL     1      -0.835  14.365  23.520  0.00  0.00    +0.000 C 
ENDBRANCH  13  20
TORSDOF 1
ENDMDL
MODEL 5
REMARK VINA RESULT:      -6.2      2.842      6.497
REMARK  Name = 
REMARK  4 active torsions:
REMARK  status: ('A' for Active; 'I' for Inactive)
REMARK    1  A    between atoms: C_1  and  C_2
REMARK    2  A    between atoms: C_2  and  C_3
REMARK    3  A    between atoms: C_13  and  N_14
REMARK    4  A    between atoms: N_17  and  C_18
REMARK                            x       y       z     vdW  Elec       q    Type
REMARK                         _______ _______ _______ _____ _____    ______ ____
ROOT
ATOM      1  C   UNL     1       1.128  12.379  19.109  0.00  0.00    +0.000 C 
ATOM      2  C   UNL     1      -0.324  12.290  18.700  0.00  0.00    +0.000 C 
ATOM      3  C   UNL     1      -0.618  12.857  17.328  0.00  0.00    +0.000 C 
ATOM      4  C   UNL     1      -1.294  11.799  19.521  0.00  0.00    +0.000 C 
ATOM      5  C   UNL     1      -2.722  11.808  19.107  0.00  0.00    +0.000 A 
ATOM      6  C   UNL     1      -3.143  11.010  18.031  0.00  0.00    +0.000 A 
ATOM      7  C   UNL     1      -4.479  11.001  17.636  0.00  0.00    +0.000 A 
ATOM      8  C   UNL     1      -5.404  11.778  18.328  0.00  0.00    +0.000 A 
ATOM      9 CL   UNL     1      -7.052  11.781  17.832  0.00  0.00    +0.000 Cl
ATOM     10  C   UNL     1      -5.009  12.544  19.424  0.00  0.00    +0.000 A 
ATOM     11  C   UNL     1      -3.669  12.544  19.846  0.00  0.00    +0.000 A 
ATOM     12  C   UNL     1      -3.314  13.365  21.020  0.00  0.00    +0.000 C 
ATOM     13  C   UNL     1      -2.404  13.116  21.989  0.00  0.00    +0.000 C 
ATOM     14  C   UNL     1      -1.586  11.862  22.025  0.00  0.00    +0.000 A 
ATOM     15  C   UNL     1      -1.401  11.216  23.265  0.00  0.00    +0.000 A 
ATOM     16  C   UNL     1      -0.635  10.054  23.382  0.00  0.00    +0.000 A 
ATOM     17  C   UNL     1      -0.059   9.494  22.250  0.00  0.00    +0.000 A 
ATOM     18  C   UNL     1      -0.252  10.091  21.006  0.00  0.00    +0.000 A 
ATOM     19  C   UNL     1      -0.997  11.281  20.882  0.00  0.00    +0.000 A 
ENDROOT
BRANCH  13  20
ATOM     20  N   UNL     1      -2.228  14.042  23.033  0.00  0.00    +0.000 N 
ATOM     21  C   UNL     1      -1.312  15.194  22.870  0.00  0.00    +0.000 C 
ATOM     22  C   UNL     1      -0.709  15.604  24.231  0.00  0.00    +0.000 C 
ATOM     23  N   UNL     1      -1.750  15.911  25.238  0.00  0.00    +0.000 NA
ATOM     24  C   UNL     1      -1.142  16.262  26.517  0.00  0.00    +0.000 C 
ATOM     25  C   UNL     1      -2.637  14.733  25.383  0.00  0.00    +0.000 C 
ATOM     26  C   UNL     1      -3.277  14.309  24.043  0.00  0.00    +0.000 C 
ENDBRANCH  13  20
TORSDOF 1
ENDMDL
MODEL 6
REMARK VINA RESULT:      -6.2      2.571      4.804
REMARK  Name = 
REMARK  4 active torsions:
REMARK  status: ('A' for Active; 'I' for Inactive)
REMARK    1  A    between atoms: C_1  and  C_2
REMARK    2  A    between atoms: C_2  and  C_3
REMARK    3  A    between atoms: C_13  and  N_14
REMARK    4  A    between atoms: N_17  and  C_18
REMARK                            x       y       z     vdW  Elec       q    Type
REMARK                         _______ _______ _______ _____ _____    ______ ____
ROOT
ATOM      1  C   UNL     1       0.490  14.177  18.221  0.00  0.00    +0.000 C 
ATOM      2  C   UNL     1      -0.308  14.042  19.497  0.00  0.00    +0.000 C 
ATOM      3  C   UNL     1      -0.050  15.136  20.510  0.00  0.00    +0.000 C 
ATOM      4  C   UNL     1      -1.141  12.991  19.739  0.00  0.00    +0.000 C 
ATOM      5  C   UNL     1      -1.843  12.857  21.043  0.00  0.00    +0.000 A 
ATOM      6  C   UNL     1      -2.820  13.795  21.411  0.00  0.00    +0.000 A 
ATOM      7  C   UNL     1      -3.493  13.679  22.625  0.00  0.00    +0.000 A 
ATOM      8  C   UNL     1      -3.202  12.612  23.470  0.00  0.00    +0.000 A 
ATOM      9 CL   UNL     1      -4.020  12.474  24.979  0.00  0.00    +0.000 Cl
ATOM     10  C   UNL     1      -2.264  11.648  23.100  0.00  0.00    +0.000 A 
ATOM     11  C   UNL     1      -1.596  11.742  21.869  0.00  0.00    +0.000 A 
ATOM     12  C   UNL     1      -0.622  10.687  21.527  0.00  0.00    +0.000 C 
ATOM     13  C   UNL     1      -0.337  10.150  20.320  0.00  0.00    +0.000 C 
ATOM     14  C   UNL     1      -1.045  10.562  19.065  0.00  0.00    +0.000 A 
ATOM     15  C   UNL     1      -1.433   9.560  18.153  0.00  0.00    +0.000 A 
ATOM     16  C   UNL     1      -2.079   9.869  16.953  0.00  0.00    +0.000 A 
ATOM     17  C   UNL     1      -2.377  11.190  16.654  0.00  0.00    +0.000 A 
ATOM     18  C   UNL     1      -2.035  12.199  17.552  0.00  0.00    +0.000 A 
ATOM     19  C   UNL     1      -1.356  11.902  18.750  0.00  0.00    +0.000 A 
ENDROOT
BRANCH  13  20
ATOM     20  N   UNL     1       0.633   9.136  20.220  0.00  0.00    +0.000 N 
ATOM     21  C   UNL     1       1.715   9.228  19.213  0.00  0.00    +0.000 C 
ATOM     22  C   UNL     1       2.163   7.820  18.768  0.00  0.00    +0.000 C 
ATOM     23  N   UNL     1       2.591   6.979  19.909  0.00  0.00    +0.000 NA
ATOM     24  C   UNL     1       2.976   5.647  19.453  0.00  0.00    +0.000 C 
ATOM     25  C   UNL     1       1.481   6.899  20.887  0.00  0.00    +0.000 C 
ATOM     26  C   UNL     1       1.022   8.292  21.373  0.00  0.00    +0.000 C 
ENDBRANCH  13  20
TORSDOF 1
ENDMDL
MODEL 7
REMARK VINA RESULT:      -6.1      4.282      6.705
REMARK  Name = 
REMARK  4 active torsions:
REMARK  status: ('A' for Active; 'I' for Inactive)
REMARK    1  A    between atoms: C_1  and  C_2
REMARK    2  A    between atoms: C_2  and  C_3
REMARK    3  A    between atoms: C_13  and  N_14
REMARK    4  A    between atoms: N_17  and  C_18
REMARK                            x       y       z     vdW  Elec       q    Type
REMARK                         _______ _______ _______ _____ _____    ______ ____
ROOT
ATOM      1  C   UNL     1      -2.587   9.634  18.362  0.00  0.00    +0.000 C 
ATOM      2  C   UNL     1      -1.576  10.742  18.176  0.00  0.00    +0.000 C 
ATOM      3  C   UNL     1      -1.930  11.728  17.084  0.00  0.00    +0.000 C 
ATOM      4  C   UNL     1      -0.417  10.811  18.889  0.00  0.00    +0.000 C 
ATOM      5  C   UNL     1       0.586  11.874  18.614  0.00  0.00    +0.000 A 
ATOM      6  C   UNL     1       0.273  13.217  18.877  0.00  0.00    +0.000 A 
ATOM      7  C   UNL     1       1.205  14.223  18.633  0.00  0.00    +0.000 A 
ATOM      8  C   UNL     1       2.462  13.888  18.139  0.00  0.00    +0.000 A 
ATOM      9 CL   UNL     1       3.610  15.130  17.821  0.00  0.00    +0.000 Cl
ATOM     10  C   UNL     1       2.803  12.554  17.912  0.00  0.00    +0.000 A 
ATOM     11  C   UNL     1       1.880  11.529  18.176  0.00  0.00    +0.000 A 
ATOM     12  C   UNL     1       2.303  10.137  17.927  0.00  0.00    +0.000 C 
ATOM     13  C   UNL     1       1.981   9.015  18.608  0.00  0.00    +0.000 C 
ATOM     14  C   UNL     1       1.105   9.032  19.825  0.00  0.00    +0.000 A 
ATOM     15  C   UNL     1       1.472   8.233  20.927  0.00  0.00    +0.000 A 
ATOM     16  C   UNL     1       0.696   8.182  22.087  0.00  0.00    +0.000 A 
ATOM     17  C   UNL     1      -0.453   8.954  22.181  0.00  0.00    +0.000 A 
ATOM     18  C   UNL     1      -0.822   9.778  21.120  0.00  0.00    +0.000 A 
ATOM     19  C   UNL     1      -0.064   9.814  19.933  0.00  0.00    +0.000 A 
ENDROOT
BRANCH  13  20
ATOM     20  N   UNL     1       2.507   7.776  18.199  0.00  0.00    +0.000 N 
ATOM     21  C   UNL     1       1.607   6.634  17.918  0.00  0.00    +0.000 C 
ATOM     22  C   UNL     1       2.318   5.297  18.218  0.00  0.00    +0.000 C 
ATOM     23  N   UNL     1       3.586   5.153  17.467  0.00  0.00    +0.000 NA
ATOM     24  C   UNL     1       4.243   3.893  17.802  0.00  0.00    +0.000 C 
ATOM     25  C   UNL     1       4.463   6.304  17.784  0.00  0.00    +0.000 C 
ATOM     26  C   UNL     1       3.792   7.660  17.473  0.00  0.00    +0.000 C 
ENDBRANCH  13  20
TORSDOF 1
ENDMDL
MODEL 8
REMARK VINA RESULT:      -6.1      2.339      3.884
REMARK  Name = 
REMARK  4 active torsions:
REMARK  status: ('A' for Active; 'I' for Inactive)
REMARK    1  A    between atoms: C_1  and  C_2
REMARK    2  A    between atoms: C_2  and  C_3
REMARK    3  A    between atoms: C_13  and  N_14
REMARK    4  A    between atoms: N_17  and  C_18
REMARK                            x       y       z     vdW  Elec       q    Type
REMARK                         _______ _______ _______ _____ _____    ______ ____
ROOT
ATOM      1  C   UNL     1      -3.519  12.614  23.465  0.00  0.00    +0.000 C 
ATOM      2  C   UNL     1      -2.463  13.549  22.920  0.00  0.00    +0.000 C 
ATOM      3  C   UNL     1      -2.757  15.016  23.147  0.00  0.00    +0.000 C 
ATOM      4  C   UNL     1      -1.373  13.110  22.231  0.00  0.00    +0.000 C 
ATOM      5  C   UNL     1      -0.403  14.072  21.642  0.00  0.00    +0.000 A 
ATOM      6  C   UNL     1       0.377  14.881  22.484  0.00  0.00    +0.000 A 
ATOM      7  C   UNL     1       1.296  15.781  21.948  0.00  0.00    +0.000 A 
ATOM      8  C   UNL     1       1.450  15.864  20.567  0.00  0.00    +0.000 A 
ATOM      9 CL   UNL     1       2.572  16.987  19.902  0.00  0.00    +0.000 Cl
ATOM     10  C   UNL     1       0.712  15.038  19.720  0.00  0.00    +0.000 A 
ATOM     11  C   UNL     1      -0.201  14.110  20.249  0.00  0.00    +0.000 A 
ATOM     12  C   UNL     1      -0.945  13.255  19.303  0.00  0.00    +0.000 C 
ATOM     13  C   UNL     1      -1.339  11.971  19.446  0.00  0.00    +0.000 C 
ATOM     14  C   UNL     1      -1.027  11.161  20.668  0.00  0.00    +0.000 A 
ATOM     15  C   UNL     1      -0.611   9.825  20.500  0.00  0.00    +0.000 A 
ATOM     16  C   UNL     1      -0.321   9.003  21.592  0.00  0.00    +0.000 A 
ATOM     17  C   UNL     1      -0.415   9.512  22.879  0.00  0.00    +0.000 A 
ATOM     18  C   UNL     1      -0.792  10.839  23.075  0.00  0.00    +0.000 A 
ATOM     19  C   UNL     1      -1.116  11.667  21.982  0.00  0.00    +0.000 A 
ENDROOT
BRANCH  13  20
ATOM     20  N   UNL     1      -2.040  11.336  18.404  0.00  0.00    +0.000 N 
ATOM     21  C   UNL     1      -1.510  10.100  17.786  0.00  0.00    +0.000 C 
ATOM     22  C   UNL     1      -1.948  10.002  16.308  0.00  0.00    +0.000 C 
ATOM     23  N   UNL     1      -3.418  10.068  16.151  0.00  0.00    +0.000 NA
ATOM     24  C   UNL     1      -3.789  10.006  14.741  0.00  0.00    +0.000 C 
ATOM     25  C   UNL     1      -3.909  11.323  16.769  0.00  0.00    +0.000 C 
ATOM     26  C   UNL     1      -3.509  11.443  18.256  0.00  0.00    +0.000 C 
ENDBRANCH  13  20
TORSDOF 1
ENDMDL
MODEL 9
REMARK VINA RESULT:      -6.0      3.751      7.505
REMARK  Name = 
REMARK  4 active torsions:
REMARK  status: ('A' for Active; 'I' for Inactive)
REMARK    1  A    between atoms: C_1  and  C_2
REMARK    2  A    between atoms: C_2  and  C_3
REMARK    3  A    between atoms: C_13  and  N_14
REMARK    4  A    between atoms: N_17  and  C_18
REMARK                            x       y       z     vdW  Elec       q    Type
REMARK                         _______ _______ _______ _____ _____    ______ ____
ROOT
ATOM      1  C   UNL     1      -7.916  13.591  21.411  0.00  0.00    +0.000 C 
ATOM      2  C   UNL     1      -6.967  12.809  20.532  0.00  0.00    +0.000 C 
ATOM      3  C   UNL     1      -7.358  11.361  20.331  0.00  0.00    +0.000 C 
ATOM      4  C   UNL     1      -5.825  13.346  20.018  0.00  0.00    +0.000 C 
ATOM      5  C   UNL     1      -4.879  12.515  19.227  0.00  0.00    +0.000 A 
ATOM      6  C   UNL     1      -5.273  12.002  17.980  0.00  0.00    +0.000 A 
ATOM      7  C   UNL     1      -4.395  11.229  17.223  0.00  0.00    +0.000 A 
ATOM      8  C   UNL     1      -3.113  10.980  17.703  0.00  0.00    +0.000 A 
ATOM      9 CL   UNL     1      -2.032  10.011  16.777  0.00  0.00    +0.000 Cl
ATOM     10  C   UNL     1      -2.693  11.517  18.920  0.00  0.00    +0.000 A 
ATOM     11  C   UNL     1      -3.561  12.317  19.681  0.00  0.00    +0.000 A 
ATOM     12  C   UNL     1      -3.056  12.866  20.955  0.00  0.00    +0.000 C 
ATOM     13  C   UNL     1      -3.325  14.058  21.534  0.00  0.00    +0.000 C 
ATOM     14  C   UNL     1      -4.220  15.079  20.901  0.00  0.00    +0.000 A 
ATOM     15  C   UNL     1      -3.827  16.433  20.939  0.00  0.00    +0.000 A 
ATOM     16  C   UNL     1      -4.618  17.443  20.388  0.00  0.00    +0.000 A 
ATOM     17  C   UNL     1      -5.810  17.117  19.758  0.00  0.00    +0.000 A 
ATOM     18  C   UNL     1      -6.208  15.784  19.676  0.00  0.00    +0.000 A 
ATOM     19  C   UNL     1      -5.434  14.760  20.255  0.00  0.00    +0.000 A 
ENDROOT
BRANCH  13  20
ATOM     20  N   UNL     1      -2.723  14.388  22.761  0.00  0.00    +0.000 N 
ATOM     21  C   UNL     1      -3.451  14.183  24.034  0.00  0.00    +0.000 C 
ATOM     22  C   UNL     1      -3.000  15.217  25.089  0.00  0.00    +0.000 C 
ATOM     23  N   UNL     1      -1.539  15.183  25.320  0.00  0.00    +0.000 NA
ATOM     24  C   UNL     1      -1.148  16.194  26.297  0.00  0.00    +0.000 C 
ATOM     25  C   UNL     1      -0.845  15.404  24.029  0.00  0.00    +0.000 C 
ATOM     26  C   UNL     1      -1.255  14.372  22.956  0.00  0.00    +0.000 C 
ENDBRANCH  13  20
TORSDOF 1
ENDMDL
