MODEL 1
REMARK VINA RESULT:      -7.6      0.000      0.000
REMARK  Name = 
REMARK  2 active torsions:
REMARK  status: ('A' for Active; 'I' for Inactive)
REMARK    1  A    between atoms: C_1  and  C_2
REMARK    2  A    between atoms: C_12  and  C_13
REMARK                            x       y       z     vdW  Elec       q    Type
REMARK                         _______ _______ _______ _____ _____    ______ ____
ROOT
ATOM      1  C   UNL     1       7.066   4.829  18.400  0.00  0.00    +0.000 C 
ATOM      2  C   UNL     1       5.671   4.439  17.994  0.00  0.00    +0.000 A 
ATOM      3  N   UNL     1       4.840   4.140  19.037  0.00  0.00    +0.000 NA
ATOM      4  C   UNL     1       3.573   3.735  18.772  0.00  0.00    +0.000 A 
ATOM      5  N   UNL     1       2.754   3.408  19.877  0.00  0.00    +0.000 N 
ATOM      6  C   UNL     1       1.474   2.922  19.895  0.00  0.00    +0.000 A 
ATOM      7  N   UNL     1       1.072   2.742  21.133  0.00  0.00    +0.000 NA
ATOM      8  N   UNL     1       2.103   3.113  21.961  0.00  0.00    +0.000 NA
ATOM      9  C   UNL     1       3.102   3.503  21.200  0.00  0.00    +0.000 A 
ATOM     10  C   UNL     1       3.087   3.631  17.476  0.00  0.00    +0.000 A 
ATOM     11  C   UNL     1       3.942   3.945  16.419  0.00  0.00    +0.000 A 
ATOM     12  C   UNL     1       5.265   4.348  16.656  0.00  0.00    +0.000 A 
ENDROOT
BRANCH  12  13
ATOM     13  C   UNL     1       6.143   4.620  15.514  0.00  0.00    +0.000 A 
ATOM     14  C   UNL     1       6.109   4.003  14.229  0.00  0.00    +0.000 A 
ATOM     15  C   UNL     1       7.128   4.578  13.511  0.00  0.00    +0.000 A 
ATOM     16  N   UNL     1       7.703   5.481  14.349  0.00  0.00    +0.000 N 
ATOM     17  N   UNL     1       7.121   5.538  15.555  0.00  0.00    +0.000 NA
ATOM     18  H   UNL     1       8.495   6.090  14.169  0.00  0.00    +0.000 HD
ENDBRANCH  12  13
TORSDOF 1
ENDMDL
MODEL 2
REMARK VINA RESULT:      -7.5      1.247      6.672
REMARK  Name = 
REMARK  2 active torsions:
REMARK  status: ('A' for Active; 'I' for Inactive)
REMARK    1  A    between atoms: C_1  and  C_2
REMARK    2  A    between atoms: C_12  and  C_13
REMARK                            x       y       z     vdW  Elec       q    Type
REMARK                         _______ _______ _______ _____ _____    ______ ____
ROOT
ATOM      1  C   UNL     1       2.490   2.108  17.541  0.00  0.00    +0.000 C 
ATOM      2  C   UNL     1       3.531   3.141  17.873  0.00  0.00    +0.000 A 
ATOM      3  N   UNL     1       4.333   3.495  16.824  0.00  0.00    +0.000 NA
ATOM      4  C   UNL     1       5.332   4.389  17.034  0.00  0.00    +0.000 A 
ATOM      5  N   UNL     1       6.157   4.707  15.931  0.00  0.00    +0.000 N 
ATOM      6  C   UNL     1       7.258   5.520  15.877  0.00  0.00    +0.000 A 
ATOM      7  N   UNL     1       7.748   5.544  14.658  0.00  0.00    +0.000 NA
ATOM      8  N   UNL     1       6.961   4.729  13.880  0.00  0.00    +0.000 NA
ATOM      9  C   UNL     1       6.020   4.233  14.653  0.00  0.00    +0.000 A 
ATOM     10  C   UNL     1       5.554   4.970  18.276  0.00  0.00    +0.000 A 
ATOM     11  C   UNL     1       4.725   4.606  19.337  0.00  0.00    +0.000 A 
ATOM     12  C   UNL     1       3.695   3.670  19.161  0.00  0.00    +0.000 A 
ENDROOT
BRANCH  12  13
ATOM     13  C   UNL     1       2.881   3.280  20.315  0.00  0.00    +0.000 A 
ATOM     14  C   UNL     1       1.553   3.698  20.619  0.00  0.00    +0.000 A 
ATOM     15  C   UNL     1       1.227   3.079  21.800  0.00  0.00    +0.000 A 
ATOM     16  N   UNL     1       2.316   2.340  22.140  0.00  0.00    +0.000 N 
ATOM     17  N   UNL     1       3.321   2.430  21.257  0.00  0.00    +0.000 NA
ATOM     18  H   UNL     1       2.448   1.753  22.959  0.00  0.00    +0.000 HD
ENDBRANCH  12  13
TORSDOF 1
ENDMDL
MODEL 3
REMARK VINA RESULT:      -7.3      1.236      1.364
REMARK  Name = 
REMARK  2 active torsions:
REMARK  status: ('A' for Active; 'I' for Inactive)
REMARK    1  A    between atoms: C_1  and  C_2
REMARK    2  A    between atoms: C_12  and  C_13
REMARK                            x       y       z     vdW  Elec       q    Type
REMARK                         _______ _______ _______ _____ _____    ______ ____
ROOT
ATOM      1  C   UNL     1       4.819   6.966  16.807  0.00  0.00    +0.000 C 
ATOM      2  C   UNL     1       4.544   5.501  17.002  0.00  0.00    +0.000 A 
ATOM      3  N   UNL     1       3.642   5.220  17.990  0.00  0.00    +0.000 NA
ATOM      4  C   UNL     1       3.361   3.924  18.273  0.00  0.00    +0.000 A 
ATOM      5  N   UNL     1       2.445   3.675  19.320  0.00  0.00    +0.000 N 
ATOM      6  C   UNL     1       2.032   2.480  19.847  0.00  0.00    +0.000 A 
ATOM      7  N   UNL     1       1.172   2.682  20.820  0.00  0.00    +0.000 NA
ATOM      8  N   UNL     1       1.007   4.040  20.949  0.00  0.00    +0.000 NA
ATOM      9  C   UNL     1       1.775   4.619  20.053  0.00  0.00    +0.000 A 
ATOM     10  C   UNL     1       3.946   2.873  17.579  0.00  0.00    +0.000 A 
ATOM     11  C   UNL     1       4.860   3.171  16.568  0.00  0.00    +0.000 A 
ATOM     12  C   UNL     1       5.189   4.500  16.263  0.00  0.00    +0.000 A 
ENDROOT
BRANCH  12  13
ATOM     13  C   UNL     1       6.193   4.766  15.227  0.00  0.00    +0.000 A 
ATOM     14  C   UNL     1       6.180   4.319  13.874  0.00  0.00    +0.000 A 
ATOM     15  C   UNL     1       7.330   4.809  13.307  0.00  0.00    +0.000 A 
ATOM     16  N   UNL     1       7.956   5.507  14.292  0.00  0.00    +0.000 N 
ATOM     17  N   UNL     1       7.287   5.510  15.454  0.00  0.00    +0.000 NA
ATOM     18  H   UNL     1       8.840   6.003  14.247  0.00  0.00    +0.000 HD
ENDBRANCH  12  13
TORSDOF 1
ENDMDL
MODEL 4
REMARK VINA RESULT:      -7.1      4.167      5.646
REMARK  Name = 
REMARK  2 active torsions:
REMARK  status: ('A' for Active; 'I' for Inactive)
REMARK    1  A    between atoms: C_1  and  C_2
REMARK    2  A    between atoms: C_12  and  C_13
REMARK                            x       y       z     vdW  Elec       q    Type
REMARK                         _______ _______ _______ _____ _____    ______ ____
ROOT
ATOM      1  C   UNL     1       1.747   4.563  21.004  0.00  0.00    +0.000 C 
ATOM      2  C   UNL     1       2.331   5.395  19.896  0.00  0.00    +0.000 A 
ATOM      3  N   UNL     1       1.899   6.691  19.872  0.00  0.00    +0.000 NA
ATOM      4  C   UNL     1       2.335   7.511  18.883  0.00  0.00    +0.000 A 
ATOM      5  N   UNL     1       1.844   8.836  18.878  0.00  0.00    +0.000 N 
ATOM      6  C   UNL     1       2.068   9.841  17.975  0.00  0.00    +0.000 A 
ATOM      7  N   UNL     1       1.417  10.927  18.330  0.00  0.00    +0.000 NA
ATOM      8  N   UNL     1       0.741  10.642  19.491  0.00  0.00    +0.000 NA
ATOM      9  C   UNL     1       1.000   9.391  19.804  0.00  0.00    +0.000 A 
ATOM     10  C   UNL     1       3.220   7.080  17.904  0.00  0.00    +0.000 A 
ATOM     11  C   UNL     1       3.659   5.756  17.941  0.00  0.00    +0.000 A 
ATOM     12  C   UNL     1       3.213   4.876  18.938  0.00  0.00    +0.000 A 
ENDROOT
BRANCH  12  13
ATOM     13  C   UNL     1       3.661   3.480  18.909  0.00  0.00    +0.000 A 
ATOM     14  C   UNL     1       3.092   2.403  18.170  0.00  0.00    +0.000 A 
ATOM     15  C   UNL     1       3.847   1.298  18.477  0.00  0.00    +0.000 A 
ATOM     16  N   UNL     1       4.802   1.735  19.341  0.00  0.00    +0.000 N 
ATOM     17  N   UNL     1       4.723   3.046  19.607  0.00  0.00    +0.000 NA
ATOM     18  H   UNL     1       5.536   1.198  19.791  0.00  0.00    +0.000 HD
ENDBRANCH  12  13
TORSDOF 1
ENDMDL
MODEL 5
REMARK VINA RESULT:      -7.0      4.152      5.591
REMARK  Name = 
REMARK  2 active torsions:
REMARK  status: ('A' for Active; 'I' for Inactive)
REMARK    1  A    between atoms: C_1  and  C_2
REMARK    2  A    between atoms: C_12  and  C_13
REMARK                            x       y       z     vdW  Elec       q    Type
REMARK                         _______ _______ _______ _____ _____    ______ ____
ROOT
ATOM      1  C   UNL     1       4.374   5.414  16.946  0.00  0.00    +0.000 C 
ATOM      2  C   UNL     1       3.457   5.740  18.093  0.00  0.00    +0.000 A 
ATOM      3  N   UNL     1       2.993   7.025  18.099  0.00  0.00    +0.000 NA
ATOM      4  C   UNL     1       2.194   7.429  19.117  0.00  0.00    +0.000 A 
ATOM      5  N   UNL     1       1.757   8.774  19.103  0.00  0.00    +0.000 N 
ATOM      6  C   UNL     1       1.004   9.452  20.023  0.00  0.00    +0.000 A 
ATOM      7  N   UNL     1       0.824  10.696  19.639  0.00  0.00    +0.000 NA
ATOM      8  N   UNL     1       1.471  10.855  18.438  0.00  0.00    +0.000 NA
ATOM      9  C   UNL     1       2.028   9.703  18.132  0.00  0.00    +0.000 A 
ATOM     10  C   UNL     1       1.817   6.574  20.144  0.00  0.00    +0.000 A 
ATOM     11  C   UNL     1       2.291   5.262  20.124  0.00  0.00    +0.000 A 
ATOM     12  C   UNL     1       3.136   4.816  19.097  0.00  0.00    +0.000 A 
ENDROOT
BRANCH  12  13
ATOM     13  C   UNL     1       3.651   3.445  19.143  0.00  0.00    +0.000 A 
ATOM     14  C   UNL     1       3.079   2.284  18.545  0.00  0.00    +0.000 A 
ATOM     15  C   UNL     1       3.912   1.244  18.874  0.00  0.00    +0.000 A 
ATOM     16  N   UNL     1       4.911   1.795  19.615  0.00  0.00    +0.000 N 
ATOM     17  N   UNL     1       4.788   3.119  19.780  0.00  0.00    +0.000 NA
ATOM     18  H   UNL     1       5.707   1.330  20.043  0.00  0.00    +0.000 HD
ENDBRANCH  12  13
TORSDOF 1
ENDMDL
MODEL 6
REMARK VINA RESULT:      -7.0      4.797      5.801
REMARK  Name = 
REMARK  2 active torsions:
REMARK  status: ('A' for Active; 'I' for Inactive)
REMARK    1  A    between atoms: C_1  and  C_2
REMARK    2  A    between atoms: C_12  and  C_13
REMARK                            x       y       z     vdW  Elec       q    Type
REMARK                         _______ _______ _______ _____ _____    ______ ____
ROOT
ATOM      1  C   UNL     1       1.887   4.675  21.020  0.00  0.00    +0.000 C 
ATOM      2  C   UNL     1       1.951   6.006  20.325  0.00  0.00    +0.000 A 
ATOM      3  N   UNL     1       1.467   7.053  21.058  0.00  0.00    +0.000 NA
ATOM      4  C   UNL     1       1.442   8.289  20.501  0.00  0.00    +0.000 A 
ATOM      5  N   UNL     1       0.907   9.340  21.281  0.00  0.00    +0.000 N 
ATOM      6  C   UNL     1       0.709  10.653  20.949  0.00  0.00    +0.000 A 
ATOM      7  N   UNL     1       0.179  11.305  21.960  0.00  0.00    +0.000 NA
ATOM      8  N   UNL     1       0.016  10.409  22.989  0.00  0.00    +0.000 NA
ATOM      9  C   UNL     1       0.450   9.241  22.569  0.00  0.00    +0.000 A 
ATOM     10  C   UNL     1       1.909   8.529  19.216  0.00  0.00    +0.000 A 
ATOM     11  C   UNL     1       2.407   7.455  18.478  0.00  0.00    +0.000 A 
ATOM     12  C   UNL     1       2.430   6.159  19.017  0.00  0.00    +0.000 A 
ENDROOT
BRANCH  12  13
ATOM     13  C   UNL     1       2.916   5.051  18.188  0.00  0.00    +0.000 A 
ATOM     14  C   UNL     1       4.271   4.713  17.902  0.00  0.00    +0.000 A 
ATOM     15  C   UNL     1       4.216   3.615  17.080  0.00  0.00    +0.000 A 
ATOM     16  N   UNL     1       2.894   3.343  16.918  0.00  0.00    +0.000 N 
ATOM     17  N   UNL     1       2.089   4.182  17.586  0.00  0.00    +0.000 NA
ATOM     18  H   UNL     1       2.467   2.606  16.366  0.00  0.00    +0.000 HD
ENDBRANCH  12  13
TORSDOF 1
ENDMDL
MODEL 7
REMARK VINA RESULT:      -6.9      4.779      5.832
REMARK  Name = 
REMARK  2 active torsions:
REMARK  status: ('A' for Active; 'I' for Inactive)
REMARK    1  A    between atoms: C_1  and  C_2
REMARK    2  A    between atoms: C_12  and  C_13
REMARK                            x       y       z     vdW  Elec       q    Type
REMARK                         _______ _______ _______ _____ _____    ______ ____
ROOT
ATOM      1  C   UNL     1       3.174   7.751  17.595  0.00  0.00    +0.000 C 
ATOM      2  C   UNL     1       2.479   7.361  18.870  0.00  0.00    +0.000 A 
ATOM      3  N   UNL     1       1.934   8.406  19.562  0.00  0.00    +0.000 NA
ATOM      4  C   UNL     1       1.323   8.162  20.748  0.00  0.00    +0.000 A 
ATOM      5  N   UNL     1       0.798   9.273  21.446  0.00  0.00    +0.000 N 
ATOM      6  C   UNL     1       0.193   9.320  22.674  0.00  0.00    +0.000 A 
ATOM      7  N   UNL     1      -0.147  10.555  22.968  0.00  0.00    +0.000 NA
ATOM      8  N   UNL     1       0.240  11.352  21.917  0.00  0.00    +0.000 NA
ATOM      9  C   UNL     1       0.806  10.576  21.019  0.00  0.00    +0.000 A 
ATOM     10  C   UNL     1       1.217   6.881  21.273  0.00  0.00    +0.000 A 
ATOM     11  C   UNL     1       1.771   5.821  20.556  0.00  0.00    +0.000 A 
ATOM     12  C   UNL     1       2.427   6.040  19.335  0.00  0.00    +0.000 A 
ENDROOT
BRANCH  12  13
ATOM     13  C   UNL     1       3.038   4.903  18.640  0.00  0.00    +0.000 A 
ATOM     14  C   UNL     1       2.439   4.070  17.650  0.00  0.00    +0.000 A 
ATOM     15  C   UNL     1       3.395   3.144  17.313  0.00  0.00    +0.000 A 
ATOM     16  N   UNL     1       4.483   3.447  18.071  0.00  0.00    +0.000 N 
ATOM     17  N   UNL     1       4.301   4.509  18.867  0.00  0.00    +0.000 NA
ATOM     18  H   UNL     1       5.380   2.973  18.100  0.00  0.00    +0.000 HD
ENDBRANCH  12  13
TORSDOF 1
ENDMDL
MODEL 8
REMARK VINA RESULT:      -6.9      1.351      6.464
REMARK  Name = 
REMARK  2 active torsions:
REMARK  status: ('A' for Active; 'I' for Inactive)
REMARK    1  A    between atoms: C_1  and  C_2
REMARK    2  A    between atoms: C_12  and  C_13
REMARK                            x       y       z     vdW  Elec       q    Type
REMARK                         _______ _______ _______ _____ _____    ______ ____
ROOT
ATOM      1  C   UNL     1       4.308   5.811  19.597  0.00  0.00    +0.000 C 
ATOM      2  C   UNL     1       4.261   4.780  18.503  0.00  0.00    +0.000 A 
ATOM      3  N   UNL     1       5.120   5.015  17.466  0.00  0.00    +0.000 NA
ATOM      4  C   UNL     1       5.121   4.165  16.409  0.00  0.00    +0.000 A 
ATOM      5  N   UNL     1       6.003   4.458  15.344  0.00  0.00    +0.000 N 
ATOM      6  C   UNL     1       6.165   3.812  14.148  0.00  0.00    +0.000 A 
ATOM      7  N   UNL     1       7.088   4.408  13.428  0.00  0.00    +0.000 NA
ATOM      8  N   UNL     1       7.553   5.477  14.155  0.00  0.00    +0.000 NA
ATOM      9  C   UNL     1       6.895   5.498  15.293  0.00  0.00    +0.000 A 
ATOM     10  C   UNL     1       4.291   3.053  16.355  0.00  0.00    +0.000 A 
ATOM     11  C   UNL     1       3.423   2.820  17.422  0.00  0.00    +0.000 A 
ATOM     12  C   UNL     1       3.381   3.690  18.522  0.00  0.00    +0.000 A 
ENDROOT
BRANCH  12  13
ATOM     13  C   UNL     1       2.418   3.433  19.597  0.00  0.00    +0.000 A 
ATOM     14  C   UNL     1       2.652   2.745  20.823  0.00  0.00    +0.000 A 
ATOM     15  C   UNL     1       1.452   2.751  21.490  0.00  0.00    +0.000 A 
ATOM     16  N   UNL     1       0.586   3.418  20.682  0.00  0.00    +0.000 N 
ATOM     17  N   UNL     1       1.144   3.853  19.543  0.00  0.00    +0.000 NA
ATOM     18  H   UNL     1      -0.398   3.612  20.838  0.00  0.00    +0.000 HD
ENDBRANCH  12  13
TORSDOF 1
ENDMDL
MODEL 9
REMARK VINA RESULT:      -6.9      4.500      5.642
REMARK  Name = 
REMARK  2 active torsions:
REMARK  status: ('A' for Active; 'I' for Inactive)
REMARK    1  A    between atoms: C_1  and  C_2
REMARK    2  A    between atoms: C_12  and  C_13
REMARK                            x       y       z     vdW  Elec       q    Type
REMARK                         _______ _______ _______ _____ _____    ______ ____
ROOT
ATOM      1  C   UNL     1       2.047   4.521  21.244  0.00  0.00    +0.000 C 
ATOM      2  C   UNL     1       2.120   5.685  20.296  0.00  0.00    +0.000 A 
ATOM      3  N   UNL     1       1.688   6.871  20.820  0.00  0.00    +0.000 NA
ATOM      4  C   UNL     1       1.673   7.972  20.028  0.00  0.00    +0.000 A 
ATOM      5  N   UNL     1       1.193   9.173  20.598  0.00  0.00    +0.000 N 
ATOM      6  C   UNL     1       1.016  10.400  20.017  0.00  0.00    +0.000 A 
ATOM      7  N   UNL     1       0.538  11.255  20.893  0.00  0.00    +0.000 NA
ATOM      8  N   UNL     1       0.390  10.587  22.085  0.00  0.00    +0.000 NA
ATOM      9  C   UNL     1       0.779   9.346  21.894  0.00  0.00    +0.000 A 
ATOM     10  C   UNL     1       2.101   7.938  18.707  0.00  0.00    +0.000 A 
ATOM     11  C   UNL     1       2.546   6.723  18.185  0.00  0.00    +0.000 A 
ATOM     12  C   UNL     1       2.556   5.560  18.969  0.00  0.00    +0.000 A 
ENDROOT
BRANCH  12  13
ATOM     13  C   UNL     1       2.984   4.296  18.364  0.00  0.00    +0.000 A 
ATOM     14  C   UNL     1       2.160   3.297  17.769  0.00  0.00    +0.000 A 
ATOM     15  C   UNL     1       3.013   2.303  17.360  0.00  0.00    +0.000 A 
ATOM     16  N   UNL     1       4.260   2.726  17.700  0.00  0.00    +0.000 N 
ATOM     17  N   UNL     1       4.274   3.928  18.292  0.00  0.00    +0.000 NA
ATOM     18  H   UNL     1       5.146   2.249  17.563  0.00  0.00    +0.000 HD
ENDBRANCH  12  13
TORSDOF 1
ENDMDL
