MODEL 1
REMARK VINA RESULT:      -8.3      0.000      0.000
REMARK  Name = 
REMARK  4 active torsions:
REMARK  status: ('A' for Active; 'I' for Inactive)
REMARK    1  A    between atoms: C_2  and  OXT_3
REMARK    2  A    between atoms: C_2  and  CA_4
REMARK    3  A    between atoms: C_13  and  C_14
REMARK    4  A    between atoms: C_14  and  C_15
REMARK                            x       y       z     vdW  Elec       q    Type
REMARK                         _______ _______ _______ _____ _____    ______ ____
ROOT
ATOM      1  CA  UNL     1       6.820   5.429  17.448  0.00  0.00    +0.000 A 
ATOM      2  N   UNL     1       7.643   5.651  16.366  0.00  0.00    +0.000 N 
ATOM      3  C   UNL     1       7.099   5.148  15.214  0.00  0.00    +0.000 A 
ATOM      4  C   UNL     1       7.650   5.064  13.932  0.00  0.00    +0.000 A 
ATOM      5  C   UNL     1       6.883   4.457  12.936  0.00  0.00    +0.000 A 
ATOM      6  C   UNL     1       5.608   3.976  13.221  0.00  0.00    +0.000 A 
ATOM      7 CL   UNL     1       4.713   3.181  11.982  0.00  0.00    +0.000 Cl
ATOM      8  C   UNL     1       5.049   4.107  14.500  0.00  0.00    +0.000 A 
ATOM      9  C   UNL     1       5.813   4.698  15.529  0.00  0.00    +0.000 A 
ATOM     10  C   UNL     1       5.623   4.962  16.923  0.00  0.00    +0.000 A 
ATOM     11  H   UNL     1       8.569   6.056  16.444  0.00  0.00    +0.000 HD
ENDROOT
BRANCH  10  12
ATOM     12  C   UNL     1       4.322   4.707  17.716  0.00  0.00    +0.000 C 
ATOM     13  C   UNL     1       3.396   3.631  17.162  0.00  0.00    +0.000 C 
ATOM     14  C   UNL     1       4.168   3.387  18.435  0.00  0.00    +0.000 C 
BRANCH  12  15
ATOM     15  C   UNL     1       3.707   5.999  18.278  0.00  0.00    +0.000 A 
ATOM     16  C   UNL     1       3.041   6.042  19.520  0.00  0.00    +0.000 A 
ATOM     17  C   UNL     1       2.174   7.087  19.851  0.00  0.00    +0.000 A 
ATOM     18  C   UNL     1       1.984   8.140  18.967  0.00  0.00    +0.000 A 
ATOM     19  C   UNL     1       2.723   8.190  17.792  0.00  0.00    +0.000 A 
ATOM     20  C   UNL     1       3.591   7.145  17.469  0.00  0.00    +0.000 A 
ENDBRANCH  12  15
ENDBRANCH  10  12
BRANCH   1  22
ATOM     21  O   UNL     1       6.848   5.208  19.784  0.00  0.00    +0.000 OA
ATOM     22  C   UNL     1       7.281   5.740  18.775  0.00  0.00    +0.000 C 
BRANCH  22  23
ATOM     23  OXT UNL     1       8.154   6.759  18.816  0.00  0.00    +0.000 OA
ATOM     24  HXT UNL     1       9.068   6.449  18.700  0.00  0.00    +0.000 HD
ENDBRANCH  22  23
ENDBRANCH   1  22
TORSDOF 4
ENDMDL
MODEL 2
REMARK VINA RESULT:      -8.3      3.267      6.118
REMARK  Name = 
REMARK  4 active torsions:
REMARK  status: ('A' for Active; 'I' for Inactive)
REMARK    1  A    between atoms: C_2  and  OXT_3
REMARK    2  A    between atoms: C_2  and  CA_4
REMARK    3  A    between atoms: C_13  and  C_14
REMARK    4  A    between atoms: C_14  and  C_15
REMARK                            x       y       z     vdW  Elec       q    Type
REMARK                         _______ _______ _______ _____ _____    ______ ____
ROOT
ATOM      1  CA  UNL     1       2.690   4.110  20.566  0.00  0.00    +0.000 A 
ATOM      2  N   UNL     1       2.043   5.092  21.284  0.00  0.00    +0.000 N 
ATOM      3  C   UNL     1       1.935   6.249  20.560  0.00  0.00    +0.000 A 
ATOM      4  C   UNL     1       1.454   7.503  20.952  0.00  0.00    +0.000 A 
ATOM      5  C   UNL     1       1.498   8.535  20.013  0.00  0.00    +0.000 A 
ATOM      6  C   UNL     1       1.987   8.303  18.730  0.00  0.00    +0.000 A 
ATOM      7 CL   UNL     1       2.080   9.614  17.617  0.00  0.00    +0.000 Cl
ATOM      8  C   UNL     1       2.424   7.031  18.336  0.00  0.00    +0.000 A 
ATOM      9  C   UNL     1       2.409   5.976  19.274  0.00  0.00    +0.000 A 
ATOM     10  C   UNL     1       2.800   4.599  19.273  0.00  0.00    +0.000 A 
ATOM     11  H   UNL     1       1.769   4.984  22.254  0.00  0.00    +0.000 HD
ENDROOT
BRANCH  10  12
ATOM     12  C   UNL     1       3.319   3.815  18.046  0.00  0.00    +0.000 C 
ATOM     13  C   UNL     1       3.037   2.318  18.036  0.00  0.00    +0.000 C 
ATOM     14  C   UNL     1       2.308   3.235  17.086  0.00  0.00    +0.000 C 
BRANCH  12  15
ATOM     15  C   UNL     1       4.687   4.317  17.557  0.00  0.00    +0.000 A 
ATOM     16  C   UNL     1       5.060   4.296  16.197  0.00  0.00    +0.000 A 
ATOM     17  C   UNL     1       6.397   4.388  15.801  0.00  0.00    +0.000 A 
ATOM     18  C   UNL     1       7.395   4.548  16.753  0.00  0.00    +0.000 A 
ATOM     19  C   UNL     1       7.049   4.700  18.090  0.00  0.00    +0.000 A 
ATOM     20  C   UNL     1       5.711   4.612  18.478  0.00  0.00    +0.000 A 
ENDBRANCH  12  15
ENDBRANCH  10  12
BRANCH   1  22
ATOM     21  O   UNL     1       4.119   2.314  21.055  0.00  0.00    +0.000 OA
ATOM     22  C   UNL     1       3.043   2.870  21.205  0.00  0.00    +0.000 C 
BRANCH  22  23
ATOM     23  OXT UNL     1       2.035   2.315  21.895  0.00  0.00    +0.000 OA
ATOM     24  HXT UNL     1       2.357   1.864  22.694  0.00  0.00    +0.000 HD
ENDBRANCH  22  23
ENDBRANCH   1  22
TORSDOF 4
ENDMDL
MODEL 3
REMARK VINA RESULT:      -8.2      3.269      5.952
REMARK  Name = 
REMARK  4 active torsions:
REMARK  status: ('A' for Active; 'I' for Inactive)
REMARK    1  A    between atoms: C_2  and  OXT_3
REMARK    2  A    between atoms: C_2  and  CA_4
REMARK    3  A    between atoms: C_13  and  C_14
REMARK    4  A    between atoms: C_14  and  C_15
REMARK                            x       y       z     vdW  Elec       q    Type
REMARK                         _______ _______ _______ _____ _____    ______ ____
ROOT
ATOM      1  CA  UNL     1       2.630   4.075  20.511  0.00  0.00    +0.000 A 
ATOM      2  N   UNL     1       2.000   5.083  21.207  0.00  0.00    +0.000 N 
ATOM      3  C   UNL     1       1.917   6.227  20.460  0.00  0.00    +0.000 A 
ATOM      4  C   UNL     1       1.458   7.497  20.825  0.00  0.00    +0.000 A 
ATOM      5  C   UNL     1       1.525   8.510  19.866  0.00  0.00    +0.000 A 
ATOM      6  C   UNL     1       2.015   8.243  18.590  0.00  0.00    +0.000 A 
ATOM      7 CL   UNL     1       2.137   9.530  17.451  0.00  0.00    +0.000 Cl
ATOM      8  C   UNL     1       2.429   6.955  18.223  0.00  0.00    +0.000 A 
ATOM      9  C   UNL     1       2.391   5.919  19.182  0.00  0.00    +0.000 A 
ATOM     10  C   UNL     1       2.755   4.536  19.209  0.00  0.00    +0.000 A 
ATOM     11  H   UNL     1       1.720   4.999  22.178  0.00  0.00    +0.000 HD
ENDROOT
BRANCH  10  12
ATOM     12  C   UNL     1       3.263   3.718  18.000  0.00  0.00    +0.000 C 
ATOM     13  C   UNL     1       2.832   2.257  17.946  0.00  0.00    +0.000 C 
ATOM     14  C   UNL     1       2.256   3.255  16.973  0.00  0.00    +0.000 C 
BRANCH  12  15
ATOM     15  C   UNL     1       4.701   4.083  17.599  0.00  0.00    +0.000 A 
ATOM     16  C   UNL     1       5.701   4.380  18.549  0.00  0.00    +0.000 A 
ATOM     17  C   UNL     1       6.867   5.064  18.198  0.00  0.00    +0.000 A 
ATOM     18  C   UNL     1       7.086   5.433  16.877  0.00  0.00    +0.000 A 
ATOM     19  C   UNL     1       6.182   5.043  15.898  0.00  0.00    +0.000 A 
ATOM     20  C   UNL     1       5.021   4.354  16.255  0.00  0.00    +0.000 A 
ENDBRANCH  12  15
ENDBRANCH  10  12
BRANCH   1  22
ATOM     21  O   UNL     1       3.990   2.221  20.981  0.00  0.00    +0.000 OA
ATOM     22  C   UNL     1       2.957   2.841  21.176  0.00  0.00    +0.000 C 
BRANCH  22  23
ATOM     23  OXT UNL     1       1.968   2.368  21.950  0.00  0.00    +0.000 OA
ATOM     24  HXT UNL     1       1.114   2.773  21.722  0.00  0.00    +0.000 HD
ENDBRANCH  22  23
ENDBRANCH   1  22
TORSDOF 4
ENDMDL
MODEL 4
REMARK VINA RESULT:      -8.1      0.357      1.080
REMARK  Name = 
REMARK  4 active torsions:
REMARK  status: ('A' for Active; 'I' for Inactive)
REMARK    1  A    between atoms: C_2  and  OXT_3
REMARK    2  A    between atoms: C_2  and  CA_4
REMARK    3  A    between atoms: C_13  and  C_14
REMARK    4  A    between atoms: C_14  and  C_15
REMARK                            x       y       z     vdW  Elec       q    Type
REMARK                         _______ _______ _______ _____ _____    ______ ____
ROOT
ATOM      1  CA  UNL     1       6.745   5.342  17.610  0.00  0.00    +0.000 A 
ATOM      2  N   UNL     1       7.537   5.687  16.537  0.00  0.00    +0.000 N 
ATOM      3  C   UNL     1       7.047   5.169  15.368  0.00  0.00    +0.000 A 
ATOM      4  C   UNL     1       7.600   5.188  14.084  0.00  0.00    +0.000 A 
ATOM      5  C   UNL     1       6.899   4.538  13.067  0.00  0.00    +0.000 A 
ATOM      6  C   UNL     1       5.683   3.916  13.334  0.00  0.00    +0.000 A 
ATOM      7 CL   UNL     1       4.874   3.074  12.068  0.00  0.00    +0.000 Cl
ATOM      8  C   UNL     1       5.116   3.944  14.616  0.00  0.00    +0.000 A 
ATOM      9  C   UNL     1       5.816   4.576  15.666  0.00  0.00    +0.000 A 
ATOM     10  C   UNL     1       5.603   4.771  17.067  0.00  0.00    +0.000 A 
ATOM     11  H   UNL     1       8.416   6.184  16.630  0.00  0.00    +0.000 HD
ENDROOT
BRANCH  10  12
ATOM     12  C   UNL     1       4.337   4.353  17.849  0.00  0.00    +0.000 C 
ATOM     13  C   UNL     1       3.718   3.015  17.464  0.00  0.00    +0.000 C 
ATOM     14  C   UNL     1       4.430   3.170  18.784  0.00  0.00    +0.000 C 
BRANCH  12  15
ATOM     15  C   UNL     1       3.410   5.540  18.154  0.00  0.00    +0.000 A 
ATOM     16  C   UNL     1       3.424   6.727  17.393  0.00  0.00    +0.000 A 
ATOM     17  C   UNL     1       2.877   7.918  17.880  0.00  0.00    +0.000 A 
ATOM     18  C   UNL     1       2.262   7.942  19.125  0.00  0.00    +0.000 A 
ATOM     19  C   UNL     1       2.119   6.761  19.842  0.00  0.00    +0.000 A 
ATOM     20  C   UNL     1       2.663   5.575  19.347  0.00  0.00    +0.000 A 
ENDBRANCH  12  15
ENDBRANCH  10  12
BRANCH   1  22
ATOM     21  O   UNL     1       6.621   5.234  19.950  0.00  0.00    +0.000 OA
ATOM     22  C   UNL     1       7.173   5.655  18.947  0.00  0.00    +0.000 C 
BRANCH  22  23
ATOM     23  OXT UNL     1       8.172   6.551  18.996  0.00  0.00    +0.000 OA
ATOM     24  HXT UNL     1       8.945   6.251  18.489  0.00  0.00    +0.000 HD
ENDBRANCH  22  23
ENDBRANCH   1  22
TORSDOF 4
ENDMDL
MODEL 5
REMARK VINA RESULT:      -8.0      1.020      2.657
REMARK  Name = 
REMARK  4 active torsions:
REMARK  status: ('A' for Active; 'I' for Inactive)
REMARK    1  A    between atoms: C_2  and  OXT_3
REMARK    2  A    between atoms: C_2  and  CA_4
REMARK    3  A    between atoms: C_13  and  C_14
REMARK    4  A    between atoms: C_14  and  C_15
REMARK                            x       y       z     vdW  Elec       q    Type
REMARK                         _______ _______ _______ _____ _____    ______ ____
ROOT
ATOM      1  CA  UNL     1       6.715   5.402  17.477  0.00  0.00    +0.000 A 
ATOM      2  N   UNL     1       7.630   5.288  16.454  0.00  0.00    +0.000 N 
ATOM      3  C   UNL     1       7.030   4.885  15.291  0.00  0.00    +0.000 A 
ATOM      4  C   UNL     1       7.606   4.545  14.063  0.00  0.00    +0.000 A 
ATOM      5  C   UNL     1       6.753   4.120  13.043  0.00  0.00    +0.000 A 
ATOM      6  C   UNL     1       5.378   4.062  13.251  0.00  0.00    +0.000 A 
ATOM      7 CL   UNL     1       4.361   3.478  11.989  0.00  0.00    +0.000 Cl
ATOM      8  C   UNL     1       4.808   4.449  14.472  0.00  0.00    +0.000 A 
ATOM      9  C   UNL     1       5.652   4.862  15.526  0.00  0.00    +0.000 A 
ATOM     10  C   UNL     1       5.467   5.274  16.884  0.00  0.00    +0.000 A 
ATOM     11  H   UNL     1       8.629   5.404  16.584  0.00  0.00    +0.000 HD
ENDROOT
BRANCH  10  12
ATOM     12  C   UNL     1       4.104   5.477  17.583  0.00  0.00    +0.000 C 
ATOM     13  C   UNL     1       4.058   6.541  18.673  0.00  0.00    +0.000 C 
ATOM     14  C   UNL     1       3.367   6.776  17.352  0.00  0.00    +0.000 C 
BRANCH  12  15
ATOM     15  C   UNL     1       3.347   4.157  17.800  0.00  0.00    +0.000 A 
ATOM     16  C   UNL     1       1.939   4.081  17.790  0.00  0.00    +0.000 A 
ATOM     17  C   UNL     1       1.259   2.996  18.349  0.00  0.00    +0.000 A 
ATOM     18  C   UNL     1       1.970   1.935  18.894  0.00  0.00    +0.000 A 
ATOM     19  C   UNL     1       3.356   1.921  18.803  0.00  0.00    +0.000 A 
ATOM     20  C   UNL     1       4.029   3.007  18.239  0.00  0.00    +0.000 A 
ENDBRANCH  12  15
ENDBRANCH  10  12
BRANCH   1  22
ATOM     21  O   UNL     1       6.721   5.099  19.804  0.00  0.00    +0.000 OA
ATOM     22  C   UNL     1       7.168   5.662  18.818  0.00  0.00    +0.000 C 
BRANCH  22  23
ATOM     23  OXT UNL     1       8.052   6.669  18.902  0.00  0.00    +0.000 OA
ATOM     24  HXT UNL     1       7.632   7.485  19.220  0.00  0.00    +0.000 HD
ENDBRANCH  22  23
ENDBRANCH   1  22
TORSDOF 4
ENDMDL
MODEL 6
REMARK VINA RESULT:      -7.7      1.043      2.723
REMARK  Name = 
REMARK  4 active torsions:
REMARK  status: ('A' for Active; 'I' for Inactive)
REMARK    1  A    between atoms: C_2  and  OXT_3
REMARK    2  A    between atoms: C_2  and  CA_4
REMARK    3  A    between atoms: C_13  and  C_14
REMARK    4  A    between atoms: C_14  and  C_15
REMARK                            x       y       z     vdW  Elec       q    Type
REMARK                         _______ _______ _______ _____ _____    ______ ____
ROOT
ATOM      1  CA  UNL     1       6.890   5.667  17.246  0.00  0.00    +0.000 A 
ATOM      2  N   UNL     1       7.741   5.554  16.169  0.00  0.00    +0.000 N 
ATOM      3  C   UNL     1       7.093   5.052  15.073  0.00  0.00    +0.000 A 
ATOM      4  C   UNL     1       7.608   4.681  13.826  0.00  0.00    +0.000 A 
ATOM      5  C   UNL     1       6.719   4.150  12.890  0.00  0.00    +0.000 A 
ATOM      6  C   UNL     1       5.367   4.018  13.196  0.00  0.00    +0.000 A 
ATOM      7 CL   UNL     1       4.310   3.304  12.039  0.00  0.00    +0.000 Cl
ATOM      8  C   UNL     1       4.856   4.435  14.433  0.00  0.00    +0.000 A 
ATOM      9  C   UNL     1       5.739   4.956  15.404  0.00  0.00    +0.000 A 
ATOM     10  C   UNL     1       5.617   5.430  16.748  0.00  0.00    +0.000 A 
ATOM     11  H   UNL     1       8.737   5.739  16.224  0.00  0.00    +0.000 HD
ENDROOT
BRANCH  10  12
ATOM     12  C   UNL     1       4.293   5.585  17.529  0.00  0.00    +0.000 C 
ATOM     13  C   UNL     1       4.163   6.834  18.393  0.00  0.00    +0.000 C 
ATOM     14  C   UNL     1       3.352   6.697  17.129  0.00  0.00    +0.000 C 
BRANCH  12  15
ATOM     15  C   UNL     1       3.763   4.248  18.071  0.00  0.00    +0.000 A 
ATOM     16  C   UNL     1       4.416   3.535  19.098  0.00  0.00    +0.000 A 
ATOM     17  C   UNL     1       4.165   2.178  19.323  0.00  0.00    +0.000 A 
ATOM     18  C   UNL     1       3.221   1.509  18.556  0.00  0.00    +0.000 A 
ATOM     19  C   UNL     1       2.470   2.215  17.624  0.00  0.00    +0.000 A 
ATOM     20  C   UNL     1       2.722   3.571  17.407  0.00  0.00    +0.000 A 
ENDBRANCH  12  15
ENDBRANCH  10  12
BRANCH   1  22
ATOM     21  O   UNL     1       7.189   5.396  19.558  0.00  0.00    +0.000 OA
ATOM     22  C   UNL     1       7.413   6.027  18.538  0.00  0.00    +0.000 C 
BRANCH  22  23
ATOM     23  OXT UNL     1       8.080   7.192  18.543  0.00  0.00    +0.000 OA
ATOM     24  HXT UNL     1       7.484   7.942  18.706  0.00  0.00    +0.000 HD
ENDBRANCH  22  23
ENDBRANCH   1  22
TORSDOF 4
ENDMDL
MODEL 7
REMARK VINA RESULT:      -7.6      3.369      5.754
REMARK  Name = 
REMARK  4 active torsions:
REMARK  status: ('A' for Active; 'I' for Inactive)
REMARK    1  A    between atoms: C_2  and  OXT_3
REMARK    2  A    between atoms: C_2  and  CA_4
REMARK    3  A    between atoms: C_13  and  C_14
REMARK    4  A    between atoms: C_14  and  C_15
REMARK                            x       y       z     vdW  Elec       q    Type
REMARK                         _______ _______ _______ _____ _____    ______ ____
ROOT
ATOM      1  CA  UNL     1       3.773   3.492  19.525  0.00  0.00    +0.000 A 
ATOM      2  N   UNL     1       2.725   3.864  20.337  0.00  0.00    +0.000 N 
ATOM      3  C   UNL     1       2.371   5.170  20.127  0.00  0.00    +0.000 A 
ATOM      4  C   UNL     1       1.444   5.963  20.812  0.00  0.00    +0.000 A 
ATOM      5  C   UNL     1       1.310   7.294  20.412  0.00  0.00    +0.000 A 
ATOM      6  C   UNL     1       2.064   7.792  19.353  0.00  0.00    +0.000 A 
ATOM      7 CL   UNL     1       1.915   9.454  18.924  0.00  0.00    +0.000 Cl
ATOM      8  C   UNL     1       2.956   6.975  18.645  0.00  0.00    +0.000 A 
ATOM      9  C   UNL     1       3.126   5.632  19.045  0.00  0.00    +0.000 A 
ATOM     10  C   UNL     1       3.941   4.533  18.624  0.00  0.00    +0.000 A 
ATOM     11  H   UNL     1       2.336   3.264  21.056  0.00  0.00    +0.000 HD
ENDROOT
BRANCH  10  12
ATOM     12  C   UNL     1       4.894   4.538  17.407  0.00  0.00    +0.000 C 
ATOM     13  C   UNL     1       4.953   3.251  16.594  0.00  0.00    +0.000 C 
ATOM     14  C   UNL     1       4.290   4.480  16.024  0.00  0.00    +0.000 C 
BRANCH  12  15
ATOM     15  C   UNL     1       6.197   5.307  17.678  0.00  0.00    +0.000 A 
ATOM     16  C   UNL     1       7.036   5.014  18.772  0.00  0.00    +0.000 A 
ATOM     17  C   UNL     1       7.990   5.927  19.231  0.00  0.00    +0.000 A 
ATOM     18  C   UNL     1       8.160   7.140  18.579  0.00  0.00    +0.000 A 
ATOM     19  C   UNL     1       7.438   7.405  17.422  0.00  0.00    +0.000 A 
ATOM     20  C   UNL     1       6.491   6.486  16.966  0.00  0.00    +0.000 A 
ENDBRANCH  12  15
ENDBRANCH  10  12
BRANCH   1  22
ATOM     21  O   UNL     1       5.216   1.968  20.574  0.00  0.00    +0.000 OA
ATOM     22  C   UNL     1       4.396   2.207  19.703  0.00  0.00    +0.000 C 
BRANCH  22  23
ATOM     23  OXT UNL     1       4.081   1.319  18.747  0.00  0.00    +0.000 OA
ATOM     24  HXT UNL     1       3.593   1.739  18.018  0.00  0.00    +0.000 HD
ENDBRANCH  22  23
ENDBRANCH   1  22
TORSDOF 4
ENDMDL
MODEL 8
REMARK VINA RESULT:      -7.5      1.326      2.711
REMARK  Name = 
REMARK  4 active torsions:
REMARK  status: ('A' for Active; 'I' for Inactive)
REMARK    1  A    between atoms: C_2  and  OXT_3
REMARK    2  A    between atoms: C_2  and  CA_4
REMARK    3  A    between atoms: C_13  and  C_14
REMARK    4  A    between atoms: C_14  and  C_15
REMARK                            x       y       z     vdW  Elec       q    Type
REMARK                         _______ _______ _______ _____ _____    ______ ____
ROOT
ATOM      1  CA  UNL     1       6.944   5.559  16.773  0.00  0.00    +0.000 A 
ATOM      2  N   UNL     1       7.760   5.281  15.698  0.00  0.00    +0.000 N 
ATOM      3  C   UNL     1       7.040   4.808  14.634  0.00  0.00    +0.000 A 
ATOM      4  C   UNL     1       7.488   4.310  13.407  0.00  0.00    +0.000 A 
ATOM      5  C   UNL     1       6.526   3.847  12.506  0.00  0.00    +0.000 A 
ATOM      6  C   UNL     1       5.173   3.906  12.826  0.00  0.00    +0.000 A 
ATOM      7 CL   UNL     1       4.018   3.273  11.716  0.00  0.00    +0.000 Cl
ATOM      8  C   UNL     1       4.734   4.450  14.042  0.00  0.00    +0.000 A 
ATOM      9  C   UNL     1       5.688   4.905  14.978  0.00  0.00    +0.000 A 
ATOM     10  C   UNL     1       5.645   5.461  16.295  0.00  0.00    +0.000 A 
ATOM     11  H   UNL     1       8.772   5.339  15.737  0.00  0.00    +0.000 HD
ENDROOT
BRANCH  10  12
ATOM     12  C   UNL     1       4.362   5.826  17.074  0.00  0.00    +0.000 C 
ATOM     13  C   UNL     1       4.421   7.097  17.913  0.00  0.00    +0.000 C 
ATOM     14  C   UNL     1       3.594   7.057  16.653  0.00  0.00    +0.000 C 
BRANCH  12  15
ATOM     15  C   UNL     1       3.642   4.593  17.643  0.00  0.00    +0.000 A 
ATOM     16  C   UNL     1       4.288   3.351  17.816  0.00  0.00    +0.000 A 
ATOM     17  C   UNL     1       3.567   2.164  17.965  0.00  0.00    +0.000 A 
ATOM     18  C   UNL     1       2.179   2.191  17.990  0.00  0.00    +0.000 A 
ATOM     19  C   UNL     1       1.517   3.411  17.951  0.00  0.00    +0.000 A 
ATOM     20  C   UNL     1       2.243   4.595  17.807  0.00  0.00    +0.000 A 
ENDBRANCH  12  15
ENDBRANCH  10  12
BRANCH   1  22
ATOM     21  O   UNL     1       7.884   7.048  18.324  0.00  0.00    +0.000 OA
ATOM     22  C   UNL     1       7.525   5.917  18.040  0.00  0.00    +0.000 C 
BRANCH  22  23
ATOM     23  OXT UNL     1       7.744   4.867  18.847  0.00  0.00    +0.000 OA
ATOM     24  HXT UNL     1       8.637   4.891  19.228  0.00  0.00    +0.000 HD
ENDBRANCH  22  23
ENDBRANCH   1  22
TORSDOF 4
ENDMDL
MODEL 9
REMARK VINA RESULT:      -7.4      3.477      4.422
REMARK  Name = 
REMARK  4 active torsions:
REMARK  status: ('A' for Active; 'I' for Inactive)
REMARK    1  A    between atoms: C_2  and  OXT_3
REMARK    2  A    between atoms: C_2  and  CA_4
REMARK    3  A    between atoms: C_13  and  C_14
REMARK    4  A    between atoms: C_14  and  C_15
REMARK                            x       y       z     vdW  Elec       q    Type
REMARK                         _______ _______ _______ _____ _____    ______ ____
ROOT
ATOM      1  CA  UNL     1       2.973   3.920  17.775  0.00  0.00    +0.000 A 
ATOM      2  N   UNL     1       4.078   3.467  17.089  0.00  0.00    +0.000 N 
ATOM      3  C   UNL     1       5.190   4.207  17.392  0.00  0.00    +0.000 A 
ATOM      4  C   UNL     1       6.474   4.152  16.840  0.00  0.00    +0.000 A 
ATOM      5  C   UNL     1       7.421   5.063  17.310  0.00  0.00    +0.000 A 
ATOM      6  C   UNL     1       7.088   5.975  18.309  0.00  0.00    +0.000 A 
ATOM      7 CL   UNL     1       8.264   7.123  18.824  0.00  0.00    +0.000 Cl
ATOM      8  C   UNL     1       5.810   5.989  18.886  0.00  0.00    +0.000 A 
ATOM      9  C   UNL     1       4.830   5.092  18.412  0.00  0.00    +0.000 A 
ATOM     10  C   UNL     1       3.451   4.837  18.699  0.00  0.00    +0.000 A 
ATOM     11  H   UNL     1       4.038   2.736  16.387  0.00  0.00    +0.000 HD
ENDROOT
BRANCH  10  12
ATOM     12  C   UNL     1       2.625   5.520  19.813  0.00  0.00    +0.000 C 
ATOM     13  C   UNL     1       1.523   4.679  20.446  0.00  0.00    +0.000 C 
ATOM     14  C   UNL     1       2.770   5.011  21.227  0.00  0.00    +0.000 C 
BRANCH  12  15
ATOM     15  C   UNL     1       2.353   7.004  19.523  0.00  0.00    +0.000 A 
ATOM     16  C   UNL     1       1.755   7.864  20.467  0.00  0.00    +0.000 A 
ATOM     17  C   UNL     1       1.172   9.077  20.090  0.00  0.00    +0.000 A 
ATOM     18  C   UNL     1       1.212   9.485  18.764  0.00  0.00    +0.000 A 
ATOM     19  C   UNL     1       1.905   8.722  17.833  0.00  0.00    +0.000 A 
ATOM     20  C   UNL     1       2.490   7.514  18.217  0.00  0.00    +0.000 A 
ENDBRANCH  12  15
ENDBRANCH  10  12
BRANCH   1  22
ATOM     21  O   UNL     1       0.716   4.057  17.145  0.00  0.00    +0.000 OA
ATOM     22  C   UNL     1       1.673   3.378  17.478  0.00  0.00    +0.000 C 
BRANCH  22  23
ATOM     23  OXT UNL     1       1.574   2.060  17.712  0.00  0.00    +0.000 OA
ATOM     24  HXT UNL     1       0.791   1.679  17.280  0.00  0.00    +0.000 HD
ENDBRANCH  22  23
ENDBRANCH   1  22
TORSDOF 4
ENDMDL
