MODEL 1
REMARK VINA RESULT:      -7.7      0.000      0.000
REMARK  Name = 
REMARK  3 active torsions:
REMARK  status: ('A' for Active; 'I' for Inactive)
REMARK    1  A    between atoms: C_4  and  C_5
REMARK    2  A    between atoms: C_15  and  O_16
REMARK    3  A    between atoms: C_18  and  O_19
REMARK                            x       y       z     vdW  Elec       q    Type
REMARK                         _______ _______ _______ _____ _____    ______ ____
ROOT
ATOM      1  O   UNL     1       7.717   6.479  16.612  0.00  0.00    +0.000 OA
ATOM      2  C   UNL     1       6.868   5.700  16.242  0.00  0.00    +0.000 C 
ATOM      3  C   UNL     1       5.710   5.180  17.025  0.00  0.00    +0.000 C 
ATOM      4  C   UNL     1       5.448   5.527  18.292  0.00  0.00    +0.000 C 
ATOM      5  O   UNL     1       4.955   4.295  16.265  0.00  0.00    +0.000 OA
ATOM      6  C   UNL     1       5.572   4.232  15.039  0.00  0.00    +0.000 A 
ATOM      7  C   UNL     1       5.132   3.460  13.981  0.00  0.00    +0.000 A 
ATOM      8  C   UNL     1       5.880   3.514  12.806  0.00  0.00    +0.000 A 
ATOM      9  C   UNL     1       7.029   4.314  12.696  0.00  0.00    +0.000 A 
ATOM     10  C   UNL     1       7.452   5.085  13.782  0.00  0.00    +0.000 A 
ATOM     11  C   UNL     1       6.712   5.033  14.946  0.00  0.00    +0.000 A 
ENDROOT
BRANCH   4  12
ATOM     12  C   UNL     1       4.309   4.983  19.032  0.00  0.00    +0.000 A 
ATOM     13  C   UNL     1       3.228   5.812  19.364  0.00  0.00    +0.000 A 
ATOM     14  C   UNL     1       2.160   5.307  20.110  0.00  0.00    +0.000 A 
ATOM     15  C   UNL     1       2.174   3.978  20.515  0.00  0.00    +0.000 A 
ATOM     16  F   UNL     1       1.154   3.498  21.239  0.00  0.00    +0.000 F 
ATOM     17  C   UNL     1       3.233   3.140  20.185  0.00  0.00    +0.000 A 
ATOM     18  C   UNL     1       4.304   3.643  19.442  0.00  0.00    +0.000 A 
ENDBRANCH   4  12
BRANCH   8  19
ATOM     19  O   UNL     1       5.521   2.785  11.709  0.00  0.00    +0.000 OA
ATOM     20  H   UNL     1       4.636   2.408  11.850  0.00  0.00    +0.000 HD
ENDBRANCH   8  19
BRANCH  10  21
ATOM     21  O   UNL     1       8.562   5.864  13.692  0.00  0.00    +0.000 OA
ATOM     22  H   UNL     1       8.705   6.132  12.769  0.00  0.00    +0.000 HD
ENDBRANCH  10  21
TORSDOF 3
ENDMDL
MODEL 2
REMARK VINA RESULT:      -7.7      0.093      1.087
REMARK  Name = 
REMARK  3 active torsions:
REMARK  status: ('A' for Active; 'I' for Inactive)
REMARK    1  A    between atoms: C_4  and  C_5
REMARK    2  A    between atoms: C_15  and  O_16
REMARK    3  A    between atoms: C_18  and  O_19
REMARK                            x       y       z     vdW  Elec       q    Type
REMARK                         _______ _______ _______ _____ _____    ______ ____
ROOT
ATOM      1  O   UNL     1       7.719   6.509  16.593  0.00  0.00    +0.000 OA
ATOM      2  C   UNL     1       6.862   5.733  16.234  0.00  0.00    +0.000 C 
ATOM      3  C   UNL     1       5.701   5.234  17.026  0.00  0.00    +0.000 C 
ATOM      4  C   UNL     1       5.445   5.599  18.289  0.00  0.00    +0.000 C 
ATOM      5  O   UNL     1       4.935   4.347  16.279  0.00  0.00    +0.000 OA
ATOM      6  C   UNL     1       5.549   4.263  15.052  0.00  0.00    +0.000 A 
ATOM      7  C   UNL     1       5.099   3.482  14.005  0.00  0.00    +0.000 A 
ATOM      8  C   UNL     1       5.845   3.514  12.828  0.00  0.00    +0.000 A 
ATOM      9  C   UNL     1       7.001   4.301  12.706  0.00  0.00    +0.000 A 
ATOM     10  C   UNL     1       7.434   5.082  13.781  0.00  0.00    +0.000 A 
ATOM     11  C   UNL     1       6.696   5.052  14.947  0.00  0.00    +0.000 A 
ENDROOT
BRANCH   4  12
ATOM     12  C   UNL     1       4.302   5.074  19.038  0.00  0.00    +0.000 A 
ATOM     13  C   UNL     1       4.281   3.729  19.432  0.00  0.00    +0.000 A 
ATOM     14  C   UNL     1       3.172   3.213  20.107  0.00  0.00    +0.000 A 
ATOM     15  C   UNL     1       2.093   4.043  20.389  0.00  0.00    +0.000 A 
ATOM     16  F   UNL     1       1.026   3.545  21.028  0.00  0.00    +0.000 F 
ATOM     17  C   UNL     1       2.104   5.382  20.014  0.00  0.00    +0.000 A 
ATOM     18  C   UNL     1       3.210   5.900  19.336  0.00  0.00    +0.000 A 
ENDBRANCH   4  12
BRANCH   8  19
ATOM     19  O   UNL     1       5.476   2.775  11.741  0.00  0.00    +0.000 OA
ATOM     20  H   UNL     1       4.554   2.486  11.847  0.00  0.00    +0.000 HD
ENDBRANCH   8  19
BRANCH  10  21
ATOM     21  O   UNL     1       8.551   5.850  13.678  0.00  0.00    +0.000 OA
ATOM     22  H   UNL     1       9.280   5.325  13.308  0.00  0.00    +0.000 HD
ENDBRANCH  10  21
TORSDOF 3
ENDMDL
MODEL 3
REMARK VINA RESULT:      -7.5      4.913      7.897
REMARK  Name = 
REMARK  3 active torsions:
REMARK  status: ('A' for Active; 'I' for Inactive)
REMARK    1  A    between atoms: C_4  and  C_5
REMARK    2  A    between atoms: C_15  and  O_16
REMARK    3  A    between atoms: C_18  and  O_19
REMARK                            x       y       z     vdW  Elec       q    Type
REMARK                         _______ _______ _______ _____ _____    ______ ____
ROOT
ATOM      1  O   UNL     1       1.963   9.666  17.387  0.00  0.00    +0.000 OA
ATOM      2  C   UNL     1       1.823   9.104  18.450  0.00  0.00    +0.000 C 
ATOM      3  C   UNL     1       2.204   7.704  18.793  0.00  0.00    +0.000 C 
ATOM      4  C   UNL     1       2.777   6.852  17.932  0.00  0.00    +0.000 C 
ATOM      5  O   UNL     1       1.883   7.411  20.113  0.00  0.00    +0.000 OA
ATOM      6  C   UNL     1       1.323   8.557  20.626  0.00  0.00    +0.000 A 
ATOM      7  C   UNL     1       0.866   8.691  21.922  0.00  0.00    +0.000 A 
ATOM      8  C   UNL     1       0.324   9.925  22.276  0.00  0.00    +0.000 A 
ATOM      9  C   UNL     1       0.244  10.988  21.361  0.00  0.00    +0.000 A 
ATOM     10  C   UNL     1       0.713  10.825  20.055  0.00  0.00    +0.000 A 
ATOM     11  C   UNL     1       1.251   9.603  19.704  0.00  0.00    +0.000 A 
ENDROOT
BRANCH   4  12
ATOM     12  C   UNL     1       3.122   5.479  18.303  0.00  0.00    +0.000 A 
ATOM     13  C   UNL     1       4.333   5.213  18.956  0.00  0.00    +0.000 A 
ATOM     14  C   UNL     1       4.687   3.899  19.271  0.00  0.00    +0.000 A 
ATOM     15  C   UNL     1       3.828   2.858  18.937  0.00  0.00    +0.000 A 
ATOM     16  F   UNL     1       4.173   1.597  19.230  0.00  0.00    +0.000 F 
ATOM     17  C   UNL     1       2.618   3.107  18.298  0.00  0.00    +0.000 A 
ATOM     18  C   UNL     1       2.263   4.420  17.979  0.00  0.00    +0.000 A 
ENDBRANCH   4  12
BRANCH   8  19
ATOM     19  O   UNL     1      -0.153  10.150  23.535  0.00  0.00    +0.000 OA
ATOM     20  H   UNL     1      -1.125  10.132  23.519  0.00  0.00    +0.000 HD
ENDBRANCH   8  19
BRANCH  10  21
ATOM     21  O   UNL     1       0.643  11.843  19.158  0.00  0.00    +0.000 OA
ATOM     22  H   UNL     1       0.181  11.547  18.356  0.00  0.00    +0.000 HD
ENDBRANCH  10  21
TORSDOF 3
ENDMDL
MODEL 4
REMARK VINA RESULT:      -7.4      4.892      7.894
REMARK  Name = 
REMARK  3 active torsions:
REMARK  status: ('A' for Active; 'I' for Inactive)
REMARK    1  A    between atoms: C_4  and  C_5
REMARK    2  A    between atoms: C_15  and  O_16
REMARK    3  A    between atoms: C_18  and  O_19
REMARK                            x       y       z     vdW  Elec       q    Type
REMARK                         _______ _______ _______ _____ _____    ______ ____
ROOT
ATOM      1  O   UNL     1       1.936   9.710  17.408  0.00  0.00    +0.000 OA
ATOM      2  C   UNL     1       1.819   9.132  18.466  0.00  0.00    +0.000 C 
ATOM      3  C   UNL     1       2.234   7.736  18.787  0.00  0.00    +0.000 C 
ATOM      4  C   UNL     1       2.817   6.908  17.910  0.00  0.00    +0.000 C 
ATOM      5  O   UNL     1       1.932   7.420  20.106  0.00  0.00    +0.000 OA
ATOM      6  C   UNL     1       1.352   8.547  20.639  0.00  0.00    +0.000 A 
ATOM      7  C   UNL     1       0.905   8.655  21.941  0.00  0.00    +0.000 A 
ATOM      8  C   UNL     1       0.340   9.872  22.316  0.00  0.00    +0.000 A 
ATOM      9  C   UNL     1       0.227  10.944  21.415  0.00  0.00    +0.000 A 
ATOM     10  C   UNL     1       0.688  10.808  20.103  0.00  0.00    +0.000 A 
ATOM     11  C   UNL     1       1.248   9.602  19.731  0.00  0.00    +0.000 A 
ENDROOT
BRANCH   4  12
ATOM     12  C   UNL     1       3.195   5.538  18.260  0.00  0.00    +0.000 A 
ATOM     13  C   UNL     1       2.317   4.479  17.995  0.00  0.00    +0.000 A 
ATOM     14  C   UNL     1       2.655   3.176  18.369  0.00  0.00    +0.000 A 
ATOM     15  C   UNL     1       3.869   2.938  19.003  0.00  0.00    +0.000 A 
ATOM     16  F   UNL     1       4.187   1.689  19.370  0.00  0.00    +0.000 F 
ATOM     17  C   UNL     1       4.755   3.976  19.264  0.00  0.00    +0.000 A 
ATOM     18  C   UNL     1       4.419   5.281  18.893  0.00  0.00    +0.000 A 
ENDBRANCH   4  12
BRANCH   8  19
ATOM     19  O   UNL     1      -0.129  10.071  23.582  0.00  0.00    +0.000 OA
ATOM     20  H   UNL     1       0.428   9.582  24.211  0.00  0.00    +0.000 HD
ENDBRANCH   8  19
BRANCH  10  21
ATOM     21  O   UNL     1       0.586  11.836  19.219  0.00  0.00    +0.000 OA
ATOM     22  H   UNL     1       0.092  12.570  19.621  0.00  0.00    +0.000 HD
ENDBRANCH  10  21
TORSDOF 3
ENDMDL
MODEL 5
REMARK VINA RESULT:      -7.4      3.777      5.617
REMARK  Name = 
REMARK  3 active torsions:
REMARK  status: ('A' for Active; 'I' for Inactive)
REMARK    1  A    between atoms: C_4  and  C_5
REMARK    2  A    between atoms: C_15  and  O_16
REMARK    3  A    between atoms: C_18  and  O_19
REMARK                            x       y       z     vdW  Elec       q    Type
REMARK                         _______ _______ _______ _____ _____    ______ ____
ROOT
ATOM      1  O   UNL     1       4.966   6.524  16.849  0.00  0.00    +0.000 OA
ATOM      2  C   UNL     1       3.989   6.098  17.424  0.00  0.00    +0.000 C 
ATOM      3  C   UNL     1       2.872   6.885  18.020  0.00  0.00    +0.000 C 
ATOM      4  C   UNL     1       2.803   8.223  17.992  0.00  0.00    +0.000 C 
ATOM      5  O   UNL     1       1.930   6.047  18.603  0.00  0.00    +0.000 OA
ATOM      6  C   UNL     1       2.390   4.767  18.401  0.00  0.00    +0.000 A 
ATOM      7  C   UNL     1       1.739   3.626  18.827  0.00  0.00    +0.000 A 
ATOM      8  C   UNL     1       2.349   2.407  18.539  0.00  0.00    +0.000 A 
ATOM      9  C   UNL     1       3.569   2.334  17.847  0.00  0.00    +0.000 A 
ATOM     10  C   UNL     1       4.207   3.505  17.428  0.00  0.00    +0.000 A 
ATOM     11  C   UNL     1       3.604   4.714  17.713  0.00  0.00    +0.000 A 
ENDROOT
BRANCH   4  12
ATOM     12  C   UNL     1       1.696   8.960  18.604  0.00  0.00    +0.000 A 
ATOM     13  C   UNL     1       1.523   8.939  19.995  0.00  0.00    +0.000 A 
ATOM     14  C   UNL     1       0.442   9.604  20.578  0.00  0.00    +0.000 A 
ATOM     15  C   UNL     1      -0.458  10.289  19.770  0.00  0.00    +0.000 A 
ATOM     16  F   UNL     1      -1.501  10.918  20.330  0.00  0.00    +0.000 F 
ATOM     17  C   UNL     1      -0.295  10.329  18.391  0.00  0.00    +0.000 A 
ATOM     18  C   UNL     1       0.784   9.662  17.804  0.00  0.00    +0.000 A 
ENDBRANCH   4  12
BRANCH   8  19
ATOM     19  O   UNL     1       1.778   1.227  18.920  0.00  0.00    +0.000 OA
ATOM     20  H   UNL     1       0.849   1.383  19.163  0.00  0.00    +0.000 HD
ENDBRANCH   8  19
BRANCH  10  21
ATOM     21  O   UNL     1       5.388   3.452  16.757  0.00  0.00    +0.000 OA
ATOM     22  H   UNL     1       5.486   2.586  16.328  0.00  0.00    +0.000 HD
ENDBRANCH  10  21
TORSDOF 3
ENDMDL
MODEL 6
REMARK VINA RESULT:      -7.4      3.881      5.617
REMARK  Name = 
REMARK  3 active torsions:
REMARK  status: ('A' for Active; 'I' for Inactive)
REMARK    1  A    between atoms: C_4  and  C_5
REMARK    2  A    between atoms: C_15  and  O_16
REMARK    3  A    between atoms: C_18  and  O_19
REMARK                            x       y       z     vdW  Elec       q    Type
REMARK                         _______ _______ _______ _____ _____    ______ ____
ROOT
ATOM      1  O   UNL     1       5.038   6.755  17.053  0.00  0.00    +0.000 OA
ATOM      2  C   UNL     1       4.029   6.284  17.528  0.00  0.00    +0.000 C 
ATOM      3  C   UNL     1       2.837   7.021  18.039  0.00  0.00    +0.000 C 
ATOM      4  C   UNL     1       2.725   8.356  18.035  0.00  0.00    +0.000 C 
ATOM      5  O   UNL     1       1.876   6.138  18.517  0.00  0.00    +0.000 OA
ATOM      6  C   UNL     1       2.395   4.880  18.328  0.00  0.00    +0.000 A 
ATOM      7  C   UNL     1       1.747   3.708  18.668  0.00  0.00    +0.000 A 
ATOM      8  C   UNL     1       2.421   2.516  18.409  0.00  0.00    +0.000 A 
ATOM      9  C   UNL     1       3.699   2.500  17.828  0.00  0.00    +0.000 A 
ATOM     10  C   UNL     1       4.332   3.700  17.494  0.00  0.00    +0.000 A 
ATOM     11  C   UNL     1       3.666   4.882  17.750  0.00  0.00    +0.000 A 
ENDROOT
BRANCH   4  12
ATOM     12  C   UNL     1       1.544   9.042  18.561  0.00  0.00    +0.000 A 
ATOM     13  C   UNL     1       0.588   9.565  17.680  0.00  0.00    +0.000 A 
ATOM     14  C   UNL     1      -0.518  10.261  18.176  0.00  0.00    +0.000 A 
ATOM     15  C   UNL     1      -0.664  10.427  19.548  0.00  0.00    +0.000 A 
ATOM     16  F   UNL     1      -1.719  11.103  20.023  0.00  0.00    +0.000 F 
ATOM     17  C   UNL     1       0.271   9.906  20.436  0.00  0.00    +0.000 A 
ATOM     18  C   UNL     1       1.379   9.212  19.942  0.00  0.00    +0.000 A 
ENDBRANCH   4  12
BRANCH   8  19
ATOM     19  O   UNL     1       1.859   1.310  18.711  0.00  0.00    +0.000 OA
ATOM     20  H   UNL     1       0.894   1.367  18.598  0.00  0.00    +0.000 HD
ENDBRANCH   8  19
BRANCH  10  21
ATOM     21  O   UNL     1       5.569   3.702  16.931  0.00  0.00    +0.000 OA
ATOM     22  H   UNL     1       5.493   3.758  15.964  0.00  0.00    +0.000 HD
ENDBRANCH  10  21
TORSDOF 3
ENDMDL
MODEL 7
REMARK VINA RESULT:      -7.4      4.435      6.674
REMARK  Name = 
REMARK  3 active torsions:
REMARK  status: ('A' for Active; 'I' for Inactive)
REMARK    1  A    between atoms: C_4  and  C_5
REMARK    2  A    between atoms: C_15  and  O_16
REMARK    3  A    between atoms: C_18  and  O_19
REMARK                            x       y       z     vdW  Elec       q    Type
REMARK                         _______ _______ _______ _____ _____    ______ ____
ROOT
ATOM      1  O   UNL     1       4.707   6.083  17.799  0.00  0.00    +0.000 OA
ATOM      2  C   UNL     1       3.813   5.895  18.594  0.00  0.00    +0.000 C 
ATOM      3  C   UNL     1       2.704   6.827  18.948  0.00  0.00    +0.000 C 
ATOM      4  C   UNL     1       2.546   8.042  18.406  0.00  0.00    +0.000 C 
ATOM      5  O   UNL     1       1.871   6.265  19.908  0.00  0.00    +0.000 OA
ATOM      6  C   UNL     1       2.393   5.022  20.176  0.00  0.00    +0.000 A 
ATOM      7  C   UNL     1       1.855   4.127  21.080  0.00  0.00    +0.000 A 
ATOM      8  C   UNL     1       2.515   2.908  21.231  0.00  0.00    +0.000 A 
ATOM      9  C   UNL     1       3.673   2.598  20.499  0.00  0.00    +0.000 A 
ATOM     10  C   UNL     1       4.196   3.523  19.590  0.00  0.00    +0.000 A 
ATOM     11  C   UNL     1       3.543   4.730  19.441  0.00  0.00    +0.000 A 
ENDROOT
BRANCH   4  12
ATOM     12  C   UNL     1       1.451   8.934  18.792  0.00  0.00    +0.000 A 
ATOM     13  C   UNL     1       1.203   9.192  20.148  0.00  0.00    +0.000 A 
ATOM     14  C   UNL     1       0.131  10.006  20.522  0.00  0.00    +0.000 A 
ATOM     15  C   UNL     1      -0.684  10.560  19.542  0.00  0.00    +0.000 A 
ATOM     16  F   UNL     1      -1.718  11.333  19.902  0.00  0.00    +0.000 F 
ATOM     17  C   UNL     1      -0.445  10.322  18.193  0.00  0.00    +0.000 A 
ATOM     18  C   UNL     1       0.625   9.506  17.816  0.00  0.00    +0.000 A 
ENDBRANCH   4  12
BRANCH   8  19
ATOM     19  O   UNL     1       2.056   1.963  22.101  0.00  0.00    +0.000 OA
ATOM     20  H   UNL     1       2.465   2.103  22.973  0.00  0.00    +0.000 HD
ENDBRANCH   8  19
BRANCH  10  21
ATOM     21  O   UNL     1       5.315   3.238  18.874  0.00  0.00    +0.000 OA
ATOM     22  H   UNL     1       6.052   3.796  19.176  0.00  0.00    +0.000 HD
ENDBRANCH  10  21
TORSDOF 3
ENDMDL
MODEL 8
REMARK VINA RESULT:      -7.4      3.542      7.047
REMARK  Name = 
REMARK  3 active torsions:
REMARK  status: ('A' for Active; 'I' for Inactive)
REMARK    1  A    between atoms: C_4  and  C_5
REMARK    2  A    between atoms: C_15  and  O_16
REMARK    3  A    between atoms: C_18  and  O_19
REMARK                            x       y       z     vdW  Elec       q    Type
REMARK                         _______ _______ _______ _____ _____    ______ ____
ROOT
ATOM      1  O   UNL     1       4.338   3.455  19.272  0.00  0.00    +0.000 OA
ATOM      2  C   UNL     1       4.172   4.435  18.581  0.00  0.00    +0.000 C 
ATOM      3  C   UNL     1       4.708   4.681  17.211  0.00  0.00    +0.000 C 
ATOM      4  C   UNL     1       5.474   3.810  16.540  0.00  0.00    +0.000 C 
ATOM      5  O   UNL     1       4.310   5.925  16.738  0.00  0.00    +0.000 OA
ATOM      6  C   UNL     1       3.543   6.478  17.736  0.00  0.00    +0.000 A 
ATOM      7  C   UNL     1       2.944   7.721  17.664  0.00  0.00    +0.000 A 
ATOM      8  C   UNL     1       2.201   8.128  18.770  0.00  0.00    +0.000 A 
ATOM      9  C   UNL     1       2.062   7.317  19.908  0.00  0.00    +0.000 A 
ATOM     10  C   UNL     1       2.679   6.063  19.954  0.00  0.00    +0.000 A 
ATOM     11  C   UNL     1       3.415   5.659  18.859  0.00  0.00    +0.000 A 
ENDROOT
BRANCH   4  12
ATOM     12  C   UNL     1       5.995   4.096  15.203  0.00  0.00    +0.000 A 
ATOM     13  C   UNL     1       5.399   3.506  14.079  0.00  0.00    +0.000 A 
ATOM     14  C   UNL     1       5.921   3.741  12.804  0.00  0.00    +0.000 A 
ATOM     15  C   UNL     1       7.032   4.564  12.658  0.00  0.00    +0.000 A 
ATOM     16  F   UNL     1       7.538   4.779  11.437  0.00  0.00    +0.000 F 
ATOM     17  C   UNL     1       7.627   5.163  13.762  0.00  0.00    +0.000 A 
ATOM     18  C   UNL     1       7.109   4.929  15.038  0.00  0.00    +0.000 A 
ENDBRANCH   4  12
BRANCH   8  19
ATOM     19  O   UNL     1       1.573   9.340  18.789  0.00  0.00    +0.000 OA
ATOM     20  H   UNL     1       1.241   9.544  17.898  0.00  0.00    +0.000 HD
ENDBRANCH   8  19
BRANCH  10  21
ATOM     21  O   UNL     1       2.554   5.266  21.048  0.00  0.00    +0.000 OA
ATOM     22  H   UNL     1       2.303   5.801  21.820  0.00  0.00    +0.000 HD
ENDBRANCH  10  21
TORSDOF 3
ENDMDL
MODEL 9
REMARK VINA RESULT:      -7.3      4.491      6.702
REMARK  Name = 
REMARK  3 active torsions:
REMARK  status: ('A' for Active; 'I' for Inactive)
REMARK    1  A    between atoms: C_4  and  C_5
REMARK    2  A    between atoms: C_15  and  O_16
REMARK    3  A    between atoms: C_18  and  O_19
REMARK                            x       y       z     vdW  Elec       q    Type
REMARK                         _______ _______ _______ _____ _____    ______ ____
ROOT
ATOM      1  O   UNL     1       4.623   6.157  17.797  0.00  0.00    +0.000 OA
ATOM      2  C   UNL     1       3.742   5.954  18.603  0.00  0.00    +0.000 C 
ATOM      3  C   UNL     1       2.631   6.874  18.983  0.00  0.00    +0.000 C 
ATOM      4  C   UNL     1       2.457   8.094  18.456  0.00  0.00    +0.000 C 
ATOM      5  O   UNL     1       1.817   6.296  19.949  0.00  0.00    +0.000 OA
ATOM      6  C   UNL     1       2.352   5.054  20.196  0.00  0.00    +0.000 A 
ATOM      7  C   UNL     1       1.834   4.145  21.098  0.00  0.00    +0.000 A 
ATOM      8  C   UNL     1       2.505   2.930  21.226  0.00  0.00    +0.000 A 
ATOM      9  C   UNL     1       3.654   2.636  20.473  0.00  0.00    +0.000 A 
ATOM     10  C   UNL     1       4.157   3.574  19.568  0.00  0.00    +0.000 A 
ATOM     11  C   UNL     1       3.493   4.778  19.440  0.00  0.00    +0.000 A 
ENDROOT
BRANCH   4  12
ATOM     12  C   UNL     1       1.361   8.973  18.868  0.00  0.00    +0.000 A 
ATOM     13  C   UNL     1       0.530   9.555  17.901  0.00  0.00    +0.000 A 
ATOM     14  C   UNL     1      -0.488  10.431  18.287  0.00  0.00    +0.000 A 
ATOM     15  C   UNL     1      -0.673  10.717  19.635  0.00  0.00    +0.000 A 
ATOM     16  F   UNL     1      -1.643  11.565  20.002  0.00  0.00    +0.000 F 
ATOM     17  C   UNL     1       0.137  10.140  20.606  0.00  0.00    +0.000 A 
ATOM     18  C   UNL     1       1.158   9.266  20.223  0.00  0.00    +0.000 A 
ENDBRANCH   4  12
BRANCH   8  19
ATOM     19  O   UNL     1       2.066   1.971  22.092  0.00  0.00    +0.000 OA
ATOM     20  H   UNL     1       1.112   1.832  21.961  0.00  0.00    +0.000 HD
ENDBRANCH   8  19
BRANCH  10  21
ATOM     21  O   UNL     1       5.268   3.306  18.832  0.00  0.00    +0.000 OA
ATOM     22  H   UNL     1       5.608   4.125  18.435  0.00  0.00    +0.000 HD
ENDBRANCH  10  21
TORSDOF 3
ENDMDL
