MODEL 1
REMARK VINA RESULT:      -9.1      0.000      0.000
REMARK  Name = 
REMARK  1 active torsions:
REMARK  status: ('A' for Active; 'I' for Inactive)
REMARK    1  A    between atoms: C_11  and  C_12
REMARK                            x       y       z     vdW  Elec       q    Type
REMARK                         _______ _______ _______ _____ _____    ______ ____
ROOT
ATOM      1  N   UNL     1       7.866   7.741  17.163  0.00  0.00    +0.000 N 
ATOM      2  C   UNL     1       7.767   6.643  17.932  0.00  0.00    +0.000 A 
ATOM      3  N   UNL     1       8.070   6.593  19.229  0.00  0.00    +0.000 NA
ATOM      4  O   UNL     1       7.717   5.312  19.646  0.00  0.00    +0.000 OA
ATOM      5  N   UNL     1       7.146   4.577  18.604  0.00  0.00    +0.000 NA
ATOM      6  C   UNL     1       7.206   5.409  17.565  0.00  0.00    +0.000 A 
ATOM      7  N   UNL     1       6.647   5.068  16.313  0.00  0.00    +0.000 N 
ATOM      8  N   UNL     1       7.187   5.550  15.156  0.00  0.00    +0.000 NA
ATOM      9  N   UNL     1       6.531   5.039  14.133  0.00  0.00    +0.000 NA
ATOM     10  C   UNL     1       5.471   4.351  14.628  0.00  0.00    +0.000 A 
ATOM     11  C   UNL     1       5.470   4.357  16.015  0.00  0.00    +0.000 A 
ATOM     12  H   UNL     1       8.116   8.637  17.567  0.00  0.00    +0.000 HD
ATOM     13  H   UNL     1       7.592   7.762  16.183  0.00  0.00    +0.000 HD
ENDROOT
BRANCH  11  14
ATOM     14  C   UNL     1       4.393   3.965  16.966  0.00  0.00    +0.000 A 
ATOM     15  C   UNL     1       4.197   2.592  17.225  0.00  0.00    +0.000 A 
ATOM     16  C   UNL     1       3.231   2.129  18.109  0.00  0.00    +0.000 A 
ATOM     17  C   UNL     1       2.494   3.041  18.846  0.00  0.00    +0.000 A 
ATOM     18  C   UNL     1       2.706   4.413  18.695  0.00  0.00    +0.000 A 
ATOM     19  C   UNL     1       1.998   5.289  19.540  0.00  0.00    +0.000 A 
ATOM     20  C   UNL     1       2.183   6.667  19.454  0.00  0.00    +0.000 A 
ATOM     21  C   UNL     1       3.029   7.184  18.492  0.00  0.00    +0.000 A 
ATOM     22  C   UNL     1       3.716   6.322  17.626  0.00  0.00    +0.000 A 
ATOM     23  C   UNL     1       3.626   4.910  17.730  0.00  0.00    +0.000 A 
ENDBRANCH  11  14
TORSDOF 1
ENDMDL
MODEL 2
REMARK VINA RESULT:      -8.3      1.286      1.897
REMARK  Name = 
REMARK  1 active torsions:
REMARK  status: ('A' for Active; 'I' for Inactive)
REMARK    1  A    between atoms: C_11  and  C_12
REMARK                            x       y       z     vdW  Elec       q    Type
REMARK                         _______ _______ _______ _____ _____    ______ ____
ROOT
ATOM      1  N   UNL     1       7.688   6.698  16.786  0.00  0.00    +0.000 N 
ATOM      2  C   UNL     1       7.501   6.094  17.973  0.00  0.00    +0.000 A 
ATOM      3  N   UNL     1       8.075   6.470  19.116  0.00  0.00    +0.000 NA
ATOM      4  O   UNL     1       7.522   5.651  20.099  0.00  0.00    +0.000 OA
ATOM      5  N   UNL     1       6.563   4.789  19.561  0.00  0.00    +0.000 NA
ATOM      6  C   UNL     1       6.583   5.070  18.259  0.00  0.00    +0.000 A 
ATOM      7  N   UNL     1       5.683   4.459  17.357  0.00  0.00    +0.000 N 
ATOM      8  N   UNL     1       6.043   4.237  16.059  0.00  0.00    +0.000 NA
ATOM      9  N   UNL     1       5.063   3.602  15.447  0.00  0.00    +0.000 NA
ATOM     10  C   UNL     1       4.010   3.552  16.302  0.00  0.00    +0.000 A 
ATOM     11  C   UNL     1       4.332   4.110  17.531  0.00  0.00    +0.000 A 
ATOM     12  H   UNL     1       8.237   7.547  16.718  0.00  0.00    +0.000 HD
ATOM     13  H   UNL     1       7.208   6.414  15.936  0.00  0.00    +0.000 HD
ENDROOT
BRANCH  11  14
ATOM     14  C   UNL     1       3.442   4.500  18.659  0.00  0.00    +0.000 A 
ATOM     15  C   UNL     1       3.224   3.566  19.693  0.00  0.00    +0.000 A 
ATOM     16  C   UNL     1       2.426   3.845  20.795  0.00  0.00    +0.000 A 
ATOM     17  C   UNL     1       1.899   5.115  20.947  0.00  0.00    +0.000 A 
ATOM     18  C   UNL     1       2.153   6.108  19.997  0.00  0.00    +0.000 A 
ATOM     19  C   UNL     1       1.673   7.406  20.253  0.00  0.00    +0.000 A 
ATOM     20  C   UNL     1       1.912   8.444  19.355  0.00  0.00    +0.000 A 
ATOM     21  C   UNL     1       2.581   8.185  18.174  0.00  0.00    +0.000 A 
ATOM     22  C   UNL     1       3.037   6.889  17.896  0.00  0.00    +0.000 A 
ATOM     23  C   UNL     1       2.892   5.819  18.817  0.00  0.00    +0.000 A 
ENDBRANCH  11  14
TORSDOF 1
ENDMDL
MODEL 3
REMARK VINA RESULT:      -8.2      3.253      5.107
REMARK  Name = 
REMARK  1 active torsions:
REMARK  status: ('A' for Active; 'I' for Inactive)
REMARK    1  A    between atoms: C_11  and  C_12
REMARK                            x       y       z     vdW  Elec       q    Type
REMARK                         _______ _______ _______ _____ _____    ______ ____
ROOT
ATOM      1  N   UNL     1       2.300   5.276  21.285  0.00  0.00    +0.000 N 
ATOM      2  C   UNL     1       2.261   5.872  20.081  0.00  0.00    +0.000 A 
ATOM      3  N   UNL     1       2.150   7.186  19.885  0.00  0.00    +0.000 NA
ATOM      4  O   UNL     1       2.261   7.369  18.508  0.00  0.00    +0.000 OA
ATOM      5  N   UNL     1       2.488   6.157  17.850  0.00  0.00    +0.000 NA
ATOM      6  C   UNL     1       2.465   5.258  18.833  0.00  0.00    +0.000 A 
ATOM      7  N   UNL     1       2.740   3.893  18.593  0.00  0.00    +0.000 N 
ATOM      8  N   UNL     1       2.157   2.922  19.354  0.00  0.00    +0.000 NA
ATOM      9  N   UNL     1       2.519   1.742  18.892  0.00  0.00    +0.000 NA
ATOM     10  C   UNL     1       3.457   1.948  17.932  0.00  0.00    +0.000 A 
ATOM     11  C   UNL     1       3.666   3.302  17.714  0.00  0.00    +0.000 A 
ATOM     12  H   UNL     1       2.324   5.827  22.135  0.00  0.00    +0.000 HD
ATOM     13  H   UNL     1       2.423   4.273  21.407  0.00  0.00    +0.000 HD
ENDROOT
BRANCH  11  14
ATOM     14  C   UNL     1       4.754   3.986  16.964  0.00  0.00    +0.000 A 
ATOM     15  C   UNL     1       4.677   4.021  15.555  0.00  0.00    +0.000 A 
ATOM     16  C   UNL     1       5.633   4.651  14.770  0.00  0.00    +0.000 A 
ATOM     17  C   UNL     1       6.652   5.361  15.381  0.00  0.00    +0.000 A 
ATOM     18  C   UNL     1       6.730   5.435  16.773  0.00  0.00    +0.000 A 
ATOM     19  C   UNL     1       7.729   6.251  17.338  0.00  0.00    +0.000 A 
ATOM     20  C   UNL     1       7.844   6.383  18.720  0.00  0.00    +0.000 A 
ATOM     21  C   UNL     1       7.004   5.664  19.548  0.00  0.00    +0.000 A 
ATOM     22  C   UNL     1       6.026   4.825  18.996  0.00  0.00    +0.000 A 
ATOM     23  C   UNL     1       5.814   4.723  17.597  0.00  0.00    +0.000 A 
ENDBRANCH  11  14
TORSDOF 1
ENDMDL
MODEL 4
REMARK VINA RESULT:      -8.1      3.406      5.580
REMARK  Name = 
REMARK  1 active torsions:
REMARK  status: ('A' for Active; 'I' for Inactive)
REMARK    1  A    between atoms: C_11  and  C_12
REMARK                            x       y       z     vdW  Elec       q    Type
REMARK                         _______ _______ _______ _____ _____    ______ ____
ROOT
ATOM      1  N   UNL     1       1.600   7.256  21.222  0.00  0.00    +0.000 N 
ATOM      2  C   UNL     1       1.938   7.378  19.926  0.00  0.00    +0.000 A 
ATOM      3  N   UNL     1       1.882   8.512  19.229  0.00  0.00    +0.000 NA
ATOM      4  O   UNL     1       2.422   8.211  17.980  0.00  0.00    +0.000 OA
ATOM      5  N   UNL     1       2.858   6.884  17.922  0.00  0.00    +0.000 NA
ATOM      6  C   UNL     1       2.535   6.395  19.118  0.00  0.00    +0.000 A 
ATOM      7  N   UNL     1       2.885   5.080  19.499  0.00  0.00    +0.000 N 
ATOM      8  N   UNL     1       2.102   4.375  20.364  0.00  0.00    +0.000 NA
ATOM      9  N   UNL     1       2.605   3.164  20.506  0.00  0.00    +0.000 NA
ATOM     10  C   UNL     1       3.796   3.137  19.856  0.00  0.00    +0.000 A 
ATOM     11  C   UNL     1       4.049   4.342  19.216  0.00  0.00    +0.000 A 
ATOM     12  H   UNL     1       1.347   8.070  21.770  0.00  0.00    +0.000 HD
ATOM     13  H   UNL     1       1.689   6.386  21.741  0.00  0.00    +0.000 HD
ENDROOT
BRANCH  11  14
ATOM     14  C   UNL     1       5.312   4.850  18.614  0.00  0.00    +0.000 A 
ATOM     15  C   UNL     1       6.301   5.370  19.475  0.00  0.00    +0.000 A 
ATOM     16  C   UNL     1       7.518   5.851  19.010  0.00  0.00    +0.000 A 
ATOM     17  C   UNL     1       7.826   5.730  17.666  0.00  0.00    +0.000 A 
ATOM     18  C   UNL     1       6.920   5.144  16.779  0.00  0.00    +0.000 A 
ATOM     19  C   UNL     1       7.325   4.958  15.444  0.00  0.00    +0.000 A 
ATOM     20  C   UNL     1       6.475   4.359  14.518  0.00  0.00    +0.000 A 
ATOM     21  C   UNL     1       5.199   3.992  14.899  0.00  0.00    +0.000 A 
ATOM     22  C   UNL     1       4.774   4.199  16.219  0.00  0.00    +0.000 A 
ATOM     23  C   UNL     1       5.632   4.727  17.219  0.00  0.00    +0.000 A 
ENDBRANCH  11  14
TORSDOF 1
ENDMDL
MODEL 5
REMARK VINA RESULT:      -8.0      1.476      2.819
REMARK  Name = 
REMARK  1 active torsions:
REMARK  status: ('A' for Active; 'I' for Inactive)
REMARK    1  A    between atoms: C_11  and  C_12
REMARK                            x       y       z     vdW  Elec       q    Type
REMARK                         _______ _______ _______ _____ _____    ______ ____
ROOT
ATOM      1  N   UNL     1       8.304   7.427  18.597  0.00  0.00    +0.000 N 
ATOM      2  C   UNL     1       7.773   6.279  19.052  0.00  0.00    +0.000 A 
ATOM      3  N   UNL     1       8.163   5.645  20.158  0.00  0.00    +0.000 NA
ATOM      4  O   UNL     1       7.281   4.578  20.308  0.00  0.00    +0.000 OA
ATOM      5  N   UNL     1       6.306   4.579  19.307  0.00  0.00    +0.000 NA
ATOM      6  C   UNL     1       6.641   5.619  18.545  0.00  0.00    +0.000 A 
ATOM      7  N   UNL     1       5.844   6.019  17.449  0.00  0.00    +0.000 N 
ATOM      8  N   UNL     1       6.410   6.607  16.355  0.00  0.00    +0.000 NA
ATOM      9  N   UNL     1       5.472   6.824  15.454  0.00  0.00    +0.000 NA
ATOM     10  C   UNL     1       4.278   6.520  16.023  0.00  0.00    +0.000 A 
ATOM     11  C   UNL     1       4.444   6.029  17.310  0.00  0.00    +0.000 A 
ATOM     12  H   UNL     1       9.005   7.923  19.136  0.00  0.00    +0.000 HD
ATOM     13  H   UNL     1       7.961   7.911  17.771  0.00  0.00    +0.000 HD
ENDROOT
BRANCH  11  14
ATOM     14  C   UNL     1       3.433   5.817  18.383  0.00  0.00    +0.000 A 
ATOM     15  C   UNL     1       3.048   6.923  19.168  0.00  0.00    +0.000 A 
ATOM     16  C   UNL     1       2.100   6.828  20.179  0.00  0.00    +0.000 A 
ATOM     17  C   UNL     1       1.428   5.633  20.368  0.00  0.00    +0.000 A 
ATOM     18  C   UNL     1       1.706   4.527  19.563  0.00  0.00    +0.000 A 
ATOM     19  C   UNL     1       0.924   3.369  19.735  0.00  0.00    +0.000 A 
ATOM     20  C   UNL     1       1.139   2.240  18.947  0.00  0.00    +0.000 A 
ATOM     21  C   UNL     1       2.165   2.237  18.023  0.00  0.00    +0.000 A 
ATOM     22  C   UNL     1       2.969   3.374  17.864  0.00  0.00    +0.000 A 
ATOM     23  C   UNL     1       2.736   4.576  18.582  0.00  0.00    +0.000 A 
ENDBRANCH  11  14
TORSDOF 1
ENDMDL
MODEL 6
REMARK VINA RESULT:      -7.9      1.180      2.743
REMARK  Name = 
REMARK  1 active torsions:
REMARK  status: ('A' for Active; 'I' for Inactive)
REMARK    1  A    between atoms: C_11  and  C_12
REMARK                            x       y       z     vdW  Elec       q    Type
REMARK                         _______ _______ _______ _____ _____    ______ ____
ROOT
ATOM      1  N   UNL     1       7.958   7.124  16.817  0.00  0.00    +0.000 N 
ATOM      2  C   UNL     1       7.692   6.473  17.963  0.00  0.00    +0.000 A 
ATOM      3  N   UNL     1       8.254   6.746  19.141  0.00  0.00    +0.000 NA
ATOM      4  O   UNL     1       7.614   5.917  20.061  0.00  0.00    +0.000 OA
ATOM      5  N   UNL     1       6.615   5.155  19.450  0.00  0.00    +0.000 NA
ATOM      6  C   UNL     1       6.696   5.503  18.166  0.00  0.00    +0.000 A 
ATOM      7  N   UNL     1       5.785   5.007  17.207  0.00  0.00    +0.000 N 
ATOM      8  N   UNL     1       6.170   4.828  15.910  0.00  0.00    +0.000 NA
ATOM      9  N   UNL     1       5.167   4.299  15.237  0.00  0.00    +0.000 NA
ATOM     10  C   UNL     1       4.087   4.278  16.058  0.00  0.00    +0.000 A 
ATOM     11  C   UNL     1       4.408   4.746  17.324  0.00  0.00    +0.000 A 
ATOM     12  H   UNL     1       8.567   7.934  16.811  0.00  0.00    +0.000 HD
ATOM     13  H   UNL     1       7.486   6.920  15.939  0.00  0.00    +0.000 HD
ENDROOT
BRANCH  11  14
ATOM     14  C   UNL     1       3.512   5.139  18.446  0.00  0.00    +0.000 A 
ATOM     15  C   UNL     1       3.189   6.503  18.599  0.00  0.00    +0.000 A 
ATOM     16  C   UNL     1       2.347   6.964  19.603  0.00  0.00    +0.000 A 
ATOM     17  C   UNL     1       1.715   6.051  20.430  0.00  0.00    +0.000 A 
ATOM     18  C   UNL     1       1.929   4.681  20.270  0.00  0.00    +0.000 A 
ATOM     19  C   UNL     1       1.186   3.796  21.074  0.00  0.00    +0.000 A 
ATOM     20  C   UNL     1       1.338   2.417  20.946  0.00  0.00    +0.000 A 
ATOM     21  C   UNL     1       2.268   1.912  20.058  0.00  0.00    +0.000 A 
ATOM     22  C   UNL     1       3.035   2.785  19.274  0.00  0.00    +0.000 A 
ATOM     23  C   UNL     1       2.856   4.192  19.307  0.00  0.00    +0.000 A 
ENDBRANCH  11  14
TORSDOF 1
ENDMDL
MODEL 7
REMARK VINA RESULT:      -7.7      1.056      2.555
REMARK  Name = 
REMARK  1 active torsions:
REMARK  status: ('A' for Active; 'I' for Inactive)
REMARK    1  A    between atoms: C_11  and  C_12
REMARK                            x       y       z     vdW  Elec       q    Type
REMARK                         _______ _______ _______ _____ _____    ______ ____
ROOT
ATOM      1  N   UNL     1       8.592   7.250  18.454  0.00  0.00    +0.000 N 
ATOM      2  C   UNL     1       7.934   6.226  19.025  0.00  0.00    +0.000 A 
ATOM      3  N   UNL     1       8.011   5.896  20.314  0.00  0.00    +0.000 NA
ATOM      4  O   UNL     1       7.094   4.862  20.490  0.00  0.00    +0.000 OA
ATOM      5  N   UNL     1       6.410   4.581  19.304  0.00  0.00    +0.000 NA
ATOM      6  C   UNL     1       6.955   5.417  18.422  0.00  0.00    +0.000 A 
ATOM      7  N   UNL     1       6.477   5.508  17.096  0.00  0.00    +0.000 N 
ATOM      8  N   UNL     1       7.320   5.835  16.074  0.00  0.00    +0.000 NA
ATOM      9  N   UNL     1       6.652   5.788  14.938  0.00  0.00    +0.000 NA
ATOM     10  C   UNL     1       5.344   5.584  15.240  0.00  0.00    +0.000 A 
ATOM     11  C   UNL     1       5.161   5.427  16.606  0.00  0.00    +0.000 A 
ATOM     12  H   UNL     1       9.142   7.890  19.016  0.00  0.00    +0.000 HD
ATOM     13  H   UNL     1       8.485   7.505  17.475  0.00  0.00    +0.000 HD
ENDROOT
BRANCH  11  14
ATOM     14  C   UNL     1       3.904   5.440  17.403  0.00  0.00    +0.000 A 
ATOM     15  C   UNL     1       3.286   6.682  17.658  0.00  0.00    +0.000 A 
ATOM     16  C   UNL     1       2.102   6.794  18.375  0.00  0.00    +0.000 A 
ATOM     17  C   UNL     1       1.440   5.646  18.775  0.00  0.00    +0.000 A 
ATOM     18  C   UNL     1       1.960   4.385  18.475  0.00  0.00    +0.000 A 
ATOM     19  C   UNL     1       1.196   3.255  18.820  0.00  0.00    +0.000 A 
ATOM     20  C   UNL     1       1.650   1.971  18.527  0.00  0.00    +0.000 A 
ATOM     21  C   UNL     1       2.889   1.802  17.940  0.00  0.00    +0.000 A 
ATOM     22  C   UNL     1       3.672   2.920  17.620  0.00  0.00    +0.000 A 
ATOM     23  C   UNL     1       3.216   4.249  17.820  0.00  0.00    +0.000 A 
ENDBRANCH  11  14
TORSDOF 1
ENDMDL
MODEL 8
REMARK VINA RESULT:      -7.6      3.272      4.961
REMARK  Name = 
REMARK  1 active torsions:
REMARK  status: ('A' for Active; 'I' for Inactive)
REMARK    1  A    between atoms: C_11  and  C_12
REMARK                            x       y       z     vdW  Elec       q    Type
REMARK                         _______ _______ _______ _____ _____    ______ ____
ROOT
ATOM      1  N   UNL     1       4.107   1.867  18.096  0.00  0.00    +0.000 N 
ATOM      2  C   UNL     1       2.881   2.405  17.978  0.00  0.00    +0.000 A 
ATOM      3  N   UNL     1       1.743   1.777  18.272  0.00  0.00    +0.000 NA
ATOM      4  O   UNL     1       0.738   2.729  18.113  0.00  0.00    +0.000 OA
ATOM      5  N   UNL     1       1.268   3.973  17.760  0.00  0.00    +0.000 NA
ATOM      6  C   UNL     1       2.577   3.742  17.668  0.00  0.00    +0.000 A 
ATOM      7  N   UNL     1       3.495   4.783  17.405  0.00  0.00    +0.000 N 
ATOM      8  N   UNL     1       4.652   4.535  16.726  0.00  0.00    +0.000 NA
ATOM      9  N   UNL     1       5.298   5.671  16.554  0.00  0.00    +0.000 NA
ATOM     10  C   UNL     1       4.638   6.628  17.255  0.00  0.00    +0.000 A 
ATOM     11  C   UNL     1       3.492   6.118  17.848  0.00  0.00    +0.000 A 
ATOM     12  H   UNL     1       4.232   0.946  18.501  0.00  0.00    +0.000 HD
ATOM     13  H   UNL     1       4.963   2.382  17.901  0.00  0.00    +0.000 HD
ENDROOT
BRANCH  11  14
ATOM     14  C   UNL     1       2.619   6.716  18.895  0.00  0.00    +0.000 A 
ATOM     15  C   UNL     1       2.388   5.978  20.075  0.00  0.00    +0.000 A 
ATOM     16  C   UNL     1       1.604   6.459  21.115  0.00  0.00    +0.000 A 
ATOM     17  C   UNL     1       1.106   7.748  21.049  0.00  0.00    +0.000 A 
ATOM     18  C   UNL     1       1.375   8.558  19.943  0.00  0.00    +0.000 A 
ATOM     19  C   UNL     1       0.926   9.892  19.974  0.00  0.00    +0.000 A 
ATOM     20  C   UNL     1       1.182  10.755  18.911  0.00  0.00    +0.000 A 
ATOM     21  C   UNL     1       1.837  10.283  17.790  0.00  0.00    +0.000 A 
ATOM     22  C   UNL     1       2.262   8.948  17.736  0.00  0.00    +0.000 A 
ATOM     23  C   UNL     1       2.100   8.054  18.827  0.00  0.00    +0.000 A 
ENDBRANCH  11  14
TORSDOF 1
ENDMDL
MODEL 9
REMARK VINA RESULT:      -7.5      3.261      5.453
REMARK  Name = 
REMARK  1 active torsions:
REMARK  status: ('A' for Active; 'I' for Inactive)
REMARK    1  A    between atoms: C_11  and  C_12
REMARK                            x       y       z     vdW  Elec       q    Type
REMARK                         _______ _______ _______ _____ _____    ______ ____
ROOT
ATOM      1  N   UNL     1       1.705   5.484  21.185  0.00  0.00    +0.000 N 
ATOM      2  C   UNL     1       2.036   6.153  20.067  0.00  0.00    +0.000 A 
ATOM      3  N   UNL     1       2.085   7.481  19.962  0.00  0.00    +0.000 NA
ATOM      4  O   UNL     1       2.574   7.737  18.682  0.00  0.00    +0.000 OA
ATOM      5  N   UNL     1       2.872   6.551  18.006  0.00  0.00    +0.000 NA
ATOM      6  C   UNL     1       2.518   5.600  18.869  0.00  0.00    +0.000 A 
ATOM      7  N   UNL     1       2.738   4.232  18.593  0.00  0.00    +0.000 N 
ATOM      8  N   UNL     1       1.899   3.278  19.091  0.00  0.00    +0.000 NA
ATOM      9  N   UNL     1       2.279   2.099  18.641  0.00  0.00    +0.000 NA
ATOM     10  C   UNL     1       3.452   2.270  17.980  0.00  0.00    +0.000 A 
ATOM     11  C   UNL     1       3.817   3.608  17.940  0.00  0.00    +0.000 A 
ATOM     12  H   UNL     1       1.544   5.977  22.056  0.00  0.00    +0.000 HD
ATOM     13  H   UNL     1       1.712   4.469  21.249  0.00  0.00    +0.000 HD
ENDROOT
BRANCH  11  14
ATOM     14  C   UNL     1       5.116   4.227  17.560  0.00  0.00    +0.000 A 
ATOM     15  C   UNL     1       5.999   4.615  18.589  0.00  0.00    +0.000 A 
ATOM     16  C   UNL     1       7.241   5.182  18.334  0.00  0.00    +0.000 A 
ATOM     17  C   UNL     1       7.683   5.286  17.027  0.00  0.00    +0.000 A 
ATOM     18  C   UNL     1       6.887   4.838  15.970  0.00  0.00    +0.000 A 
ATOM     19  C   UNL     1       7.428   4.878  14.671  0.00  0.00    +0.000 A 
ATOM     20  C   UNL     1       6.692   4.425  13.578  0.00  0.00    +0.000 A 
ATOM     21  C   UNL     1       5.397   3.982  13.763  0.00  0.00    +0.000 A 
ATOM     22  C   UNL     1       4.838   3.966  15.048  0.00  0.00    +0.000 A 
ATOM     23  C   UNL     1       5.576   4.337  16.202  0.00  0.00    +0.000 A 
ENDBRANCH  11  14
TORSDOF 1
ENDMDL
