MODEL 1
REMARK VINA RESULT:      -6.5      0.000      0.000
REMARK  Name = 
REMARK  7 active torsions:
REMARK  status: ('A' for Active; 'I' for Inactive)
REMARK    1  A    between atoms: C_1  and  C_2
REMARK    2  A    between atoms: C_8  and  N_9
REMARK    3  A    between atoms: C_12  and  N_13
REMARK    4  A    between atoms: N_16  and  C_17
REMARK    5  A    between atoms: C_18  and  C_19
REMARK    6  A    between atoms: C_19  and  C_20
REMARK    7  A    between atoms: C_20  and  O_21
REMARK                            x       y       z     vdW  Elec       q    Type
REMARK                         _______ _______ _______ _____ _____    ______ ____
ROOT
ATOM      1  N   UNL     1       2.502   6.864  18.919  0.00  0.00    +0.000 N 
ATOM      2  C   UNL     1       1.972   7.593  17.752  0.00  0.00    +0.000 C 
ATOM      3  C   UNL     1       2.136   9.087  17.955  0.00  0.00    +0.000 C 
ATOM      4  C   UNL     1       1.409   9.619  19.206  0.00  0.00    +0.000 C 
ATOM      5  C   UNL     1       1.805   8.702  20.401  0.00  0.00    +0.000 C 
ATOM      6  C   UNL     1       1.724   7.185  20.130  0.00  0.00    +0.000 C 
ENDROOT
BRANCH   1  14
ATOM      7  C   UNL     1       5.154   5.908  17.772  0.00  0.00    +0.000 C 
ATOM      8  C   UNL     1       3.967   5.030  18.080  0.00  0.00    +0.000 A 
ATOM      9  C   UNL     1       4.079   3.670  17.683  0.00  0.00    +0.000 A 
ATOM     10  C   UNL     1       3.050   2.778  17.911  0.00  0.00    +0.000 A 
ATOM     11  F   UNL     1       3.161   1.508  17.494  0.00  0.00    +0.000 F 
ATOM     12  C   UNL     1       1.904   3.184  18.562  0.00  0.00    +0.000 A 
ATOM     13  C   UNL     1       1.779   4.518  18.951  0.00  0.00    +0.000 A 
ATOM     14  C   UNL     1       2.773   5.488  18.688  0.00  0.00    +0.000 A 
ENDBRANCH   1  14
BRANCH   4  15
ATOM     15  N   UNL     1      -0.065   9.811  19.114  0.00  0.00    +0.000 NA
ATOM     16  C   UNL     1      -0.533  10.907  18.240  0.00  0.00    +0.000 C 
ATOM     17  C   UNL     1      -0.206  12.325  18.747  0.00  0.00    +0.000 C 
ATOM     18  N   UNL     1      -0.752  12.623  20.090  0.00  0.00    +0.000 NA
ATOM     19  C   UNL     1      -0.265  13.941  20.522  0.00  0.00    +0.000 C 
ATOM     20  C   UNL     1      -0.413  11.537  21.055  0.00  0.00    +0.000 C 
ATOM     21  C   UNL     1      -0.667  10.100  20.452  0.00  0.00    +0.000 C 
BRANCH  20  22
ATOM     22  C   UNL     1      -1.187  11.695  22.391  0.00  0.00    +0.000 C 
BRANCH  22  23
ATOM     23  C   UNL     1      -1.141  10.437  23.263  0.00  0.00    +0.000 C 
BRANCH  23  24
ATOM     24  O   UNL     1       0.199  10.100  23.598  0.00  0.00    +0.000 OA
ATOM     25  H   UNL     1       0.186   9.245  24.061  0.00  0.00    +0.000 HD
ENDBRANCH  23  24
ENDBRANCH  22  23
ENDBRANCH  20  22
ENDBRANCH   4  15
TORSDOF 5
ENDMDL
MODEL 2
REMARK VINA RESULT:      -6.4      1.232      1.232
REMARK  Name = 
REMARK  7 active torsions:
REMARK  status: ('A' for Active; 'I' for Inactive)
REMARK    1  A    between atoms: C_1  and  C_2
REMARK    2  A    between atoms: C_8  and  N_9
REMARK    3  A    between atoms: C_12  and  N_13
REMARK    4  A    between atoms: N_16  and  C_17
REMARK    5  A    between atoms: C_18  and  C_19
REMARK    6  A    between atoms: C_19  and  C_20
REMARK    7  A    between atoms: C_20  and  O_21
REMARK                            x       y       z     vdW  Elec       q    Type
REMARK                         _______ _______ _______ _____ _____    ______ ____
ROOT
ATOM      1  N   UNL     1       2.306   7.337  19.035  0.00  0.00    +0.000 N 
ATOM      2  C   UNL     1       1.561   8.085  18.007  0.00  0.00    +0.000 C 
ATOM      3  C   UNL     1       1.662   9.575  18.273  0.00  0.00    +0.000 C 
ATOM      4  C   UNL     1       1.104   9.990  19.649  0.00  0.00    +0.000 C 
ATOM      5  C   UNL     1       1.732   9.043  20.714  0.00  0.00    +0.000 C 
ATOM      6  C   UNL     1       1.704   7.540  20.366  0.00  0.00    +0.000 C 
ENDROOT
BRANCH   1  14
ATOM      7  C   UNL     1       4.636   6.654  17.199  0.00  0.00    +0.000 C 
ATOM      8  C   UNL     1       3.651   5.663  17.767  0.00  0.00    +0.000 A 
ATOM      9  C   UNL     1       3.769   4.328  17.296  0.00  0.00    +0.000 A 
ATOM     10  C   UNL     1       2.917   3.339  17.746  0.00  0.00    +0.000 A 
ATOM     11  F   UNL     1       3.021   2.094  17.260  0.00  0.00    +0.000 F 
ATOM     12  C   UNL     1       1.951   3.624  18.688  0.00  0.00    +0.000 A 
ATOM     13  C   UNL     1       1.820   4.934  19.154  0.00  0.00    +0.000 A 
ATOM     14  C   UNL     1       2.623   5.996  18.683  0.00  0.00    +0.000 A 
ENDBRANCH   1  14
BRANCH   4  15
ATOM     15  N   UNL     1      -0.377  10.083  19.789  0.00  0.00    +0.000 NA
ATOM     16  C   UNL     1      -1.079  10.941  18.811  0.00  0.00    +0.000 C 
ATOM     17  C   UNL     1      -0.797  12.448  18.952  0.00  0.00    +0.000 C 
ATOM     18  N   UNL     1      -1.135  13.000  20.284  0.00  0.00    +0.000 NA
ATOM     19  C   UNL     1      -0.701  14.404  20.344  0.00  0.00    +0.000 C 
ATOM     20  C   UNL     1      -0.546  12.166  21.371  0.00  0.00    +0.000 C 
ATOM     21  C   UNL     1      -0.770  10.622  21.128  0.00  0.00    +0.000 C 
BRANCH  20  22
ATOM     22  C   UNL     1      -1.097  12.568  22.765  0.00  0.00    +0.000 C 
BRANCH  22  23
ATOM     23  C   UNL     1      -2.480  11.977  23.056  0.00  0.00    +0.000 C 
BRANCH  23  24
ATOM     24  O   UNL     1      -3.479  12.612  22.268  0.00  0.00    +0.000 OA
ATOM     25  H   UNL     1      -4.327  12.531  22.737  0.00  0.00    +0.000 HD
ENDBRANCH  23  24
ENDBRANCH  22  23
ENDBRANCH  20  22
ENDBRANCH   4  15
TORSDOF 5
ENDMDL
MODEL 3
REMARK VINA RESULT:      -6.3      1.900      3.190
REMARK  Name = 
REMARK  7 active torsions:
REMARK  status: ('A' for Active; 'I' for Inactive)
REMARK    1  A    between atoms: C_1  and  C_2
REMARK    2  A    between atoms: C_8  and  N_9
REMARK    3  A    between atoms: C_12  and  N_13
REMARK    4  A    between atoms: N_16  and  C_17
REMARK    5  A    between atoms: C_18  and  C_19
REMARK    6  A    between atoms: C_19  and  C_20
REMARK    7  A    between atoms: C_20  and  O_21
REMARK                            x       y       z     vdW  Elec       q    Type
REMARK                         _______ _______ _______ _____ _____    ______ ____
ROOT
ATOM      1  N   UNL     1       2.366   6.952  18.530  0.00  0.00    +0.000 N 
ATOM      2  C   UNL     1       2.373   6.745  19.990  0.00  0.00    +0.000 C 
ATOM      3  C   UNL     1       1.063   7.219  20.588  0.00  0.00    +0.000 C 
ATOM      4  C   UNL     1       0.776   8.712  20.331  0.00  0.00    +0.000 C 
ATOM      5  C   UNL     1       0.988   8.973  18.810  0.00  0.00    +0.000 C 
ATOM      6  C   UNL     1       2.283   8.389  18.210  0.00  0.00    +0.000 C 
ENDROOT
BRANCH   1  14
ATOM      7  C   UNL     1       1.887   4.065  17.696  0.00  0.00    +0.000 C 
ATOM      8  C   UNL     1       3.168   4.832  17.492  0.00  0.00    +0.000 A 
ATOM      9  C   UNL     1       4.263   4.089  16.975  0.00  0.00    +0.000 A 
ATOM     10  C   UNL     1       5.486   4.690  16.753  0.00  0.00    +0.000 A 
ATOM     11  F   UNL     1       6.517   3.961  16.300  0.00  0.00    +0.000 F 
ATOM     12  C   UNL     1       5.659   6.036  16.998  0.00  0.00    +0.000 A 
ATOM     13  C   UNL     1       4.593   6.776  17.512  0.00  0.00    +0.000 A 
ATOM     14  C   UNL     1       3.339   6.200  17.817  0.00  0.00    +0.000 A 
ENDBRANCH   1  14
BRANCH   4  15
ATOM     15  N   UNL     1       1.501   9.705  21.173  0.00  0.00    +0.000 NA
ATOM     16  C   UNL     1       1.304   9.597  22.634  0.00  0.00    +0.000 C 
ATOM     17  C   UNL     1      -0.112   9.953  23.126  0.00  0.00    +0.000 C 
ATOM     18  N   UNL     1      -0.546  11.321  22.763  0.00  0.00    +0.000 NA
ATOM     19  C   UNL     1      -1.950  11.499  23.162  0.00  0.00    +0.000 C 
ATOM     20  C   UNL     1      -0.320  11.585  21.312  0.00  0.00    +0.000 C 
ATOM     21  C   UNL     1       1.106  11.106  20.833  0.00  0.00    +0.000 C 
BRANCH  20  22
ATOM     22  C   UNL     1      -0.522  13.083  20.963  0.00  0.00    +0.000 C 
BRANCH  22  23
ATOM     23  C   UNL     1       0.751  13.916  21.142  0.00  0.00    +0.000 C 
BRANCH  23  24
ATOM     24  O   UNL     1       0.947  14.258  22.508  0.00  0.00    +0.000 OA
ATOM     25  H   UNL     1       0.076  14.427  22.903  0.00  0.00    +0.000 HD
ENDBRANCH  23  24
ENDBRANCH  22  23
ENDBRANCH  20  22
ENDBRANCH   4  15
TORSDOF 5
ENDMDL
MODEL 4
REMARK VINA RESULT:      -6.3      2.002      3.285
REMARK  Name = 
REMARK  7 active torsions:
REMARK  status: ('A' for Active; 'I' for Inactive)
REMARK    1  A    between atoms: C_1  and  C_2
REMARK    2  A    between atoms: C_8  and  N_9
REMARK    3  A    between atoms: C_12  and  N_13
REMARK    4  A    between atoms: N_16  and  C_17
REMARK    5  A    between atoms: C_18  and  C_19
REMARK    6  A    between atoms: C_19  and  C_20
REMARK    7  A    between atoms: C_20  and  O_21
REMARK                            x       y       z     vdW  Elec       q    Type
REMARK                         _______ _______ _______ _____ _____    ______ ____
ROOT
ATOM      1  N   UNL     1       2.390   6.989  18.522  0.00  0.00    +0.000 N 
ATOM      2  C   UNL     1       2.325   6.721  19.970  0.00  0.00    +0.000 C 
ATOM      3  C   UNL     1       1.007   7.221  20.532  0.00  0.00    +0.000 C 
ATOM      4  C   UNL     1       0.789   8.733  20.327  0.00  0.00    +0.000 C 
ATOM      5  C   UNL     1       1.077   9.049  18.829  0.00  0.00    +0.000 C 
ATOM      6  C   UNL     1       2.375   8.440  18.260  0.00  0.00    +0.000 C 
ENDROOT
BRANCH   1  14
ATOM      7  C   UNL     1       1.923   4.085  17.741  0.00  0.00    +0.000 C 
ATOM      8  C   UNL     1       3.200   4.855  17.519  0.00  0.00    +0.000 A 
ATOM      9  C   UNL     1       4.298   4.109  17.012  0.00  0.00    +0.000 A 
ATOM     10  C   UNL     1       5.517   4.713  16.774  0.00  0.00    +0.000 A 
ATOM     11  F   UNL     1       6.550   3.981  16.332  0.00  0.00    +0.000 F 
ATOM     12  C   UNL     1       5.682   6.063  16.995  0.00  0.00    +0.000 A 
ATOM     13  C   UNL     1       4.614   6.807  17.499  0.00  0.00    +0.000 A 
ATOM     14  C   UNL     1       3.365   6.229  17.819  0.00  0.00    +0.000 A 
ENDBRANCH   1  14
BRANCH   4  15
ATOM     15  N   UNL     1       1.512   9.661  21.242  0.00  0.00    +0.000 NA
ATOM     16  C   UNL     1       1.243   9.504  22.687  0.00  0.00    +0.000 C 
ATOM     17  C   UNL     1      -0.179   9.900  23.128  0.00  0.00    +0.000 C 
ATOM     18  N   UNL     1      -0.541  11.297  22.803  0.00  0.00    +0.000 NA
ATOM     19  C   UNL     1      -1.954  11.518  23.145  0.00  0.00    +0.000 C 
ATOM     20  C   UNL     1      -0.237  11.609  21.376  0.00  0.00    +0.000 C 
ATOM     21  C   UNL     1       1.190  11.090  20.943  0.00  0.00    +0.000 C 
BRANCH  20  22
ATOM     22  C   UNL     1      -0.362  13.127  21.081  0.00  0.00    +0.000 C 
BRANCH  22  23
ATOM     23  C   UNL     1      -1.002  13.422  19.721  0.00  0.00    +0.000 C 
BRANCH  23  24
ATOM     24  O   UNL     1      -2.383  13.087  19.726  0.00  0.00    +0.000 OA
ATOM     25  H   UNL     1      -2.764  13.370  18.878  0.00  0.00    +0.000 HD
ENDBRANCH  23  24
ENDBRANCH  22  23
ENDBRANCH  20  22
ENDBRANCH   4  15
TORSDOF 5
ENDMDL
MODEL 5
REMARK VINA RESULT:      -6.2      4.043      8.339
REMARK  Name = 
REMARK  7 active torsions:
REMARK  status: ('A' for Active; 'I' for Inactive)
REMARK    1  A    between atoms: C_1  and  C_2
REMARK    2  A    between atoms: C_8  and  N_9
REMARK    3  A    between atoms: C_12  and  N_13
REMARK    4  A    between atoms: N_16  and  C_17
REMARK    5  A    between atoms: C_18  and  C_19
REMARK    6  A    between atoms: C_19  and  C_20
REMARK    7  A    between atoms: C_20  and  O_21
REMARK                            x       y       z     vdW  Elec       q    Type
REMARK                         _______ _______ _______ _____ _____    ______ ____
ROOT
ATOM      1  N   UNL     1       1.266   9.573  19.523  0.00  0.00    +0.000 N 
ATOM      2  C   UNL     1       0.835   8.628  20.569  0.00  0.00    +0.000 C 
ATOM      3  C   UNL     1       1.957   7.660  20.889  0.00  0.00    +0.000 C 
ATOM      4  C   UNL     1       2.417   6.831  19.673  0.00  0.00    +0.000 C 
ATOM      5  C   UNL     1       2.661   7.824  18.497  0.00  0.00    +0.000 C 
ATOM      6  C   UNL     1       1.545   8.863  18.262  0.00  0.00    +0.000 C 
ENDROOT
BRANCH   1  14
ATOM      7  C   UNL     1       2.344  12.145  18.303  0.00  0.00    +0.000 C 
ATOM      8  C   UNL     1       0.985  11.980  18.935  0.00  0.00    +0.000 A 
ATOM      9  C   UNL     1       0.212  13.165  19.066  0.00  0.00    +0.000 A 
ATOM     10  C   UNL     1      -1.046  13.131  19.635  0.00  0.00    +0.000 A 
ATOM     11  F   UNL     1      -1.743  14.267  19.784  0.00  0.00    +0.000 F 
ATOM     12  C   UNL     1      -1.590  11.937  20.057  0.00  0.00    +0.000 A 
ATOM     13  C   UNL     1      -0.838  10.766  19.940  0.00  0.00    +0.000 A 
ATOM     14  C   UNL     1       0.477  10.752  19.424  0.00  0.00    +0.000 A 
ENDBRANCH   1  14
BRANCH   4  15
ATOM     15  N   UNL     1       1.564   5.680  19.263  0.00  0.00    +0.000 NA
ATOM     16  C   UNL     1       1.319   4.645  20.290  0.00  0.00    +0.000 C 
ATOM     17  C   UNL     1       2.555   3.813  20.679  0.00  0.00    +0.000 C 
ATOM     18  N   UNL     1       3.187   3.108  19.542  0.00  0.00    +0.000 NA
ATOM     19  C   UNL     1       4.425   2.464  20.006  0.00  0.00    +0.000 C 
ATOM     20  C   UNL     1       3.415   4.039  18.398  0.00  0.00    +0.000 C 
ATOM     21  C   UNL     1       2.155   4.943  18.104  0.00  0.00    +0.000 C 
BRANCH  20  22
ATOM     22  C   UNL     1       3.831   3.276  17.112  0.00  0.00    +0.000 C 
BRANCH  22  23
ATOM     23  C   UNL     1       4.832   4.054  16.252  0.00  0.00    +0.000 C 
BRANCH  23  24
ATOM     24  O   UNL     1       6.003   3.283  16.014  0.00  0.00    +0.000 OA
ATOM     25  H   UNL     1       5.747   2.346  15.999  0.00  0.00    +0.000 HD
ENDBRANCH  23  24
ENDBRANCH  22  23
ENDBRANCH  20  22
ENDBRANCH   4  15
TORSDOF 5
ENDMDL
MODEL 6
REMARK VINA RESULT:      -6.1      1.313      1.433
REMARK  Name = 
REMARK  7 active torsions:
REMARK  status: ('A' for Active; 'I' for Inactive)
REMARK    1  A    between atoms: C_1  and  C_2
REMARK    2  A    between atoms: C_8  and  N_9
REMARK    3  A    between atoms: C_12  and  N_13
REMARK    4  A    between atoms: N_16  and  C_17
REMARK    5  A    between atoms: C_18  and  C_19
REMARK    6  A    between atoms: C_19  and  C_20
REMARK    7  A    between atoms: C_20  and  O_21
REMARK                            x       y       z     vdW  Elec       q    Type
REMARK                         _______ _______ _______ _____ _____    ______ ____
ROOT
ATOM      1  N   UNL     1       2.332   7.504  19.037  0.00  0.00    +0.000 N 
ATOM      2  C   UNL     1       1.721   8.277  17.940  0.00  0.00    +0.000 C 
ATOM      3  C   UNL     1       1.798   9.760  18.244  0.00  0.00    +0.000 C 
ATOM      4  C   UNL     1       1.080  10.156  19.550  0.00  0.00    +0.000 C 
ATOM      5  C   UNL     1       1.570   9.185  20.665  0.00  0.00    +0.000 C 
ATOM      6  C   UNL     1       1.576   7.689  20.288  0.00  0.00    +0.000 C 
ENDROOT
BRANCH   1  14
ATOM      7  C   UNL     1       4.701   6.854  17.239  0.00  0.00    +0.000 C 
ATOM      8  C   UNL     1       3.728   5.848  17.801  0.00  0.00    +0.000 A 
ATOM      9  C   UNL     1       3.881   4.512  17.343  0.00  0.00    +0.000 A 
ATOM     10  C   UNL     1       3.042   3.509  17.789  0.00  0.00    +0.000 A 
ATOM     11  F   UNL     1       3.179   2.262  17.315  0.00  0.00    +0.000 F 
ATOM     12  C   UNL     1       2.058   3.782  18.716  0.00  0.00    +0.000 A 
ATOM     13  C   UNL     1       1.893   5.092  19.168  0.00  0.00    +0.000 A 
ATOM     14  C   UNL     1       2.681   6.167  18.700  0.00  0.00    +0.000 A 
ENDBRANCH   1  14
BRANCH   4  15
ATOM     15  N   UNL     1      -0.406  10.258  19.513  0.00  0.00    +0.000 NA
ATOM     16  C   UNL     1      -0.990  10.922  18.328  0.00  0.00    +0.000 C 
ATOM     17  C   UNL     1      -0.711  12.434  18.229  0.00  0.00    +0.000 C 
ATOM     18  N   UNL     1      -1.183  13.210  19.398  0.00  0.00    +0.000 NA
ATOM     19  C   UNL     1      -0.744  14.606  19.255  0.00  0.00    +0.000 C 
ATOM     20  C   UNL     1      -0.723  12.587  20.673  0.00  0.00    +0.000 C 
ATOM     21  C   UNL     1      -0.934  11.022  20.684  0.00  0.00    +0.000 C 
BRANCH  20  22
ATOM     22  C   UNL     1      -1.415  13.224  21.906  0.00  0.00    +0.000 C 
BRANCH  22  23
ATOM     23  C   UNL     1      -0.470  14.091  22.743  0.00  0.00    +0.000 C 
BRANCH  23  24
ATOM     24  O   UNL     1       0.865  13.999  22.261  0.00  0.00    +0.000 OA
ATOM     25  H   UNL     1       1.054  13.063  22.081  0.00  0.00    +0.000 HD
ENDBRANCH  23  24
ENDBRANCH  22  23
ENDBRANCH  20  22
ENDBRANCH   4  15
TORSDOF 5
ENDMDL
MODEL 7
REMARK VINA RESULT:      -6.0      2.001      3.321
REMARK  Name = 
REMARK  7 active torsions:
REMARK  status: ('A' for Active; 'I' for Inactive)
REMARK    1  A    between atoms: C_1  and  C_2
REMARK    2  A    between atoms: C_8  and  N_9
REMARK    3  A    between atoms: C_12  and  N_13
REMARK    4  A    between atoms: N_16  and  C_17
REMARK    5  A    between atoms: C_18  and  C_19
REMARK    6  A    between atoms: C_19  and  C_20
REMARK    7  A    between atoms: C_20  and  O_21
REMARK                            x       y       z     vdW  Elec       q    Type
REMARK                         _______ _______ _______ _____ _____    ______ ____
ROOT
ATOM      1  N   UNL     1       2.235   7.468  18.343  0.00  0.00    +0.000 N 
ATOM      2  C   UNL     1       2.211   7.615  19.810  0.00  0.00    +0.000 C 
ATOM      3  C   UNL     1       0.877   8.185  20.252  0.00  0.00    +0.000 C 
ATOM      4  C   UNL     1       0.567   9.566  19.640  0.00  0.00    +0.000 C 
ATOM      5  C   UNL     1       0.811   9.462  18.105  0.00  0.00    +0.000 C 
ATOM      6  C   UNL     1       2.132   8.784  17.687  0.00  0.00    +0.000 C 
ENDROOT
BRANCH   1  14
ATOM      7  C   UNL     1       1.746   4.487  17.978  0.00  0.00    +0.000 C 
ATOM      8  C   UNL     1       3.059   5.191  17.750  0.00  0.00    +0.000 A 
ATOM      9  C   UNL     1       4.171   4.357  17.457  0.00  0.00    +0.000 A 
ATOM     10  C   UNL     1       5.423   4.895  17.234  0.00  0.00    +0.000 A 
ATOM     11  F   UNL     1       6.466   4.086  16.997  0.00  0.00    +0.000 F 
ATOM     12  C   UNL     1       5.611   6.261  17.259  0.00  0.00    +0.000 A 
ATOM     13  C   UNL     1       4.528   7.092  17.552  0.00  0.00    +0.000 A 
ATOM     14  C   UNL     1       3.241   6.592  17.850  0.00  0.00    +0.000 A 
ENDBRANCH   1  14
BRANCH   4  15
ATOM     15  N   UNL     1       1.251  10.749  20.235  0.00  0.00    +0.000 NA
ATOM     16  C   UNL     1       0.795  11.168  21.577  0.00  0.00    +0.000 C 
ATOM     17  C   UNL     1      -0.631  11.750  21.625  0.00  0.00    +0.000 C 
ATOM     18  N   UNL     1      -0.828  12.927  20.750  0.00  0.00    +0.000 NA
ATOM     19  C   UNL     1      -2.248  13.309  20.774  0.00  0.00    +0.000 C 
ATOM     20  C   UNL     1      -0.326  12.656  19.371  0.00  0.00    +0.000 C 
ATOM     21  C   UNL     1       1.092  11.963  19.377  0.00  0.00    +0.000 C 
BRANCH  20  22
ATOM     22  C   UNL     1      -0.283  13.948  18.513  0.00  0.00    +0.000 C 
BRANCH  22  23
ATOM     23  C   UNL     1       0.805  14.929  18.960  0.00  0.00    +0.000 C 
BRANCH  23  24
ATOM     24  O   UNL     1       0.392  15.655  20.111  0.00  0.00    +0.000 OA
ATOM     25  H   UNL     1       1.103  16.273  20.347  0.00  0.00    +0.000 HD
ENDBRANCH  23  24
ENDBRANCH  22  23
ENDBRANCH  20  22
ENDBRANCH   4  15
TORSDOF 5
ENDMDL
MODEL 8
REMARK VINA RESULT:      -5.9      0.871      1.611
REMARK  Name = 
REMARK  7 active torsions:
REMARK  status: ('A' for Active; 'I' for Inactive)
REMARK    1  A    between atoms: C_1  and  C_2
REMARK    2  A    between atoms: C_8  and  N_9
REMARK    3  A    between atoms: C_12  and  N_13
REMARK    4  A    between atoms: N_16  and  C_17
REMARK    5  A    between atoms: C_18  and  C_19
REMARK    6  A    between atoms: C_19  and  C_20
REMARK    7  A    between atoms: C_20  and  O_21
REMARK                            x       y       z     vdW  Elec       q    Type
REMARK                         _______ _______ _______ _____ _____    ______ ____
ROOT
ATOM      1  N   UNL     1       2.586   6.170  19.070  0.00  0.00    +0.000 N 
ATOM      2  C   UNL     1       2.258   6.992  17.890  0.00  0.00    +0.000 C 
ATOM      3  C   UNL     1       2.550   8.452  18.177  0.00  0.00    +0.000 C 
ATOM      4  C   UNL     1       1.753   9.013  19.372  0.00  0.00    +0.000 C 
ATOM      5  C   UNL     1       1.926   8.018  20.557  0.00  0.00    +0.000 C 
ATOM      6  C   UNL     1       1.722   6.529  20.209  0.00  0.00    +0.000 C 
ENDROOT
BRANCH   1  14
ATOM      7  C   UNL     1       1.128   4.043  20.685  0.00  0.00    +0.000 C 
ATOM      8  C   UNL     1       2.135   3.775  19.596  0.00  0.00    +0.000 A 
ATOM      9  C   UNL     1       2.503   2.416  19.408  0.00  0.00    +0.000 A 
ATOM     10  C   UNL     1       3.420   2.057  18.440  0.00  0.00    +0.000 A 
ATOM     11  F   UNL     1       3.783   0.773  18.306  0.00  0.00    +0.000 F 
ATOM     12  C   UNL     1       3.973   3.011  17.612  0.00  0.00    +0.000 A 
ATOM     13  C   UNL     1       3.624   4.351  17.790  0.00  0.00    +0.000 A 
ATOM     14  C   UNL     1       2.740   4.782  18.804  0.00  0.00    +0.000 A 
ENDBRANCH   1  14
BRANCH   4  15
ATOM     15  N   UNL     1       0.323   9.362  19.140  0.00  0.00    +0.000 NA
ATOM     16  C   UNL     1       0.061  10.491  18.223  0.00  0.00    +0.000 C 
ATOM     17  C   UNL     1       0.492  11.871  18.754  0.00  0.00    +0.000 C 
ATOM     18  N   UNL     1      -0.141  12.244  20.039  0.00  0.00    +0.000 NA
ATOM     19  C   UNL     1       0.443  13.508  20.511  0.00  0.00    +0.000 C 
ATOM     20  C   UNL     1      -0.015  11.141  21.035  0.00  0.00    +0.000 C 
ATOM     21  C   UNL     1      -0.365   9.732  20.415  0.00  0.00    +0.000 C 
BRANCH  20  22
ATOM     22  C   UNL     1      -0.888  11.399  22.291  0.00  0.00    +0.000 C 
BRANCH  22  23
ATOM     23  C   UNL     1      -0.895  10.220  23.269  0.00  0.00    +0.000 C 
BRANCH  23  24
ATOM     24  O   UNL     1       0.430   9.838  23.614  0.00  0.00    +0.000 OA
ATOM     25  H   UNL     1       0.976  10.641  23.642  0.00  0.00    +0.000 HD
ENDBRANCH  23  24
ENDBRANCH  22  23
ENDBRANCH  20  22
ENDBRANCH   4  15
TORSDOF 5
ENDMDL
MODEL 9
REMARK VINA RESULT:      -5.9      1.563      1.717
REMARK  Name = 
REMARK  7 active torsions:
REMARK  status: ('A' for Active; 'I' for Inactive)
REMARK    1  A    between atoms: C_1  and  C_2
REMARK    2  A    between atoms: C_8  and  N_9
REMARK    3  A    between atoms: C_12  and  N_13
REMARK    4  A    between atoms: N_16  and  C_17
REMARK    5  A    between atoms: C_18  and  C_19
REMARK    6  A    between atoms: C_19  and  C_20
REMARK    7  A    between atoms: C_20  and  O_21
REMARK                            x       y       z     vdW  Elec       q    Type
REMARK                         _______ _______ _______ _____ _____    ______ ____
ROOT
ATOM      1  N   UNL     1       2.055   7.860  19.706  0.00  0.00    +0.000 N 
ATOM      2  C   UNL     1       1.536   8.443  18.455  0.00  0.00    +0.000 C 
ATOM      3  C   UNL     1       1.670   9.953  18.492  0.00  0.00    +0.000 C 
ATOM      4  C   UNL     1       0.907  10.607  19.662  0.00  0.00    +0.000 C 
ATOM      5  C   UNL     1       1.294   9.836  20.960  0.00  0.00    +0.000 C 
ATOM      6  C   UNL     1       1.246   8.298  20.858  0.00  0.00    +0.000 C 
ENDROOT
BRANCH   1  14
ATOM      7  C   UNL     1       3.982   6.724  17.642  0.00  0.00    +0.000 C 
ATOM      8  C   UNL     1       3.185   5.914  18.632  0.00  0.00    +0.000 A 
ATOM      9  C   UNL     1       3.268   4.502  18.491  0.00  0.00    +0.000 A 
ATOM     10  C   UNL     1       2.576   3.663  19.342  0.00  0.00    +0.000 A 
ATOM     11  F   UNL     1       2.637   2.335  19.167  0.00  0.00    +0.000 F 
ATOM     12  C   UNL     1       1.815   4.181  20.369  0.00  0.00    +0.000 A 
ATOM     13  C   UNL     1       1.720   5.566  20.514  0.00  0.00    +0.000 A 
ATOM     14  C   UNL     1       2.356   6.472  19.636  0.00  0.00    +0.000 A 
ENDBRANCH   1  14
BRANCH   4  15
ATOM     15  N   UNL     1      -0.569  10.757  19.521  0.00  0.00    +0.000 NA
ATOM     16  C   UNL     1      -1.040  11.627  18.423  0.00  0.00    +0.000 C 
ATOM     17  C   UNL     1      -0.731  13.125  18.604  0.00  0.00    +0.000 C 
ATOM     18  N   UNL     1      -1.290  13.707  19.845  0.00  0.00    +0.000 NA
ATOM     19  C   UNL     1      -0.819  15.094  19.977  0.00  0.00    +0.000 C 
ATOM     20  C   UNL     1      -0.949  12.866  21.029  0.00  0.00    +0.000 C 
ATOM     21  C   UNL     1      -1.183  11.329  20.758  0.00  0.00    +0.000 C 
BRANCH  20  22
ATOM     22  C   UNL     1      -1.734  13.308  22.292  0.00  0.00    +0.000 C 
BRANCH  22  23
ATOM     23  C   UNL     1      -2.651  12.212  22.842  0.00  0.00    +0.000 C 
BRANCH  23  24
ATOM     24  O   UNL     1      -3.379  12.677  23.971  0.00  0.00    +0.000 OA
ATOM     25  H   UNL     1      -4.019  11.990  24.220  0.00  0.00    +0.000 HD
ENDBRANCH  23  24
ENDBRANCH  22  23
ENDBRANCH  20  22
ENDBRANCH   4  15
TORSDOF 5
ENDMDL
