MODEL 1
REMARK VINA RESULT:      -7.7      0.000      0.000
REMARK  Name = 
REMARK  6 active torsions:
REMARK  status: ('A' for Active; 'I' for Inactive)
REMARK    1  A    between atoms: C_5  and  C_6
REMARK    2  A    between atoms: C_6  and  O_7
REMARK    3  A    between atoms: O_7  and  C_8
REMARK    4  A    between atoms: C_8  and  C_9
REMARK    5  A    between atoms: N_11  and  C_12
REMARK    6  A    between atoms: C_12  and  C_13
REMARK                            x       y       z     vdW  Elec       q    Type
REMARK                         _______ _______ _______ _____ _____    ______ ____
ROOT
ATOM      1  C   UNL     1       2.445   5.478  20.578  0.00  0.00    +0.000 C 
ATOM      2  C   UNL     1       3.547   5.952  19.619  0.00  0.00    +0.000 C 
ATOM      3  N   UNL     1       3.190   6.067  18.204  0.00  0.00    +0.000 NA
ATOM      4  C   UNL     1       2.587   4.901  17.557  0.00  0.00    +0.000 C 
ATOM      5  C   UNL     1       2.950   3.576  18.119  0.00  0.00    +0.000 A 
ATOM      6  C   UNL     1       3.474   2.441  17.533  0.00  0.00    +0.000 A 
ATOM      7  C   UNL     1       3.483   1.473  18.552  0.00  0.00    +0.000 A 
ATOM      8  N   UNL     1       3.009   1.949  19.704  0.00  0.00    +0.000 NA
ATOM      9  N   UNL     1       2.690   3.226  19.418  0.00  0.00    +0.000 N 
ATOM     10  C   UNL     1       1.988   4.017  20.403  0.00  0.00    +0.000 C 
ENDROOT
BRANCH   1  11
ATOM     11  C   UNL     1       1.243   6.431  20.578  0.00  0.00    +0.000 C 
BRANCH  11  12
ATOM     12  O   UNL     1       1.668   7.697  21.088  0.00  0.00    +0.000 OA
BRANCH  12  13
ATOM     13  C   UNL     1       1.147   8.783  20.325  0.00  0.00    +0.000 C 
BRANCH  13  18
ATOM     14  C   UNL     1      -1.128  11.586  21.554  0.00  0.00    +0.000 A 
ATOM     15  C   UNL     1      -1.093  11.303  22.906  0.00  0.00    +0.000 A 
ATOM     16  N   UNL     1      -0.392  10.280  23.441  0.00  0.00    +0.000 NA
ATOM     17  C   UNL     1       0.292   9.500  22.574  0.00  0.00    +0.000 A 
ATOM     18  C   UNL     1       0.317   9.684  21.196  0.00  0.00    +0.000 A 
ATOM     19  C   UNL     1      -0.407  10.768  20.687  0.00  0.00    +0.000 A 
ENDBRANCH  13  18
ENDBRANCH  12  13
ENDBRANCH  11  12
ENDBRANCH   1  11
BRANCH   3  20
ATOM     20  C   UNL     1       4.220   6.742  17.394  0.00  0.00    +0.000 C 
BRANCH  20  21
ATOM     21  C   UNL     1       5.415   5.898  17.018  0.00  0.00    +0.000 A 
ATOM     22  C   UNL     1       6.350   5.501  17.975  0.00  0.00    +0.000 A 
ATOM     23  C   UNL     1       7.467   4.793  17.560  0.00  0.00    +0.000 A 
ATOM     24  N   UNL     1       7.708   4.447  16.278  0.00  0.00    +0.000 NA
ATOM     25  C   UNL     1       6.787   4.824  15.368  0.00  0.00    +0.000 A 
ATOM     26  C   UNL     1       5.638   5.530  15.685  0.00  0.00    +0.000 A 
ENDBRANCH  20  21
ENDBRANCH   3  20
TORSDOF 6
ENDMDL
MODEL 2
REMARK VINA RESULT:      -7.6      0.630      1.282
REMARK  Name = 
REMARK  6 active torsions:
REMARK  status: ('A' for Active; 'I' for Inactive)
REMARK    1  A    between atoms: C_5  and  C_6
REMARK    2  A    between atoms: C_6  and  O_7
REMARK    3  A    between atoms: O_7  and  C_8
REMARK    4  A    between atoms: C_8  and  C_9
REMARK    5  A    between atoms: N_11  and  C_12
REMARK    6  A    between atoms: C_12  and  C_13
REMARK                            x       y       z     vdW  Elec       q    Type
REMARK                         _______ _______ _______ _____ _____    ______ ____
ROOT
ATOM      1  C   UNL     1       2.515   5.499  20.623  0.00  0.00    +0.000 C 
ATOM      2  C   UNL     1       3.597   5.982  19.647  0.00  0.00    +0.000 C 
ATOM      3  N   UNL     1       3.208   6.120  18.241  0.00  0.00    +0.000 NA
ATOM      4  C   UNL     1       2.585   4.965  17.592  0.00  0.00    +0.000 C 
ATOM      5  C   UNL     1       2.955   3.631  18.126  0.00  0.00    +0.000 A 
ATOM      6  C   UNL     1       3.459   2.502  17.511  0.00  0.00    +0.000 A 
ATOM      7  C   UNL     1       3.487   1.520  18.516  0.00  0.00    +0.000 A 
ATOM      8  N   UNL     1       3.042   1.981  19.686  0.00  0.00    +0.000 NA
ATOM      9  N   UNL     1       2.723   3.263  19.426  0.00  0.00    +0.000 N 
ATOM     10  C   UNL     1       2.047   4.043  20.437  0.00  0.00    +0.000 C 
ENDROOT
BRANCH   1  11
ATOM     11  C   UNL     1       1.318   6.457  20.665  0.00  0.00    +0.000 C 
BRANCH  11  12
ATOM     12  O   UNL     1       1.791   7.759  21.018  0.00  0.00    +0.000 OA
BRANCH  12  13
ATOM     13  C   UNL     1       1.123   8.787  20.289  0.00  0.00    +0.000 C 
BRANCH  13  18
ATOM     14  C   UNL     1      -0.948  10.268  23.128  0.00  0.00    +0.000 A 
ATOM     15  C   UNL     1      -0.779  11.607  22.830  0.00  0.00    +0.000 A 
ATOM     16  N   UNL     1      -0.051  12.057  21.786  0.00  0.00    +0.000 NA
ATOM     17  C   UNL     1       0.545  11.118  21.017  0.00  0.00    +0.000 A 
ATOM     18  C   UNL     1       0.455   9.748  21.232  0.00  0.00    +0.000 A 
ATOM     19  C   UNL     1      -0.326   9.324  22.313  0.00  0.00    +0.000 A 
ENDBRANCH  13  18
ENDBRANCH  12  13
ENDBRANCH  11  12
ENDBRANCH   1  11
BRANCH   3  20
ATOM     20  C   UNL     1       4.222   6.801  17.419  0.00  0.00    +0.000 C 
BRANCH  20  21
ATOM     21  C   UNL     1       5.474   6.007  17.128  0.00  0.00    +0.000 A 
ATOM     22  C   UNL     1       5.676   5.404  15.885  0.00  0.00    +0.000 A 
ATOM     23  C   UNL     1       6.807   4.624  15.700  0.00  0.00    +0.000 A 
ATOM     24  N   UNL     1       7.744   4.417  16.649  0.00  0.00    +0.000 NA
ATOM     25  C   UNL     1       7.543   5.020  17.838  0.00  0.00    +0.000 A 
ATOM     26  C   UNL     1       6.448   5.820  18.118  0.00  0.00    +0.000 A 
ENDBRANCH  20  21
ENDBRANCH   3  20
TORSDOF 6
ENDMDL
MODEL 3
REMARK VINA RESULT:      -7.5      2.345      6.411
REMARK  Name = 
REMARK  6 active torsions:
REMARK  status: ('A' for Active; 'I' for Inactive)
REMARK    1  A    between atoms: C_5  and  C_6
REMARK    2  A    between atoms: C_6  and  O_7
REMARK    3  A    between atoms: O_7  and  C_8
REMARK    4  A    between atoms: C_8  and  C_9
REMARK    5  A    between atoms: N_11  and  C_12
REMARK    6  A    between atoms: C_12  and  C_13
REMARK                            x       y       z     vdW  Elec       q    Type
REMARK                         _______ _______ _______ _____ _____    ______ ____
ROOT
ATOM      1  C   UNL     1       6.719   5.713  18.352  0.00  0.00    +0.000 C 
ATOM      2  C   UNL     1       5.716   6.728  17.785  0.00  0.00    +0.000 C 
ATOM      3  N   UNL     1       4.421   6.204  17.343  0.00  0.00    +0.000 NA
ATOM      4  C   UNL     1       4.426   5.089  16.395  0.00  0.00    +0.000 C 
ATOM      5  C   UNL     1       5.603   4.994  15.496  0.00  0.00    +0.000 A 
ATOM      6  C   UNL     1       5.706   4.920  14.121  0.00  0.00    +0.000 A 
ATOM      7  C   UNL     1       7.075   4.725  13.867  0.00  0.00    +0.000 A 
ATOM      8  N   UNL     1       7.796   4.685  14.988  0.00  0.00    +0.000 NA
ATOM      9  N   UNL     1       6.883   4.848  15.965  0.00  0.00    +0.000 N 
ATOM     10  C   UNL     1       7.287   4.696  17.343  0.00  0.00    +0.000 C 
ENDROOT
BRANCH   1  11
ATOM     11  C   UNL     1       6.168   5.002  19.594  0.00  0.00    +0.000 C 
BRANCH  11  12
ATOM     12  O   UNL     1       5.556   3.777  19.182  0.00  0.00    +0.000 OA
BRANCH  12  13
ATOM     13  C   UNL     1       4.725   3.225  20.201  0.00  0.00    +0.000 C 
BRANCH  13  18
ATOM     14  C   UNL     1       0.920   3.291  19.944  0.00  0.00    +0.000 A 
ATOM     15  C   UNL     1       0.786   2.675  18.715  0.00  0.00    +0.000 A 
ATOM     16  N   UNL     1       1.828   2.244  17.973  0.00  0.00    +0.000 NA
ATOM     17  C   UNL     1       3.061   2.457  18.485  0.00  0.00    +0.000 A 
ATOM     18  C   UNL     1       3.314   3.078  19.703  0.00  0.00    +0.000 A 
ATOM     19  C   UNL     1       2.204   3.490  20.449  0.00  0.00    +0.000 A 
ENDBRANCH  13  18
ENDBRANCH  12  13
ENDBRANCH  11  12
ENDBRANCH   1  11
BRANCH   3  20
ATOM     20  C   UNL     1       3.440   7.257  17.032  0.00  0.00    +0.000 C 
BRANCH  20  21
ATOM     21  C   UNL     1       2.654   7.791  18.207  0.00  0.00    +0.000 A 
ATOM     22  C   UNL     1       2.517   7.050  19.382  0.00  0.00    +0.000 A 
ATOM     23  C   UNL     1       1.721   7.555  20.398  0.00  0.00    +0.000 A 
ATOM     24  N   UNL     1       1.074   8.738  20.332  0.00  0.00    +0.000 NA
ATOM     25  C   UNL     1       1.231   9.449  19.197  0.00  0.00    +0.000 A 
ATOM     26  C   UNL     1       2.006   9.031  18.129  0.00  0.00    +0.000 A 
ENDBRANCH  20  21
ENDBRANCH   3  20
TORSDOF 6
ENDMDL
MODEL 4
REMARK VINA RESULT:      -7.5      4.040      7.112
REMARK  Name = 
REMARK  6 active torsions:
REMARK  status: ('A' for Active; 'I' for Inactive)
REMARK    1  A    between atoms: C_5  and  C_6
REMARK    2  A    between atoms: C_6  and  O_7
REMARK    3  A    between atoms: O_7  and  C_8
REMARK    4  A    between atoms: C_8  and  C_9
REMARK    5  A    between atoms: N_11  and  C_12
REMARK    6  A    between atoms: C_12  and  C_13
REMARK                            x       y       z     vdW  Elec       q    Type
REMARK                         _______ _______ _______ _____ _____    ______ ____
ROOT
ATOM      1  C   UNL     1       6.943   6.990  17.149  0.00  0.00    +0.000 C 
ATOM      2  C   UNL     1       5.408   6.984  17.184  0.00  0.00    +0.000 C 
ATOM      3  N   UNL     1       4.763   5.805  17.768  0.00  0.00    +0.000 NA
ATOM      4  C   UNL     1       5.146   4.492  17.248  0.00  0.00    +0.000 C 
ATOM      5  C   UNL     1       5.614   4.453  15.840  0.00  0.00    +0.000 A 
ATOM      6  C   UNL     1       5.201   3.706  14.754  0.00  0.00    +0.000 A 
ATOM      7  C   UNL     1       6.105   4.024  13.726  0.00  0.00    +0.000 A 
ATOM      8  N   UNL     1       7.023   4.909  14.117  0.00  0.00    +0.000 NA
ATOM      9  N   UNL     1       6.707   5.154  15.403  0.00  0.00    +0.000 N 
ATOM     10  C   UNL     1       7.596   5.959  16.208  0.00  0.00    +0.000 C 
ENDROOT
BRANCH   1  11
ATOM     11  C   UNL     1       7.544   6.902  18.558  0.00  0.00    +0.000 C 
BRANCH  11  12
ATOM     12  O   UNL     1       8.538   7.920  18.691  0.00  0.00    +0.000 OA
BRANCH  12  13
ATOM     13  C   UNL     1       8.187   9.107  17.984  0.00  0.00    +0.000 C 
BRANCH  13  18
ATOM     14  C   UNL     1      10.082  11.433  20.339  0.00  0.00    +0.000 A 
ATOM     15  C   UNL     1      10.115  12.557  19.536  0.00  0.00    +0.000 A 
ATOM     16  N   UNL     1       9.572  12.614  18.301  0.00  0.00    +0.000 NA
ATOM     17  C   UNL     1       8.983  11.484  17.849  0.00  0.00    +0.000 A 
ATOM     18  C   UNL     1       8.904  10.294  18.564  0.00  0.00    +0.000 A 
ATOM     19  C   UNL     1       9.461  10.286  19.847  0.00  0.00    +0.000 A 
ENDBRANCH  13  18
ENDBRANCH  12  13
ENDBRANCH  11  12
ENDBRANCH   1  11
BRANCH   3  20
ATOM     20  C   UNL     1       3.314   5.975  17.974  0.00  0.00    +0.000 C 
BRANCH  20  21
ATOM     21  C   UNL     1       2.634   4.892  18.779  0.00  0.00    +0.000 A 
ATOM     22  C   UNL     1       1.775   3.972  18.174  0.00  0.00    +0.000 A 
ATOM     23  C   UNL     1       1.120   3.049  18.972  0.00  0.00    +0.000 A 
ATOM     24  N   UNL     1       1.268   2.970  20.311  0.00  0.00    +0.000 NA
ATOM     25  C   UNL     1       2.114   3.854  20.878  0.00  0.00    +0.000 A 
ATOM     26  C   UNL     1       2.817   4.811  20.165  0.00  0.00    +0.000 A 
ENDBRANCH  20  21
ENDBRANCH   3  20
TORSDOF 6
ENDMDL
MODEL 5
REMARK VINA RESULT:      -7.4      1.886      2.422
REMARK  Name = 
REMARK  6 active torsions:
REMARK  status: ('A' for Active; 'I' for Inactive)
REMARK    1  A    between atoms: C_5  and  C_6
REMARK    2  A    between atoms: C_6  and  O_7
REMARK    3  A    between atoms: O_7  and  C_8
REMARK    4  A    between atoms: C_8  and  C_9
REMARK    5  A    between atoms: N_11  and  C_12
REMARK    6  A    between atoms: C_12  and  C_13
REMARK                            x       y       z     vdW  Elec       q    Type
REMARK                         _______ _______ _______ _____ _____    ______ ____
ROOT
ATOM      1  C   UNL     1       3.431   6.295  19.110  0.00  0.00    +0.000 C 
ATOM      2  C   UNL     1       4.149   5.130  18.415  0.00  0.00    +0.000 C 
ATOM      3  N   UNL     1       3.387   4.389  17.407  0.00  0.00    +0.000 NA
ATOM      4  C   UNL     1       2.077   3.864  17.795  0.00  0.00    +0.000 C 
ATOM      5  C   UNL     1       1.894   3.550  19.234  0.00  0.00    +0.000 A 
ATOM      6  C   UNL     1       1.487   2.399  19.880  0.00  0.00    +0.000 A 
ATOM      7  C   UNL     1       1.392   2.755  21.236  0.00  0.00    +0.000 A 
ATOM      8  N   UNL     1       1.718   4.030  21.448  0.00  0.00    +0.000 NA
ATOM      9  N   UNL     1       2.017   4.494  20.219  0.00  0.00    +0.000 N 
ATOM     10  C   UNL     1       2.264   5.906  20.038  0.00  0.00    +0.000 C 
ENDROOT
BRANCH   1  11
ATOM     11  C   UNL     1       2.997   7.375  18.110  0.00  0.00    +0.000 C 
BRANCH  11  12
ATOM     12  O   UNL     1       1.845   8.041  18.631  0.00  0.00    +0.000 OA
BRANCH  12  13
ATOM     13  C   UNL     1       1.513   9.204  17.877  0.00  0.00    +0.000 C 
BRANCH  13  18
ATOM     14  C   UNL     1      -1.674  11.048  18.869  0.00  0.00    +0.000 A 
ATOM     15  C   UNL     1      -1.211  11.654  20.022  0.00  0.00    +0.000 A 
ATOM     16  N   UNL     1       0.045  11.510  20.493  0.00  0.00    +0.000 NA
ATOM     17  C   UNL     1       0.868  10.708  19.780  0.00  0.00    +0.000 A 
ATOM     18  C   UNL     1       0.505  10.039  18.617  0.00  0.00    +0.000 A 
ATOM     19  C   UNL     1      -0.800  10.232  18.153  0.00  0.00    +0.000 A 
ENDBRANCH  13  18
ENDBRANCH  12  13
ENDBRANCH  11  12
ENDBRANCH   1  11
BRANCH   3  20
ATOM     20  C   UNL     1       4.210   3.446  16.630  0.00  0.00    +0.000 C 
BRANCH  20  21
ATOM     21  C   UNL     1       5.446   4.030  15.986  0.00  0.00    +0.000 A 
ATOM     22  C   UNL     1       6.545   4.420  16.753  0.00  0.00    +0.000 A 
ATOM     23  C   UNL     1       7.621   5.019  16.118  0.00  0.00    +0.000 A 
ATOM     24  N   UNL     1       7.683   5.242  14.787  0.00  0.00    +0.000 NA
ATOM     25  C   UNL     1       6.620   4.844  14.059  0.00  0.00    +0.000 A 
ATOM     26  C   UNL     1       5.501   4.234  14.601  0.00  0.00    +0.000 A 
ENDBRANCH  20  21
ENDBRANCH   3  20
TORSDOF 6
ENDMDL
MODEL 6
REMARK VINA RESULT:      -7.4      4.063      7.174
REMARK  Name = 
REMARK  6 active torsions:
REMARK  status: ('A' for Active; 'I' for Inactive)
REMARK    1  A    between atoms: C_5  and  C_6
REMARK    2  A    between atoms: C_6  and  O_7
REMARK    3  A    between atoms: O_7  and  C_8
REMARK    4  A    between atoms: C_8  and  C_9
REMARK    5  A    between atoms: N_11  and  C_12
REMARK    6  A    between atoms: C_12  and  C_13
REMARK                            x       y       z     vdW  Elec       q    Type
REMARK                         _______ _______ _______ _____ _____    ______ ____
ROOT
ATOM      1  C   UNL     1       6.923   7.043  17.160  0.00  0.00    +0.000 C 
ATOM      2  C   UNL     1       5.388   7.038  17.177  0.00  0.00    +0.000 C 
ATOM      3  N   UNL     1       4.736   5.873  17.780  0.00  0.00    +0.000 NA
ATOM      4  C   UNL     1       5.125   4.548  17.296  0.00  0.00    +0.000 C 
ATOM      5  C   UNL     1       5.610   4.476  15.895  0.00  0.00    +0.000 A 
ATOM      6  C   UNL     1       5.209   3.703  14.822  0.00  0.00    +0.000 A 
ATOM      7  C   UNL     1       6.126   3.997  13.798  0.00  0.00    +0.000 A 
ATOM      8  N   UNL     1       7.039   4.892  14.178  0.00  0.00    +0.000 NA
ATOM      9  N   UNL     1       6.708   5.167  15.455  0.00  0.00    +0.000 N 
ATOM     10  C   UNL     1       7.587   5.991  16.251  0.00  0.00    +0.000 C 
ENDROOT
BRANCH   1  11
ATOM     11  C   UNL     1       7.507   6.989  18.577  0.00  0.00    +0.000 C 
BRANCH  11  12
ATOM     12  O   UNL     1       8.604   7.903  18.652  0.00  0.00    +0.000 OA
BRANCH  12  13
ATOM     13  C   UNL     1       8.258   9.194  18.156  0.00  0.00    +0.000 C 
BRANCH  13  18
ATOM     14  C   UNL     1      10.067  11.532  20.565  0.00  0.00    +0.000 A 
ATOM     15  C   UNL     1      10.827  12.228  19.646  0.00  0.00    +0.000 A 
ATOM     16  N   UNL     1      10.795  11.997  18.316  0.00  0.00    +0.000 NA
ATOM     17  C   UNL     1       9.971  11.011  17.896  0.00  0.00    +0.000 A 
ATOM     18  C   UNL     1       9.173  10.239  18.732  0.00  0.00    +0.000 A 
ATOM     19  C   UNL     1       9.222  10.526  20.101  0.00  0.00    +0.000 A 
ENDBRANCH  13  18
ENDBRANCH  12  13
ENDBRANCH  11  12
ENDBRANCH   1  11
BRANCH   3  20
ATOM     20  C   UNL     1       3.285   6.047  17.965  0.00  0.00    +0.000 C 
BRANCH  20  21
ATOM     21  C   UNL     1       2.579   4.935  18.706  0.00  0.00    +0.000 A 
ATOM     22  C   UNL     1       2.768   4.746  20.076  0.00  0.00    +0.000 A 
ATOM     23  C   UNL     1       2.156   3.664  20.689  0.00  0.00    +0.000 A 
ATOM     24  N   UNL     1       1.368   2.778  20.044  0.00  0.00    +0.000 NA
ATOM     25  C   UNL     1       1.182   2.986  18.725  0.00  0.00    +0.000 A 
ATOM     26  C   UNL     1       1.747   4.038  18.024  0.00  0.00    +0.000 A 
ENDBRANCH  20  21
ENDBRANCH   3  20
TORSDOF 6
ENDMDL
MODEL 7
REMARK VINA RESULT:      -7.4      0.841      1.133
REMARK  Name = 
REMARK  6 active torsions:
REMARK  status: ('A' for Active; 'I' for Inactive)
REMARK    1  A    between atoms: C_5  and  C_6
REMARK    2  A    between atoms: C_6  and  O_7
REMARK    3  A    between atoms: O_7  and  C_8
REMARK    4  A    between atoms: C_8  and  C_9
REMARK    5  A    between atoms: N_11  and  C_12
REMARK    6  A    between atoms: C_12  and  C_13
REMARK                            x       y       z     vdW  Elec       q    Type
REMARK                         _______ _______ _______ _____ _____    ______ ____
ROOT
ATOM      1  C   UNL     1       2.497   5.405  20.656  0.00  0.00    +0.000 C 
ATOM      2  C   UNL     1       3.568   5.905  19.676  0.00  0.00    +0.000 C 
ATOM      3  N   UNL     1       3.172   6.040  18.273  0.00  0.00    +0.000 NA
ATOM      4  C   UNL     1       2.562   4.878  17.624  0.00  0.00    +0.000 C 
ATOM      5  C   UNL     1       2.952   3.548  18.154  0.00  0.00    +0.000 A 
ATOM      6  C   UNL     1       3.470   2.427  17.535  0.00  0.00    +0.000 A 
ATOM      7  C   UNL     1       3.515   1.444  18.538  0.00  0.00    +0.000 A 
ATOM      8  N   UNL     1       3.068   1.897  19.710  0.00  0.00    +0.000 NA
ATOM      9  N   UNL     1       2.730   3.175  19.454  0.00  0.00    +0.000 N 
ATOM     10  C   UNL     1       2.048   3.943  20.469  0.00  0.00    +0.000 C 
ENDROOT
BRANCH   1  11
ATOM     11  C   UNL     1       1.287   6.347  20.704  0.00  0.00    +0.000 C 
BRANCH  11  12
ATOM     12  O   UNL     1       1.749   7.688  20.532  0.00  0.00    +0.000 OA
BRANCH  12  13
ATOM     13  C   UNL     1       1.198   8.573  21.505  0.00  0.00    +0.000 C 
BRANCH  13  18
ATOM     14  C   UNL     1      -0.323  10.910  18.904  0.00  0.00    +0.000 A 
ATOM     15  C   UNL     1      -1.075  11.701  19.751  0.00  0.00    +0.000 A 
ATOM     16  N   UNL     1      -1.122  11.534  21.090  0.00  0.00    +0.000 NA
ATOM     17  C   UNL     1      -0.391  10.515  21.595  0.00  0.00    +0.000 A 
ATOM     18  C   UNL     1       0.388   9.649  20.836  0.00  0.00    +0.000 A 
ATOM     19  C   UNL     1       0.424   9.872  19.456  0.00  0.00    +0.000 A 
ENDBRANCH  13  18
ENDBRANCH  12  13
ENDBRANCH  11  12
ENDBRANCH   1  11
BRANCH   3  20
ATOM     20  C   UNL     1       4.173   6.737  17.447  0.00  0.00    +0.000 C 
BRANCH  20  21
ATOM     21  C   UNL     1       5.370   5.913  17.032  0.00  0.00    +0.000 A 
ATOM     22  C   UNL     1       6.329   5.511  17.962  0.00  0.00    +0.000 A 
ATOM     23  C   UNL     1       7.445   4.823  17.513  0.00  0.00    +0.000 A 
ATOM     24  N   UNL     1       7.662   4.500  16.220  0.00  0.00    +0.000 NA
ATOM     25  C   UNL     1       6.717   4.881  15.336  0.00  0.00    +0.000 A 
ATOM     26  C   UNL     1       5.568   5.569  15.688  0.00  0.00    +0.000 A 
ENDBRANCH  20  21
ENDBRANCH   3  20
TORSDOF 6
ENDMDL
MODEL 8
REMARK VINA RESULT:      -7.3      1.144      1.693
REMARK  Name = 
REMARK  6 active torsions:
REMARK  status: ('A' for Active; 'I' for Inactive)
REMARK    1  A    between atoms: C_5  and  C_6
REMARK    2  A    between atoms: C_6  and  O_7
REMARK    3  A    between atoms: O_7  and  C_8
REMARK    4  A    between atoms: C_8  and  C_9
REMARK    5  A    between atoms: N_11  and  C_12
REMARK    6  A    between atoms: C_12  and  C_13
REMARK                            x       y       z     vdW  Elec       q    Type
REMARK                         _______ _______ _______ _____ _____    ______ ____
ROOT
ATOM      1  C   UNL     1       2.545   5.392  20.607  0.00  0.00    +0.000 C 
ATOM      2  C   UNL     1       3.608   5.906  19.626  0.00  0.00    +0.000 C 
ATOM      3  N   UNL     1       3.210   6.028  18.221  0.00  0.00    +0.000 NA
ATOM      4  C   UNL     1       2.620   4.853  17.578  0.00  0.00    +0.000 C 
ATOM      5  C   UNL     1       3.033   3.532  18.114  0.00  0.00    +0.000 A 
ATOM      6  C   UNL     1       3.570   2.418  17.500  0.00  0.00    +0.000 A 
ATOM      7  C   UNL     1       3.632   1.439  18.508  0.00  0.00    +0.000 A 
ATOM      8  N   UNL     1       3.177   1.890  19.678  0.00  0.00    +0.000 NA
ATOM      9  N   UNL     1       2.817   3.161  19.415  0.00  0.00    +0.000 N 
ATOM     10  C   UNL     1       2.122   3.922  20.427  0.00  0.00    +0.000 C 
ENDROOT
BRANCH   1  11
ATOM     11  C   UNL     1       1.319   6.313  20.651  0.00  0.00    +0.000 C 
BRANCH  11  12
ATOM     12  O   UNL     1       1.770   7.669  20.638  0.00  0.00    +0.000 OA
BRANCH  12  13
ATOM     13  C   UNL     1       0.991   8.500  21.496  0.00  0.00    +0.000 C 
BRANCH  13  18
ATOM     14  C   UNL     1      -0.955  11.634  20.528  0.00  0.00    +0.000 A 
ATOM     15  C   UNL     1      -0.597  11.696  19.195  0.00  0.00    +0.000 A 
ATOM     16  N   UNL     1       0.221  10.804  18.595  0.00  0.00    +0.000 NA
ATOM     17  C   UNL     1       0.710   9.815  19.376  0.00  0.00    +0.000 A 
ATOM     18  C   UNL     1       0.428   9.664  20.729  0.00  0.00    +0.000 A 
ATOM     19  C   UNL     1      -0.440  10.598  21.305  0.00  0.00    +0.000 A 
ENDBRANCH  13  18
ENDBRANCH  12  13
ENDBRANCH  11  12
ENDBRANCH   1  11
BRANCH   3  20
ATOM     20  C   UNL     1       4.199   6.738  17.393  0.00  0.00    +0.000 C 
BRANCH  20  21
ATOM     21  C   UNL     1       5.451   5.963  17.056  0.00  0.00    +0.000 A 
ATOM     22  C   UNL     1       5.683   5.492  15.762  0.00  0.00    +0.000 A 
ATOM     23  C   UNL     1       6.811   4.721  15.527  0.00  0.00    +0.000 A 
ATOM     24  N   UNL     1       7.718   4.403  16.475  0.00  0.00    +0.000 NA
ATOM     25  C   UNL     1       7.487   4.880  17.715  0.00  0.00    +0.000 A 
ATOM     26  C   UNL     1       6.393   5.660  18.047  0.00  0.00    +0.000 A 
ENDBRANCH  20  21
ENDBRANCH   3  20
TORSDOF 6
ENDMDL
MODEL 9
REMARK VINA RESULT:      -7.3      1.840      2.613
REMARK  Name = 
REMARK  6 active torsions:
REMARK  status: ('A' for Active; 'I' for Inactive)
REMARK    1  A    between atoms: C_5  and  C_6
REMARK    2  A    between atoms: C_6  and  O_7
REMARK    3  A    between atoms: O_7  and  C_8
REMARK    4  A    between atoms: C_8  and  C_9
REMARK    5  A    between atoms: N_11  and  C_12
REMARK    6  A    between atoms: C_12  and  C_13
REMARK                            x       y       z     vdW  Elec       q    Type
REMARK                         _______ _______ _______ _____ _____    ______ ____
ROOT
ATOM      1  C   UNL     1       3.297   6.284  19.164  0.00  0.00    +0.000 C 
ATOM      2  C   UNL     1       4.077   5.162  18.465  0.00  0.00    +0.000 C 
ATOM      3  N   UNL     1       3.356   4.381  17.457  0.00  0.00    +0.000 NA
ATOM      4  C   UNL     1       2.078   3.784  17.847  0.00  0.00    +0.000 C 
ATOM      5  C   UNL     1       1.915   3.457  19.285  0.00  0.00    +0.000 A 
ATOM      6  C   UNL     1       1.575   2.284  19.929  0.00  0.00    +0.000 A 
ATOM      7  C   UNL     1       1.463   2.631  21.287  0.00  0.00    +0.000 A 
ATOM      8  N   UNL     1       1.717   3.923  21.500  0.00  0.00    +0.000 NA
ATOM      9  N   UNL     1       1.988   4.405  20.272  0.00  0.00    +0.000 N 
ATOM     10  C   UNL     1       2.156   5.829  20.093  0.00  0.00    +0.000 C 
ENDROOT
BRANCH   1  11
ATOM     11  C   UNL     1       2.802   7.339  18.167  0.00  0.00    +0.000 C 
BRANCH  11  12
ATOM     12  O   UNL     1       2.153   8.384  18.895  0.00  0.00    +0.000 OA
BRANCH  12  13
ATOM     13  C   UNL     1       1.301   9.168  18.062  0.00  0.00    +0.000 C 
BRANCH  13  18
ATOM     14  C   UNL     1      -0.287  11.008  21.001  0.00  0.00    +0.000 A 
ATOM     15  C   UNL     1      -1.331  11.610  20.327  0.00  0.00    +0.000 A 
ATOM     16  N   UNL     1      -1.555  11.463  19.004  0.00  0.00    +0.000 NA
ATOM     17  C   UNL     1      -0.680  10.687  18.327  0.00  0.00    +0.000 A 
ATOM     18  C   UNL     1       0.413  10.045  18.899  0.00  0.00    +0.000 A 
ATOM     19  C   UNL     1       0.596  10.208  20.277  0.00  0.00    +0.000 A 
ENDBRANCH  13  18
ENDBRANCH  12  13
ENDBRANCH  11  12
ENDBRANCH   1  11
BRANCH   3  20
ATOM     20  C   UNL     1       4.228   3.488  16.676  0.00  0.00    +0.000 C 
BRANCH  20  21
ATOM     21  C   UNL     1       5.386   4.153  15.970  0.00  0.00    +0.000 A 
ATOM     22  C   UNL     1       5.482   4.150  14.577  0.00  0.00    +0.000 A 
ATOM     23  C   UNL     1       6.604   4.708  13.986  0.00  0.00    +0.000 A 
ATOM     24  N   UNL     1       7.618   5.273  14.676  0.00  0.00    +0.000 NA
ATOM     25  C   UNL     1       7.502   5.283  16.019  0.00  0.00    +0.000 A 
ATOM     26  C   UNL     1       6.419   4.754  16.701  0.00  0.00    +0.000 A 
ENDBRANCH  20  21
ENDBRANCH   3  20
TORSDOF 6
ENDMDL
