MODEL 1
REMARK VINA RESULT:      -8.0      0.000      0.000
REMARK  Name = 
REMARK  7 active torsions:
REMARK  status: ('A' for Active; 'I' for Inactive)
REMARK    1  A    between atoms: C_2  and  C_3
REMARK    2  A    between atoms: C_2  and  C_19
REMARK    3  A    between atoms: C_3  and  N_4
REMARK    4  A    between atoms: N_7  and  C_8
REMARK    5  A    between atoms: C_8  and  C_9
REMARK    6  A    between atoms: C_10  and  C_11
REMARK    7  A    between atoms: C_19  and  N_20
REMARK                            x       y       z     vdW  Elec       q    Type
REMARK                         _______ _______ _______ _____ _____    ______ ____
ROOT
ATOM      1  O   UNL     1       1.560   7.964  17.842  0.00  0.00    +0.000 OA
ATOM      2  C   UNL     1       2.029   8.091  18.968  0.00  0.00    +0.000 C 
ENDROOT
BRANCH   2   3
ATOM      3  C   UNL     1       1.684   9.338  19.703  0.00  0.00    +0.000 C 
BRANCH   3   4
ATOM      4  N   UNL     1       0.446   9.929  19.147  0.00  0.00    +0.000 NA
ATOM      5  C   UNL     1      -0.678   9.840  20.094  0.00  0.00    +0.000 C 
ATOM      6  C   UNL     1      -0.526  10.868  21.229  0.00  0.00    +0.000 C 
ATOM      7  N   UNL     1      -0.363  12.246  20.705  0.00  0.00    +0.000 NA
ATOM      8  C   UNL     1       0.764  12.315  19.757  0.00  0.00    +0.000 C 
ATOM      9  C   UNL     1       0.577  11.309  18.618  0.00  0.00    +0.000 C 
BRANCH   7  10
ATOM     10  C   UNL     1      -1.596  12.828  20.128  0.00  0.00    +0.000 C 
BRANCH  10  11
ATOM     11  C   UNL     1      -2.734  12.717  21.088  0.00  0.00    +0.000 C 
ATOM     12  C   UNL     1      -3.999  12.678  20.647  0.00  0.00    +0.000 C 
BRANCH  12  13
ATOM     13  C   UNL     1      -5.171  12.667  21.546  0.00  0.00    +0.000 A 
ATOM     14  C   UNL     1      -4.987  13.060  22.881  0.00  0.00    +0.000 A 
ATOM     15  C   UNL     1      -6.048  13.014  23.784  0.00  0.00    +0.000 A 
ATOM     16  C   UNL     1      -7.311  12.596  23.360  0.00  0.00    +0.000 A 
ATOM     17  C   UNL     1      -7.513  12.220  22.029  0.00  0.00    +0.000 A 
ATOM     18  C   UNL     1      -6.452  12.247  21.130  0.00  0.00    +0.000 A 
ENDBRANCH  12  13
ENDBRANCH  10  11
ENDBRANCH   7  10
ENDBRANCH   3   4
ENDBRANCH   2   3
BRANCH   2  19
ATOM     19  C   UNL     1       2.793   6.932  19.591  0.00  0.00    +0.000 C 
BRANCH  19  20
ATOM     20  N   UNL     1       2.796   5.946  18.514  0.00  0.00    +0.000 N 
ATOM     21  C   UNL     1       3.766   5.812  17.583  0.00  0.00    +0.000 A 
ATOM     22  C   UNL     1       4.688   6.772  17.161  0.00  0.00    +0.000 A 
ATOM     23  C   UNL     1       5.659   6.374  16.223  0.00  0.00    +0.000 A 
ATOM     24  C   UNL     1       5.701   5.039  15.763  0.00  0.00    +0.000 A 
ATOM     25  C   UNL     1       4.782   4.087  16.223  0.00  0.00    +0.000 A 
ATOM     26  C   UNL     1       3.809   4.509  17.127  0.00  0.00    +0.000 A 
ATOM     27  C   UNL     1       2.822   3.824  17.809  0.00  0.00    +0.000 A 
ATOM     28  C   UNL     1       2.489   2.469  17.857  0.00  0.00    +0.000 A 
ATOM     29  C   UNL     1       1.456   2.076  18.736  0.00  0.00    +0.000 A 
ATOM     30  C   UNL     1       0.775   3.030  19.521  0.00  0.00    +0.000 A 
ATOM     31  C   UNL     1       1.149   4.377  19.476  0.00  0.00    +0.000 A 
ATOM     32  C   UNL     1       2.190   4.743  18.613  0.00  0.00    +0.000 A 
ENDBRANCH  19  20
ENDBRANCH   2  19
TORSDOF 7
ENDMDL
MODEL 2
REMARK VINA RESULT:      -7.9      1.079      1.706
REMARK  Name = 
REMARK  7 active torsions:
REMARK  status: ('A' for Active; 'I' for Inactive)
REMARK    1  A    between atoms: C_2  and  C_3
REMARK    2  A    between atoms: C_2  and  C_19
REMARK    3  A    between atoms: C_3  and  N_4
REMARK    4  A    between atoms: N_7  and  C_8
REMARK    5  A    between atoms: C_8  and  C_9
REMARK    6  A    between atoms: C_10  and  C_11
REMARK    7  A    between atoms: C_19  and  N_20
REMARK                            x       y       z     vdW  Elec       q    Type
REMARK                         _______ _______ _______ _____ _____    ______ ____
ROOT
ATOM      1  O   UNL     1       1.036   7.848  17.456  0.00  0.00    +0.000 OA
ATOM      2  C   UNL     1       1.841   8.404  18.195  0.00  0.00    +0.000 C 
ENDROOT
BRANCH   2   3
ATOM      3  C   UNL     1       1.864   9.892  18.164  0.00  0.00    +0.000 C 
BRANCH   3   4
ATOM      4  N   UNL     1       1.195  10.434  19.369  0.00  0.00    +0.000 NA
ATOM      5  C   UNL     1       1.451  11.875  19.535  0.00  0.00    +0.000 C 
ATOM      6  C   UNL     1       0.629  12.702  18.531  0.00  0.00    +0.000 C 
ATOM      7  N   UNL     1      -0.818  12.392  18.617  0.00  0.00    +0.000 NA
ATOM      8  C   UNL     1      -1.055  10.946  18.451  0.00  0.00    +0.000 C 
ATOM      9  C   UNL     1      -0.256  10.144  19.481  0.00  0.00    +0.000 C 
BRANCH   7  10
ATOM     10  C   UNL     1      -1.482  12.915  19.833  0.00  0.00    +0.000 C 
BRANCH  10  11
ATOM     11  C   UNL     1      -2.849  12.333  19.982  0.00  0.00    +0.000 C 
ATOM     12  C   UNL     1      -3.872  13.091  20.402  0.00  0.00    +0.000 C 
BRANCH  12  13
ATOM     13  C   UNL     1      -5.224  12.556  20.662  0.00  0.00    +0.000 A 
ATOM     14  C   UNL     1      -5.852  11.816  19.647  0.00  0.00    +0.000 A 
ATOM     15  C   UNL     1      -7.149  11.337  19.821  0.00  0.00    +0.000 A 
ATOM     16  C   UNL     1      -7.828  11.570  21.019  0.00  0.00    +0.000 A 
ATOM     17  C   UNL     1      -7.208  12.288  22.045  0.00  0.00    +0.000 A 
ATOM     18  C   UNL     1      -5.920  12.784  21.868  0.00  0.00    +0.000 A 
ENDBRANCH  12  13
ENDBRANCH  10  11
ENDBRANCH   7  10
ENDBRANCH   3   4
ENDBRANCH   2   3
BRANCH   2  19
ATOM     19  C   UNL     1       2.644   7.571  19.183  0.00  0.00    +0.000 C 
BRANCH  19  20
ATOM     20  N   UNL     1       2.706   6.273  18.519  0.00  0.00    +0.000 N 
ATOM     21  C   UNL     1       3.632   5.907  17.607  0.00  0.00    +0.000 A 
ATOM     22  C   UNL     1       4.411   6.735  16.796  0.00  0.00    +0.000 A 
ATOM     23  C   UNL     1       5.370   6.122  15.968  0.00  0.00    +0.000 A 
ATOM     24  C   UNL     1       5.544   4.720  15.996  0.00  0.00    +0.000 A 
ATOM     25  C   UNL     1       4.770   3.913  16.841  0.00  0.00    +0.000 A 
ATOM     26  C   UNL     1       3.804   4.537  17.628  0.00  0.00    +0.000 A 
ATOM     27  C   UNL     1       2.944   4.050  18.593  0.00  0.00    +0.000 A 
ATOM     28  C   UNL     1       2.776   2.776  19.138  0.00  0.00    +0.000 A 
ATOM     29  C   UNL     1       1.846   2.627  20.189  0.00  0.00    +0.000 A 
ATOM     30  C   UNL     1       1.101   3.730  20.655  0.00  0.00    +0.000 A 
ATOM     31  C   UNL     1       1.310   5.002  20.111  0.00  0.00    +0.000 A 
ATOM     32  C   UNL     1       2.252   5.133  19.083  0.00  0.00    +0.000 A 
ENDBRANCH  19  20
ENDBRANCH   2  19
TORSDOF 7
ENDMDL
MODEL 3
REMARK VINA RESULT:      -7.8      1.353      1.863
REMARK  Name = 
REMARK  7 active torsions:
REMARK  status: ('A' for Active; 'I' for Inactive)
REMARK    1  A    between atoms: C_2  and  C_3
REMARK    2  A    between atoms: C_2  and  C_19
REMARK    3  A    between atoms: C_3  and  N_4
REMARK    4  A    between atoms: N_7  and  C_8
REMARK    5  A    between atoms: C_8  and  C_9
REMARK    6  A    between atoms: C_10  and  C_11
REMARK    7  A    between atoms: C_19  and  N_20
REMARK                            x       y       z     vdW  Elec       q    Type
REMARK                         _______ _______ _______ _____ _____    ______ ____
ROOT
ATOM      1  O   UNL     1       2.389   8.381  17.608  0.00  0.00    +0.000 OA
ATOM      2  C   UNL     1       2.240   7.972  18.755  0.00  0.00    +0.000 C 
ENDROOT
BRANCH   2   3
ATOM      3  C   UNL     1       1.017   8.420  19.475  0.00  0.00    +0.000 C 
BRANCH   3   4
ATOM      4  N   UNL     1       1.354   9.514  20.413  0.00  0.00    +0.000 NA
ATOM      5  C   UNL     1       0.729  10.788  20.017  0.00  0.00    +0.000 C 
ATOM      6  C   UNL     1      -0.777  10.786  20.333  0.00  0.00    +0.000 C 
ATOM      7  N   UNL     1      -1.040  10.471  21.757  0.00  0.00    +0.000 NA
ATOM      8  C   UNL     1      -0.406   9.195  22.137  0.00  0.00    +0.000 C 
ATOM      9  C   UNL     1       1.097   9.229  21.847  0.00  0.00    +0.000 C 
BRANCH   7  10
ATOM     10  C   UNL     1      -0.682  11.557  22.699  0.00  0.00    +0.000 C 
BRANCH  10  11
ATOM     11  C   UNL     1      -1.776  12.570  22.778  0.00  0.00    +0.000 C 
ATOM     12  C   UNL     1      -2.846  12.362  23.559  0.00  0.00    +0.000 C 
BRANCH  12  13
ATOM     13  C   UNL     1      -4.005  13.276  23.608  0.00  0.00    +0.000 A 
ATOM     14  C   UNL     1      -3.759  14.657  23.661  0.00  0.00    +0.000 A 
ATOM     15  C   UNL     1      -4.815  15.560  23.764  0.00  0.00    +0.000 A 
ATOM     16  C   UNL     1      -6.133  15.096  23.795  0.00  0.00    +0.000 A 
ATOM     17  C   UNL     1      -6.393  13.725  23.724  0.00  0.00    +0.000 A 
ATOM     18  C   UNL     1      -5.340  12.820  23.640  0.00  0.00    +0.000 A 
ENDBRANCH  12  13
ENDBRANCH  10  11
ENDBRANCH   7  10
ENDBRANCH   3   4
ENDBRANCH   2   3
BRANCH   2  19
ATOM     19  C   UNL     1       3.209   6.938  19.308  0.00  0.00    +0.000 C 
BRANCH  19  20
ATOM     20  N   UNL     1       3.100   5.855  18.335  0.00  0.00    +0.000 N 
ATOM     21  C   UNL     1       4.021   5.557  17.393  0.00  0.00    +0.000 A 
ATOM     22  C   UNL     1       4.995   6.398  16.850  0.00  0.00    +0.000 A 
ATOM     23  C   UNL     1       5.898   5.837  15.927  0.00  0.00    +0.000 A 
ATOM     24  C   UNL     1       5.824   4.465  15.600  0.00  0.00    +0.000 A 
ATOM     25  C   UNL     1       4.855   3.636  16.181  0.00  0.00    +0.000 A 
ATOM     26  C   UNL     1       3.950   4.217  17.067  0.00  0.00    +0.000 A 
ATOM     27  C   UNL     1       2.942   3.679  17.843  0.00  0.00    +0.000 A 
ATOM     28  C   UNL     1       2.511   2.366  18.036  0.00  0.00    +0.000 A 
ATOM     29  C   UNL     1       1.486   2.141  18.979  0.00  0.00    +0.000 A 
ATOM     30  C   UNL     1       0.908   3.215  19.686  0.00  0.00    +0.000 A 
ATOM     31  C   UNL     1       1.378   4.519  19.496  0.00  0.00    +0.000 A 
ATOM     32  C   UNL     1       2.411   4.719  18.570  0.00  0.00    +0.000 A 
ENDBRANCH  19  20
ENDBRANCH   2  19
TORSDOF 7
ENDMDL
MODEL 4
REMARK VINA RESULT:      -7.8      1.201      1.796
REMARK  Name = 
REMARK  7 active torsions:
REMARK  status: ('A' for Active; 'I' for Inactive)
REMARK    1  A    between atoms: C_2  and  C_3
REMARK    2  A    between atoms: C_2  and  C_19
REMARK    3  A    between atoms: C_3  and  N_4
REMARK    4  A    between atoms: N_7  and  C_8
REMARK    5  A    between atoms: C_8  and  C_9
REMARK    6  A    between atoms: C_10  and  C_11
REMARK    7  A    between atoms: C_19  and  N_20
REMARK                            x       y       z     vdW  Elec       q    Type
REMARK                         _______ _______ _______ _____ _____    ______ ____
ROOT
ATOM      1  O   UNL     1       2.639   8.113  17.005  0.00  0.00    +0.000 OA
ATOM      2  C   UNL     1       2.707   7.940  18.217  0.00  0.00    +0.000 C 
ENDROOT
BRANCH   2   3
ATOM      3  C   UNL     1       1.704   8.653  19.055  0.00  0.00    +0.000 C 
BRANCH   3   4
ATOM      4  N   UNL     1       1.119   9.781  18.295  0.00  0.00    +0.000 NA
ATOM      5  C   UNL     1      -0.353   9.730  18.287  0.00  0.00    +0.000 C 
ATOM      6  C   UNL     1      -0.928  10.160  19.648  0.00  0.00    +0.000 C 
ATOM      7  N   UNL     1      -0.432  11.495  20.058  0.00  0.00    +0.000 NA
ATOM      8  C   UNL     1       1.042  11.528  20.058  0.00  0.00    +0.000 C 
ATOM      9  C   UNL     1       1.594  11.131  18.687  0.00  0.00    +0.000 C 
BRANCH   7  10
ATOM     10  C   UNL     1      -1.001  12.622  19.283  0.00  0.00    +0.000 C 
BRANCH  10  11
ATOM     11  C   UNL     1      -2.461  12.418  19.048  0.00  0.00    +0.000 C 
ATOM     12  C   UNL     1      -3.352  12.674  20.017  0.00  0.00    +0.000 C 
BRANCH  12  13
ATOM     13  C   UNL     1      -4.797  12.402  19.881  0.00  0.00    +0.000 A 
ATOM     14  C   UNL     1      -5.275  11.952  18.640  0.00  0.00    +0.000 A 
ATOM     15  C   UNL     1      -6.637  11.735  18.444  0.00  0.00    +0.000 A 
ATOM     16  C   UNL     1      -7.538  11.942  19.491  0.00  0.00    +0.000 A 
ATOM     17  C   UNL     1      -7.074  12.371  20.737  0.00  0.00    +0.000 A 
ATOM     18  C   UNL     1      -5.717  12.607  20.931  0.00  0.00    +0.000 A 
ENDBRANCH  12  13
ENDBRANCH  10  11
ENDBRANCH   7  10
ENDBRANCH   3   4
ENDBRANCH   2   3
BRANCH   2  19
ATOM     19  C   UNL     1       3.690   6.919  18.769  0.00  0.00    +0.000 C 
BRANCH  19  20
ATOM     20  N   UNL     1       3.524   5.797  17.850  0.00  0.00    +0.000 N 
ATOM     21  C   UNL     1       4.430   5.404  16.929  0.00  0.00    +0.000 A 
ATOM     22  C   UNL     1       5.450   6.163  16.351  0.00  0.00    +0.000 A 
ATOM     23  C   UNL     1       6.324   5.510  15.461  0.00  0.00    +0.000 A 
ATOM     24  C   UNL     1       6.176   4.130  15.201  0.00  0.00    +0.000 A 
ATOM     25  C   UNL     1       5.162   3.383  15.816  0.00  0.00    +0.000 A 
ATOM     26  C   UNL     1       4.288   4.056  16.668  0.00  0.00    +0.000 A 
ATOM     27  C   UNL     1       3.250   3.611  17.464  0.00  0.00    +0.000 A 
ATOM     28  C   UNL     1       2.748   2.334  17.718  0.00  0.00    +0.000 A 
ATOM     29  C   UNL     1       1.709   2.211  18.666  0.00  0.00    +0.000 A 
ATOM     30  C   UNL     1       1.188   3.349  19.316  0.00  0.00    +0.000 A 
ATOM     31  C   UNL     1       1.730   4.614  19.066  0.00  0.00    +0.000 A 
ATOM     32  C   UNL     1       2.774   4.712  18.137  0.00  0.00    +0.000 A 
ENDBRANCH  19  20
ENDBRANCH   2  19
TORSDOF 7
ENDMDL
MODEL 5
REMARK VINA RESULT:      -7.8      1.715      2.297
REMARK  Name = 
REMARK  7 active torsions:
REMARK  status: ('A' for Active; 'I' for Inactive)
REMARK    1  A    between atoms: C_2  and  C_3
REMARK    2  A    between atoms: C_2  and  C_19
REMARK    3  A    between atoms: C_3  and  N_4
REMARK    4  A    between atoms: N_7  and  C_8
REMARK    5  A    between atoms: C_8  and  C_9
REMARK    6  A    between atoms: C_10  and  C_11
REMARK    7  A    between atoms: C_19  and  N_20
REMARK                            x       y       z     vdW  Elec       q    Type
REMARK                         _______ _______ _______ _____ _____    ______ ____
ROOT
ATOM      1  O   UNL     1       1.792   7.769  17.484  0.00  0.00    +0.000 OA
ATOM      2  C   UNL     1       2.202   7.946  18.626  0.00  0.00    +0.000 C 
ENDROOT
BRANCH   2   3
ATOM      3  C   UNL     1       1.775   9.198  19.307  0.00  0.00    +0.000 C 
BRANCH   3   4
ATOM      4  N   UNL     1       0.493   8.979  20.014  0.00  0.00    +0.000 NA
ATOM      5  C   UNL     1       0.702   8.489  21.387  0.00  0.00    +0.000 C 
ATOM      6  C   UNL     1       1.184   9.620  22.311  0.00  0.00    +0.000 C 
ATOM      7  N   UNL     1       0.265  10.783  22.283  0.00  0.00    +0.000 NA
ATOM      8  C   UNL     1       0.065  11.259  20.902  0.00  0.00    +0.000 C 
ATOM      9  C   UNL     1      -0.447  10.128  20.007  0.00  0.00    +0.000 C 
BRANCH   7  10
ATOM     10  C   UNL     1      -1.027  10.556  22.971  0.00  0.00    +0.000 C 
BRANCH  10  11
ATOM     11  C   UNL     1      -1.918  11.746  22.829  0.00  0.00    +0.000 C 
ATOM     12  C   UNL     1      -1.915  12.716  23.755  0.00  0.00    +0.000 C 
BRANCH  12  13
ATOM     13  C   UNL     1      -2.839  13.868  23.724  0.00  0.00    +0.000 A 
ATOM     14  C   UNL     1      -3.683  14.013  22.611  0.00  0.00    +0.000 A 
ATOM     15  C   UNL     1      -4.533  15.113  22.507  0.00  0.00    +0.000 A 
ATOM     16  C   UNL     1      -4.568  16.070  23.524  0.00  0.00    +0.000 A 
ATOM     17  C   UNL     1      -3.748  15.928  24.646  0.00  0.00    +0.000 A 
ATOM     18  C   UNL     1      -2.884  14.842  24.744  0.00  0.00    +0.000 A 
ENDBRANCH  12  13
ENDBRANCH  10  11
ENDBRANCH   7  10
ENDBRANCH   3   4
ENDBRANCH   2   3
BRANCH   2  19
ATOM     19  C   UNL     1       2.978   6.836  19.318  0.00  0.00    +0.000 C 
BRANCH  19  20
ATOM     20  N   UNL     1       2.993   5.786  18.304  0.00  0.00    +0.000 N 
ATOM     21  C   UNL     1       3.979   5.587  17.403  0.00  0.00    +0.000 A 
ATOM     22  C   UNL     1       4.918   6.511  16.942  0.00  0.00    +0.000 A 
ATOM     23  C   UNL     1       5.904   6.049  16.049  0.00  0.00    +0.000 A 
ATOM     24  C   UNL     1       5.942   4.688  15.672  0.00  0.00    +0.000 A 
ATOM     25  C   UNL     1       5.005   3.774  16.171  0.00  0.00    +0.000 A 
ATOM     26  C   UNL     1       4.019   4.259  17.028  0.00  0.00    +0.000 A 
ATOM     27  C   UNL     1       3.012   3.624  17.730  0.00  0.00    +0.000 A 
ATOM     28  C   UNL     1       2.665   2.278  17.854  0.00  0.00    +0.000 A 
ATOM     29  C   UNL     1       1.612   1.949  18.734  0.00  0.00    +0.000 A 
ATOM     30  C   UNL     1       0.925   2.954  19.446  0.00  0.00    +0.000 A 
ATOM     31  C   UNL     1       1.313   4.293  19.327  0.00  0.00    +0.000 A 
ATOM     32  C   UNL     1       2.374   4.597  18.464  0.00  0.00    +0.000 A 
ENDBRANCH  19  20
ENDBRANCH   2  19
TORSDOF 7
ENDMDL
MODEL 6
REMARK VINA RESULT:      -7.7      1.280      1.798
REMARK  Name = 
REMARK  7 active torsions:
REMARK  status: ('A' for Active; 'I' for Inactive)
REMARK    1  A    between atoms: C_2  and  C_3
REMARK    2  A    between atoms: C_2  and  C_19
REMARK    3  A    between atoms: C_3  and  N_4
REMARK    4  A    between atoms: N_7  and  C_8
REMARK    5  A    between atoms: C_8  and  C_9
REMARK    6  A    between atoms: C_10  and  C_11
REMARK    7  A    between atoms: C_19  and  N_20
REMARK                            x       y       z     vdW  Elec       q    Type
REMARK                         _______ _______ _______ _____ _____    ______ ____
ROOT
ATOM      1  O   UNL     1       1.273   7.825  17.612  0.00  0.00    +0.000 OA
ATOM      2  C   UNL     1       1.849   8.224  18.618  0.00  0.00    +0.000 C 
ENDROOT
BRANCH   2   3
ATOM      3  C   UNL     1       1.575   9.626  19.036  0.00  0.00    +0.000 C 
BRANCH   3   4
ATOM      4  N   UNL     1       0.348   9.679  19.862  0.00  0.00    +0.000 NA
ATOM      5  C   UNL     1       0.572  10.391  21.132  0.00  0.00    +0.000 C 
ATOM      6  C   UNL     1       0.658  11.910  20.906  0.00  0.00    +0.000 C 
ATOM      7  N   UNL     1      -0.535  12.429  20.194  0.00  0.00    +0.000 NA
ATOM      8  C   UNL     1      -0.745  11.703  18.928  0.00  0.00    +0.000 C 
ATOM      9  C   UNL     1      -0.862  10.198  19.178  0.00  0.00    +0.000 C 
BRANCH   7  10
ATOM     10  C   UNL     1      -1.769  12.460  21.014  0.00  0.00    +0.000 C 
BRANCH  10  11
ATOM     11  C   UNL     1      -2.958  12.772  20.167  0.00  0.00    +0.000 C 
ATOM     12  C   UNL     1      -4.199  12.534  20.617  0.00  0.00    +0.000 C 
BRANCH  12  13
ATOM     13  C   UNL     1      -5.410  12.729  19.795  0.00  0.00    +0.000 A 
ATOM     14  C   UNL     1      -6.445  13.523  20.316  0.00  0.00    +0.000 A 
ATOM     15  C   UNL     1      -7.631  13.693  19.606  0.00  0.00    +0.000 A 
ATOM     16  C   UNL     1      -7.792  13.090  18.356  0.00  0.00    +0.000 A 
ATOM     17  C   UNL     1      -6.763  12.313  17.817  0.00  0.00    +0.000 A 
ATOM     18  C   UNL     1      -5.585  12.126  18.532  0.00  0.00    +0.000 A 
ENDBRANCH  12  13
ENDBRANCH  10  11
ENDBRANCH   7  10
ENDBRANCH   3   4
ENDBRANCH   2   3
BRANCH   2  19
ATOM     19  C   UNL     1       2.670   7.246  19.444  0.00  0.00    +0.000 C 
BRANCH  19  20
ATOM     20  N   UNL     1       2.709   6.067  18.583  0.00  0.00    +0.000 N 
ATOM     21  C   UNL     1       3.659   5.809  17.658  0.00  0.00    +0.000 A 
ATOM     22  C   UNL     1       4.503   6.718  17.018  0.00  0.00    +0.000 A 
ATOM     23  C   UNL     1       5.472   6.201  16.138  0.00  0.00    +0.000 A 
ATOM     24  C   UNL     1       5.589   4.806  15.948  0.00  0.00    +0.000 A 
ATOM     25  C   UNL     1       4.749   3.911  16.624  0.00  0.00    +0.000 A 
ATOM     26  C   UNL     1       3.776   4.446  17.466  0.00  0.00    +0.000 A 
ATOM     27  C   UNL     1       2.857   3.852  18.309  0.00  0.00    +0.000 A 
ATOM     28  C   UNL     1       2.616   2.517  18.637  0.00  0.00    +0.000 A 
ATOM     29  C   UNL     1       1.637   2.246  19.617  0.00  0.00    +0.000 A 
ATOM     30  C   UNL     1       0.917   3.294  20.227  0.00  0.00    +0.000 A 
ATOM     31  C   UNL     1       1.198   4.626  19.901  0.00  0.00    +0.000 A 
ATOM     32  C   UNL     1       2.188   4.875  18.942  0.00  0.00    +0.000 A 
ENDBRANCH  19  20
ENDBRANCH   2  19
TORSDOF 7
ENDMDL
MODEL 7
REMARK VINA RESULT:      -7.7      2.047      3.637
REMARK  Name = 
REMARK  7 active torsions:
REMARK  status: ('A' for Active; 'I' for Inactive)
REMARK    1  A    between atoms: C_2  and  C_3
REMARK    2  A    between atoms: C_2  and  C_19
REMARK    3  A    between atoms: C_3  and  N_4
REMARK    4  A    between atoms: N_7  and  C_8
REMARK    5  A    between atoms: C_8  and  C_9
REMARK    6  A    between atoms: C_10  and  C_11
REMARK    7  A    between atoms: C_19  and  N_20
REMARK                            x       y       z     vdW  Elec       q    Type
REMARK                         _______ _______ _______ _____ _____    ______ ____
ROOT
ATOM      1  O   UNL     1       2.140   9.323  17.434  0.00  0.00    +0.000 OA
ATOM      2  C   UNL     1       2.065   8.423  18.263  0.00  0.00    +0.000 C 
ENDROOT
BRANCH   2   3
ATOM      3  C   UNL     1       2.041   8.829  19.695  0.00  0.00    +0.000 C 
BRANCH   3   4
ATOM      4  N   UNL     1       0.653   8.793  20.209  0.00  0.00    +0.000 NA
ATOM      5  C   UNL     1       0.585   8.217  21.563  0.00  0.00    +0.000 C 
ATOM      6  C   UNL     1       1.101   9.215  22.614  0.00  0.00    +0.000 C 
ATOM      7  N   UNL     1       0.388  10.512  22.538  0.00  0.00    +0.000 NA
ATOM      8  C   UNL     1       0.464  11.072  21.176  0.00  0.00    +0.000 C 
ATOM      9  C   UNL     1      -0.085  10.079  20.149  0.00  0.00    +0.000 C 
BRANCH   7  10
ATOM     10  C   UNL     1      -1.008  10.471  23.031  0.00  0.00    +0.000 C 
BRANCH  10  11
ATOM     11  C   UNL     1      -1.510  11.848  23.314  0.00  0.00    +0.000 C 
ATOM     12  C   UNL     1      -2.778  12.184  23.034  0.00  0.00    +0.000 C 
BRANCH  12  13
ATOM     13  C   UNL     1      -3.309  13.553  23.198  0.00  0.00    +0.000 A 
ATOM     14  C   UNL     1      -3.088  14.208  24.421  0.00  0.00    +0.000 A 
ATOM     15  C   UNL     1      -3.615  15.478  24.647  0.00  0.00    +0.000 A 
ATOM     16  C   UNL     1      -4.352  16.119  23.649  0.00  0.00    +0.000 A 
ATOM     17  C   UNL     1      -4.564  15.486  22.421  0.00  0.00    +0.000 A 
ATOM     18  C   UNL     1      -4.055  14.211  22.198  0.00  0.00    +0.000 A 
ENDBRANCH  12  13
ENDBRANCH  10  11
ENDBRANCH   7  10
ENDBRANCH   3   4
ENDBRANCH   2   3
BRANCH   2  19
ATOM     19  C   UNL     1       1.857   6.992  17.792  0.00  0.00    +0.000 C 
BRANCH  19  20
ATOM     20  N   UNL     1       2.864   6.261  18.555  0.00  0.00    +0.000 N 
ATOM     21  C   UNL     1       2.610   5.249  19.412  0.00  0.00    +0.000 A 
ATOM     22  C   UNL     1       1.417   4.971  20.081  0.00  0.00    +0.000 A 
ATOM     23  C   UNL     1       1.369   3.807  20.873  0.00  0.00    +0.000 A 
ATOM     24  C   UNL     1       2.489   2.950  20.947  0.00  0.00    +0.000 A 
ATOM     25  C   UNL     1       3.666   3.236  20.243  0.00  0.00    +0.000 A 
ATOM     26  C   UNL     1       3.703   4.409  19.492  0.00  0.00    +0.000 A 
ATOM     27  C   UNL     1       4.663   4.936  18.649  0.00  0.00    +0.000 A 
ATOM     28  C   UNL     1       5.904   4.454  18.229  0.00  0.00    +0.000 A 
ATOM     29  C   UNL     1       6.618   5.214  17.278  0.00  0.00    +0.000 A 
ATOM     30  C   UNL     1       6.096   6.429  16.786  0.00  0.00    +0.000 A 
ATOM     31  C   UNL     1       4.836   6.874  17.201  0.00  0.00    +0.000 A 
ATOM     32  C   UNL     1       4.134   6.095  18.130  0.00  0.00    +0.000 A 
ENDBRANCH  19  20
ENDBRANCH   2  19
TORSDOF 7
ENDMDL
MODEL 8
REMARK VINA RESULT:      -7.6      1.767      3.526
REMARK  Name = 
REMARK  7 active torsions:
REMARK  status: ('A' for Active; 'I' for Inactive)
REMARK    1  A    between atoms: C_2  and  C_3
REMARK    2  A    between atoms: C_2  and  C_19
REMARK    3  A    between atoms: C_3  and  N_4
REMARK    4  A    between atoms: N_7  and  C_8
REMARK    5  A    between atoms: C_8  and  C_9
REMARK    6  A    between atoms: C_10  and  C_11
REMARK    7  A    between atoms: C_19  and  N_20
REMARK                            x       y       z     vdW  Elec       q    Type
REMARK                         _______ _______ _______ _____ _____    ______ ____
ROOT
ATOM      1  O   UNL     1       2.980   7.115  19.950  0.00  0.00    +0.000 OA
ATOM      2  C   UNL     1       2.222   7.587  19.110  0.00  0.00    +0.000 C 
ENDROOT
BRANCH   2   3
ATOM      3  C   UNL     1       1.739   8.975  19.345  0.00  0.00    +0.000 C 
BRANCH   3   4
ATOM      4  N   UNL     1       0.416   8.946  20.008  0.00  0.00    +0.000 NA
ATOM      5  C   UNL     1       0.491   8.359  21.357  0.00  0.00    +0.000 C 
ATOM      6  C   UNL     1       1.130   9.343  22.353  0.00  0.00    +0.000 C 
ATOM      7  N   UNL     1       0.426  10.647  22.366  0.00  0.00    +0.000 NA
ATOM      8  C   UNL     1       0.357  11.219  21.008  0.00  0.00    +0.000 C 
ATOM      9  C   UNL     1      -0.312  10.239  20.040  0.00  0.00    +0.000 C 
BRANCH   7  10
ATOM     10  C   UNL     1      -0.908  10.613  23.009  0.00  0.00    +0.000 C 
BRANCH  10  11
ATOM     11  C   UNL     1      -1.492  11.985  23.088  0.00  0.00    +0.000 C 
ATOM     12  C   UNL     1      -2.812  12.176  22.946  0.00  0.00    +0.000 C 
BRANCH  12  13
ATOM     13  C   UNL     1      -3.440  13.512  22.916  0.00  0.00    +0.000 A 
ATOM     14  C   UNL     1      -3.214  14.327  21.795  0.00  0.00    +0.000 A 
ATOM     15  C   UNL     1      -3.737  15.617  21.742  0.00  0.00    +0.000 A 
ATOM     16  C   UNL     1      -4.511  16.104  22.799  0.00  0.00    +0.000 A 
ATOM     17  C   UNL     1      -4.760  15.297  23.912  0.00  0.00    +0.000 A 
ATOM     18  C   UNL     1      -4.223  14.015  23.976  0.00  0.00    +0.000 A 
ENDBRANCH  12  13
ENDBRANCH  10  11
ENDBRANCH   7  10
ENDBRANCH   3   4
ENDBRANCH   2   3
BRANCH   2  19
ATOM     19  C   UNL     1       1.945   6.805  17.835  0.00  0.00    +0.000 C 
BRANCH  19  20
ATOM     20  N   UNL     1       2.816   5.643  17.985  0.00  0.00    +0.000 N 
ATOM     21  C   UNL     1       2.411   4.406  18.345  0.00  0.00    +0.000 A 
ATOM     22  C   UNL     1       1.258   4.052  19.048  0.00  0.00    +0.000 A 
ATOM     23  C   UNL     1       1.008   2.680  19.244  0.00  0.00    +0.000 A 
ATOM     24  C   UNL     1       1.890   1.713  18.712  0.00  0.00    +0.000 A 
ATOM     25  C   UNL     1       3.027   2.094  17.985  0.00  0.00    +0.000 A 
ATOM     26  C   UNL     1       3.272   3.457  17.831  0.00  0.00    +0.000 A 
ATOM     27  C   UNL     1       4.242   4.147  17.130  0.00  0.00    +0.000 A 
ATOM     28  C   UNL     1       5.282   3.717  16.305  0.00  0.00    +0.000 A 
ATOM     29  C   UNL     1       6.061   4.702  15.661  0.00  0.00    +0.000 A 
ATOM     30  C   UNL     1       5.802   6.073  15.864  0.00  0.00    +0.000 A 
ATOM     31  C   UNL     1       4.734   6.477  16.672  0.00  0.00    +0.000 A 
ATOM     32  C   UNL     1       3.960   5.484  17.287  0.00  0.00    +0.000 A 
ENDBRANCH  19  20
ENDBRANCH   2  19
TORSDOF 7
ENDMDL
MODEL 9
REMARK VINA RESULT:      -7.6      2.339      3.986
REMARK  Name = 
REMARK  7 active torsions:
REMARK  status: ('A' for Active; 'I' for Inactive)
REMARK    1  A    between atoms: C_2  and  C_3
REMARK    2  A    between atoms: C_2  and  C_19
REMARK    3  A    between atoms: C_3  and  N_4
REMARK    4  A    between atoms: N_7  and  C_8
REMARK    5  A    between atoms: C_8  and  C_9
REMARK    6  A    between atoms: C_10  and  C_11
REMARK    7  A    between atoms: C_19  and  N_20
REMARK                            x       y       z     vdW  Elec       q    Type
REMARK                         _______ _______ _______ _____ _____    ______ ____
ROOT
ATOM      1  O   UNL     1       2.426   9.221  17.729  0.00  0.00    +0.000 OA
ATOM      2  C   UNL     1       2.053   8.324  18.476  0.00  0.00    +0.000 C 
ENDROOT
BRANCH   2   3
ATOM      3  C   UNL     1       1.783   8.697  19.891  0.00  0.00    +0.000 C 
BRANCH   3   4
ATOM      4  N   UNL     1       0.383   9.158  20.037  0.00  0.00    +0.000 NA
ATOM      5  C   UNL     1      -0.190   8.768  21.336  0.00  0.00    +0.000 C 
ATOM      6  C   UNL     1       0.368   9.643  22.471  0.00  0.00    +0.000 C 
ATOM      7  N   UNL     1       0.170  11.087  22.201  0.00  0.00    +0.000 NA
ATOM      8  C   UNL     1       0.748  11.459  20.897  0.00  0.00    +0.000 C 
ATOM      9  C   UNL     1       0.155  10.601  19.776  0.00  0.00    +0.000 C 
BRANCH   7  10
ATOM     10  C   UNL     1      -1.234  11.544  22.324  0.00  0.00    +0.000 C 
BRANCH  10  11
ATOM     11  C   UNL     1      -1.298  12.889  22.970  0.00  0.00    +0.000 C 
ATOM     12  C   UNL     1      -2.325  13.216  23.767  0.00  0.00    +0.000 C 
BRANCH  12  13
ATOM     13  C   UNL     1      -2.498  14.559  24.357  0.00  0.00    +0.000 A 
ATOM     14  C   UNL     1      -3.717  15.224  24.148  0.00  0.00    +0.000 A 
ATOM     15  C   UNL     1      -3.910  16.515  24.636  0.00  0.00    +0.000 A 
ATOM     16  C   UNL     1      -2.896  17.150  25.357  0.00  0.00    +0.000 A 
ATOM     17  C   UNL     1      -1.685  16.493  25.589  0.00  0.00    +0.000 A 
ATOM     18  C   UNL     1      -1.482  15.211  25.088  0.00  0.00    +0.000 A 
ENDBRANCH  12  13
ENDBRANCH  10  11
ENDBRANCH   7  10
ENDBRANCH   3   4
ENDBRANCH   2   3
BRANCH   2  19
ATOM     19  C   UNL     1       1.750   6.951  17.897  0.00  0.00    +0.000 C 
BRANCH  19  20
ATOM     20  N   UNL     1       2.833   6.136  18.440  0.00  0.00    +0.000 N 
ATOM     21  C   UNL     1       2.684   5.148  19.348  0.00  0.00    +0.000 A 
ATOM     22  C   UNL     1       1.642   4.971  20.260  0.00  0.00    +0.000 A 
ATOM     23  C   UNL     1       1.667   3.814  21.063  0.00  0.00    +0.000 A 
ATOM     24  C   UNL     1       2.702   2.865  20.912  0.00  0.00    +0.000 A 
ATOM     25  C   UNL     1       3.722   3.051  19.969  0.00  0.00    +0.000 A 
ATOM     26  C   UNL     1       3.695   4.218  19.207  0.00  0.00    +0.000 A 
ATOM     27  C   UNL     1       4.493   4.663  18.171  0.00  0.00    +0.000 A 
ATOM     28  C   UNL     1       5.572   4.078  17.505  0.00  0.00    +0.000 A 
ATOM     29  C   UNL     1       6.127   4.776  16.411  0.00  0.00    +0.000 A 
ATOM     30  C   UNL     1       5.615   6.031  16.022  0.00  0.00    +0.000 A 
ATOM     31  C   UNL     1       4.514   6.581  16.687  0.00  0.00    +0.000 A 
ATOM     32  C   UNL     1       3.964   5.863  17.757  0.00  0.00    +0.000 A 
ENDBRANCH  19  20
ENDBRANCH   2  19
TORSDOF 7
ENDMDL
