MODEL 1
REMARK VINA RESULT:      -6.8      0.000      0.000
REMARK  Name = 
REMARK  5 active torsions:
REMARK  status: ('A' for Active; 'I' for Inactive)
REMARK    1  A    between atoms: N_1  and  C_2
REMARK    2  A    between atoms: C_2  and  C_3
REMARK    3  A    between atoms: C_2  and  C_11
REMARK    4  A    between atoms: C_3  and  C_4
REMARK    5  A    between atoms: C_11  and  C_12
REMARK                            x       y       z     vdW  Elec       q    Type
REMARK                         _______ _______ _______ _____ _____    ______ ____
ROOT
ATOM      1  C   UNL     1       3.838   4.170  16.846  0.00  0.00    +0.000 C 
ENDROOT
BRANCH   1   2
ATOM      2  N   UNL     1       3.732   5.282  17.815  0.00  0.00    +0.000 NA
ATOM      3  H   UNL     1       3.624   6.169  17.328  0.00  0.00    +0.000 HD
ATOM      4  H   UNL     1       4.577   5.346  18.379  0.00  0.00    +0.000 HD
ENDBRANCH   1   2
BRANCH   1   5
ATOM      5  C   UNL     1       5.099   4.402  15.996  0.00  0.00    +0.000 C 
BRANCH   5   6
ATOM      6  C   UNL     1       5.688   5.799  16.106  0.00  0.00    +0.000 C 
ATOM      7  O   UNL     1       5.289   6.733  15.412  0.00  0.00    +0.000 OA
ATOM      8  N   UNL     1       6.682   5.971  17.054  0.00  0.00    +0.000 N 
ATOM      9  C   UNL     1       7.302   7.276  17.223  0.00  0.00    +0.000 C 
ATOM     10  C   UNL     1       8.097   7.329  18.523  0.00  0.00    +0.000 C 
ATOM     11  S   UNL     1       8.023   5.678  19.258  0.00  0.00    +0.000 S 
ATOM     12  C   UNL     1       7.344   4.912  17.780  0.00  0.00    +0.000 C 
ENDBRANCH   5   6
ENDBRANCH   1   5
BRANCH   1  13
ATOM     13  C   UNL     1       3.864   2.812  17.591  0.00  0.00    +0.000 C 
BRANCH  13  14
ATOM     14  C   UNL     1       3.032   2.809  18.857  0.00  0.00    +0.000 A 
ATOM     15  C   UNL     1       3.647   2.698  20.114  0.00  0.00    +0.000 A 
ATOM     16  C   UNL     1       2.874   2.658  21.275  0.00  0.00    +0.000 A 
ATOM     17  C   UNL     1       1.492   2.724  21.183  0.00  0.00    +0.000 A 
ATOM     18  F   UNL     1       0.749   2.674  22.297  0.00  0.00    +0.000 F 
ATOM     19  C   UNL     1       0.860   2.835  19.948  0.00  0.00    +0.000 A 
ATOM     20  C   UNL     1       1.634   2.880  18.787  0.00  0.00    +0.000 A 
ENDBRANCH  13  14
ENDBRANCH   1  13
TORSDOF 5
ENDMDL
MODEL 2
REMARK VINA RESULT:      -6.7      0.173      1.151
REMARK  Name = 
REMARK  5 active torsions:
REMARK  status: ('A' for Active; 'I' for Inactive)
REMARK    1  A    between atoms: N_1  and  C_2
REMARK    2  A    between atoms: C_2  and  C_3
REMARK    3  A    between atoms: C_2  and  C_11
REMARK    4  A    between atoms: C_3  and  C_4
REMARK    5  A    between atoms: C_11  and  C_12
REMARK                            x       y       z     vdW  Elec       q    Type
REMARK                         _______ _______ _______ _____ _____    ______ ____
ROOT
ATOM      1  C   UNL     1       3.876   4.052  16.755  0.00  0.00    +0.000 C 
ENDROOT
BRANCH   1   2
ATOM      2  N   UNL     1       3.611   5.240  17.595  0.00  0.00    +0.000 NA
ATOM      3  H   UNL     1       4.221   5.241  18.410  0.00  0.00    +0.000 HD
ATOM      4  H   UNL     1       2.651   5.231  17.933  0.00  0.00    +0.000 HD
ENDBRANCH   1   2
BRANCH   1   5
ATOM      5  C   UNL     1       5.062   4.379  15.832  0.00  0.00    +0.000 C 
BRANCH   5   6
ATOM      6  C   UNL     1       5.632   5.777  16.007  0.00  0.00    +0.000 C 
ATOM      7  O   UNL     1       5.224   6.737  15.355  0.00  0.00    +0.000 OA
ATOM      8  N   UNL     1       6.621   5.919  16.966  0.00  0.00    +0.000 N 
ATOM      9  C   UNL     1       7.224   7.223  17.196  0.00  0.00    +0.000 C 
ATOM     10  C   UNL     1       8.014   7.227  18.500  0.00  0.00    +0.000 C 
ATOM     11  S   UNL     1       7.958   5.543  19.160  0.00  0.00    +0.000 S 
ATOM     12  C   UNL     1       7.294   4.836  17.646  0.00  0.00    +0.000 C 
ENDBRANCH   5   6
ENDBRANCH   1   5
BRANCH   1  13
ATOM     13  C   UNL     1       4.139   2.814  17.648  0.00  0.00    +0.000 C 
BRANCH  13  14
ATOM     14  C   UNL     1       3.220   2.737  18.850  0.00  0.00    +0.000 A 
ATOM     15  C   UNL     1       1.827   2.737  18.683  0.00  0.00    +0.000 A 
ATOM     16  C   UNL     1       0.984   2.704  19.795  0.00  0.00    +0.000 A 
ATOM     17  C   UNL     1       1.530   2.674  21.070  0.00  0.00    +0.000 A 
ATOM     18  F   UNL     1       0.721   2.654  22.138  0.00  0.00    +0.000 F 
ATOM     19  C   UNL     1       2.908   2.672  21.259  0.00  0.00    +0.000 A 
ATOM     20  C   UNL     1       3.751   2.701  20.147  0.00  0.00    +0.000 A 
ENDBRANCH  13  14
ENDBRANCH   1  13
TORSDOF 5
ENDMDL
MODEL 3
REMARK VINA RESULT:      -6.6      1.016      1.063
REMARK  Name = 
REMARK  5 active torsions:
REMARK  status: ('A' for Active; 'I' for Inactive)
REMARK    1  A    between atoms: N_1  and  C_2
REMARK    2  A    between atoms: C_2  and  C_3
REMARK    3  A    between atoms: C_2  and  C_11
REMARK    4  A    between atoms: C_3  and  C_4
REMARK    5  A    between atoms: C_11  and  C_12
REMARK                            x       y       z     vdW  Elec       q    Type
REMARK                         _______ _______ _______ _____ _____    ______ ____
ROOT
ATOM      1  C   UNL     1       4.431   4.036  17.330  0.00  0.00    +0.000 C 
ENDROOT
BRANCH   1   2
ATOM      2  N   UNL     1       4.502   2.559  17.336  0.00  0.00    +0.000 NA
ATOM      3  H   UNL     1       3.728   2.168  17.871  0.00  0.00    +0.000 HD
ATOM      4  H   UNL     1       5.364   2.244  17.775  0.00  0.00    +0.000 HD
ENDBRANCH   1   2
BRANCH   1   5
ATOM      5  C   UNL     1       5.029   4.534  16.003  0.00  0.00    +0.000 C 
BRANCH   5   6
ATOM      6  C   UNL     1       5.670   5.910  16.074  0.00  0.00    +0.000 C 
ATOM      7  O   UNL     1       5.308   6.838  15.353  0.00  0.00    +0.000 OA
ATOM      8  N   UNL     1       6.669   6.071  17.020  0.00  0.00    +0.000 N 
ATOM      9  C   UNL     1       7.338   7.356  17.152  0.00  0.00    +0.000 C 
ATOM     10  C   UNL     1       8.133   7.415  18.453  0.00  0.00    +0.000 C 
ATOM     11  S   UNL     1       7.994   5.790  19.235  0.00  0.00    +0.000 S 
ATOM     12  C   UNL     1       7.289   5.008  17.777  0.00  0.00    +0.000 C 
ENDBRANCH   5   6
ENDBRANCH   1   5
BRANCH   1  13
ATOM     13  C   UNL     1       2.969   4.502  17.537  0.00  0.00    +0.000 C 
BRANCH  13  14
ATOM     14  C   UNL     1       2.358   4.000  18.830  0.00  0.00    +0.000 A 
ATOM     15  C   UNL     1       2.869   4.418  20.069  0.00  0.00    +0.000 A 
ATOM     16  C   UNL     1       2.328   3.923  21.257  0.00  0.00    +0.000 A 
ATOM     17  C   UNL     1       1.282   3.013  21.208  0.00  0.00    +0.000 A 
ATOM     18  F   UNL     1       0.770   2.529  22.348  0.00  0.00    +0.000 F 
ATOM     19  C   UNL     1       0.760   2.585  19.992  0.00  0.00    +0.000 A 
ATOM     20  C   UNL     1       1.298   3.083  18.804  0.00  0.00    +0.000 A 
ENDBRANCH  13  14
ENDBRANCH   1  13
TORSDOF 5
ENDMDL
MODEL 4
REMARK VINA RESULT:      -6.5      3.363      6.097
REMARK  Name = 
REMARK  5 active torsions:
REMARK  status: ('A' for Active; 'I' for Inactive)
REMARK    1  A    between atoms: N_1  and  C_2
REMARK    2  A    between atoms: C_2  and  C_3
REMARK    3  A    between atoms: C_2  and  C_11
REMARK    4  A    between atoms: C_3  and  C_4
REMARK    5  A    between atoms: C_11  and  C_12
REMARK                            x       y       z     vdW  Elec       q    Type
REMARK                         _______ _______ _______ _____ _____    ______ ____
ROOT
ATOM      1  C   UNL     1       4.181   3.684  16.532  0.00  0.00    +0.000 C 
ENDROOT
BRANCH   1   2
ATOM      2  N   UNL     1       4.508   2.517  17.379  0.00  0.00    +0.000 NA
ATOM      3  H   UNL     1       4.382   2.746  18.363  0.00  0.00    +0.000 HD
ATOM      4  H   UNL     1       5.481   2.245  17.252  0.00  0.00    +0.000 HD
ENDBRANCH   1   2
BRANCH   1   5
ATOM      5  C   UNL     1       3.519   4.747  17.425  0.00  0.00    +0.000 C 
BRANCH   5   6
ATOM      6  C   UNL     1       2.139   4.369  17.942  0.00  0.00    +0.000 C 
ATOM      7  O   UNL     1       1.139   4.416  17.229  0.00  0.00    +0.000 OA
ATOM      8  N   UNL     1       2.075   3.940  19.256  0.00  0.00    +0.000 N 
ATOM      9  C   UNL     1       0.794   3.562  19.832  0.00  0.00    +0.000 C 
ATOM     10  C   UNL     1       0.995   2.804  21.140  0.00  0.00    +0.000 C 
ATOM     11  S   UNL     1       2.771   2.799  21.483  0.00  0.00    +0.000 S 
ATOM     12  C   UNL     1       3.147   4.024  20.222  0.00  0.00    +0.000 C 
ENDBRANCH   5   6
ENDBRANCH   1   5
BRANCH   1  13
ATOM     13  C   UNL     1       5.457   4.209  15.828  0.00  0.00    +0.000 C 
BRANCH  13  14
ATOM     14  C   UNL     1       6.275   5.145  16.694  0.00  0.00    +0.000 A 
ATOM     15  C   UNL     1       6.233   6.532  16.481  0.00  0.00    +0.000 A 
ATOM     16  C   UNL     1       7.017   7.387  17.257  0.00  0.00    +0.000 A 
ATOM     17  C   UNL     1       7.843   6.861  18.238  0.00  0.00    +0.000 A 
ATOM     18  F   UNL     1       8.605   7.681  18.975  0.00  0.00    +0.000 F 
ATOM     19  C   UNL     1       7.901   5.490  18.467  0.00  0.00    +0.000 A 
ATOM     20  C   UNL     1       7.113   4.634  17.695  0.00  0.00    +0.000 A 
ENDBRANCH  13  14
ENDBRANCH   1  13
TORSDOF 5
ENDMDL
MODEL 5
REMARK VINA RESULT:      -6.5      0.999      1.457
REMARK  Name = 
REMARK  5 active torsions:
REMARK  status: ('A' for Active; 'I' for Inactive)
REMARK    1  A    between atoms: N_1  and  C_2
REMARK    2  A    between atoms: C_2  and  C_3
REMARK    3  A    between atoms: C_2  and  C_11
REMARK    4  A    between atoms: C_3  and  C_4
REMARK    5  A    between atoms: C_11  and  C_12
REMARK                            x       y       z     vdW  Elec       q    Type
REMARK                         _______ _______ _______ _____ _____    ______ ____
ROOT
ATOM      1  C   UNL     1       4.465   4.053  17.310  0.00  0.00    +0.000 C 
ENDROOT
BRANCH   1   2
ATOM      2  N   UNL     1       4.559   2.577  17.295  0.00  0.00    +0.000 NA
ATOM      3  H   UNL     1       4.206   2.190  18.168  0.00  0.00    +0.000 HD
ATOM      4  H   UNL     1       5.529   2.283  17.202  0.00  0.00    +0.000 HD
ENDBRANCH   1   2
BRANCH   1   5
ATOM      5  C   UNL     1       5.026   4.577  15.977  0.00  0.00    +0.000 C 
BRANCH   5   6
ATOM      6  C   UNL     1       5.679   5.947  16.061  0.00  0.00    +0.000 C 
ATOM      7  O   UNL     1       5.328   6.885  15.346  0.00  0.00    +0.000 OA
ATOM      8  N   UNL     1       6.677   6.093  17.010  0.00  0.00    +0.000 N 
ATOM      9  C   UNL     1       7.357   7.370  17.155  0.00  0.00    +0.000 C 
ATOM     10  C   UNL     1       8.149   7.412  18.458  0.00  0.00    +0.000 C 
ATOM     11  S   UNL     1       7.994   5.782  19.227  0.00  0.00    +0.000 S 
ATOM     12  C   UNL     1       7.285   5.018  17.761  0.00  0.00    +0.000 C 
ENDBRANCH   5   6
ENDBRANCH   1   5
BRANCH   1  13
ATOM     13  C   UNL     1       3.000   4.493  17.553  0.00  0.00    +0.000 C 
BRANCH  13  14
ATOM     14  C   UNL     1       2.414   3.938  18.836  0.00  0.00    +0.000 A 
ATOM     15  C   UNL     1       1.334   3.043  18.797  0.00  0.00    +0.000 A 
ATOM     16  C   UNL     1       0.773   2.564  19.983  0.00  0.00    +0.000 A 
ATOM     17  C   UNL     1       1.287   2.979  21.203  0.00  0.00    +0.000 A 
ATOM     18  F   UNL     1       0.742   2.528  22.340  0.00  0.00    +0.000 F 
ATOM     19  C   UNL     1       2.358   3.865  21.265  0.00  0.00    +0.000 A 
ATOM     20  C   UNL     1       2.922   4.341  20.079  0.00  0.00    +0.000 A 
ENDBRANCH  13  14
ENDBRANCH   1  13
TORSDOF 5
ENDMDL
MODEL 6
REMARK VINA RESULT:      -6.5      2.445      2.692
REMARK  Name = 
REMARK  5 active torsions:
REMARK  status: ('A' for Active; 'I' for Inactive)
REMARK    1  A    between atoms: N_1  and  C_2
REMARK    2  A    between atoms: C_2  and  C_3
REMARK    3  A    between atoms: C_2  and  C_11
REMARK    4  A    between atoms: C_3  and  C_4
REMARK    5  A    between atoms: C_11  and  C_12
REMARK                            x       y       z     vdW  Elec       q    Type
REMARK                         _______ _______ _______ _____ _____    ______ ____
ROOT
ATOM      1  C   UNL     1       4.224   3.529  17.537  0.00  0.00    +0.000 C 
ENDROOT
BRANCH   1   2
ATOM      2  N   UNL     1       4.193   2.061  17.721  0.00  0.00    +0.000 NA
ATOM      3  H   UNL     1       4.850   1.781  18.446  0.00  0.00    +0.000 HD
ATOM      4  H   UNL     1       4.466   1.588  16.862  0.00  0.00    +0.000 HD
ENDBRANCH   1   2
BRANCH   1   5
ATOM      5  C   UNL     1       5.104   3.834  16.313  0.00  0.00    +0.000 C 
BRANCH   5   6
ATOM      6  C   UNL     1       5.599   5.269  16.233  0.00  0.00    +0.000 C 
ATOM      7  O   UNL     1       5.116   6.085  15.450  0.00  0.00    +0.000 OA
ATOM      8  N   UNL     1       6.609   5.618  17.114  0.00  0.00    +0.000 N 
ATOM      9  C   UNL     1       7.144   6.971  17.101  0.00  0.00    +0.000 C 
ATOM     10  C   UNL     1       7.975   7.231  18.354  0.00  0.00    +0.000 C 
ATOM     11  S   UNL     1       8.037   5.680  19.282  0.00  0.00    +0.000 S 
ATOM     12  C   UNL     1       7.365   4.699  17.934  0.00  0.00    +0.000 C 
ENDBRANCH   5   6
ENDBRANCH   1   5
BRANCH   1  13
ATOM     13  C   UNL     1       2.784   4.079  17.387  0.00  0.00    +0.000 C 
BRANCH  13  14
ATOM     14  C   UNL     1       2.427   5.115  18.433  0.00  0.00    +0.000 A 
ATOM     15  C   UNL     1       2.608   6.482  18.173  0.00  0.00    +0.000 A 
ATOM     16  C   UNL     1       2.314   7.431  19.154  0.00  0.00    +0.000 A 
ATOM     17  C   UNL     1       1.844   7.017  20.391  0.00  0.00    +0.000 A 
ATOM     18  F   UNL     1       1.572   7.927  21.337  0.00  0.00    +0.000 F 
ATOM     19  C   UNL     1       1.656   5.667  20.671  0.00  0.00    +0.000 A 
ATOM     20  C   UNL     1       1.946   4.718  19.689  0.00  0.00    +0.000 A 
ENDBRANCH  13  14
ENDBRANCH   1  13
TORSDOF 5
ENDMDL
MODEL 7
REMARK VINA RESULT:      -6.5      2.850      3.474
REMARK  Name = 
REMARK  5 active torsions:
REMARK  status: ('A' for Active; 'I' for Inactive)
REMARK    1  A    between atoms: N_1  and  C_2
REMARK    2  A    between atoms: C_2  and  C_3
REMARK    3  A    between atoms: C_2  and  C_11
REMARK    4  A    between atoms: C_3  and  C_4
REMARK    5  A    between atoms: C_11  and  C_12
REMARK                            x       y       z     vdW  Elec       q    Type
REMARK                         _______ _______ _______ _____ _____    ______ ____
ROOT
ATOM      1  C   UNL     1       4.604   5.368  17.255  0.00  0.00    +0.000 C 
ENDROOT
BRANCH   1   2
ATOM      2  N   UNL     1       4.938   6.664  16.626  0.00  0.00    +0.000 NA
ATOM      3  H   UNL     1       4.133   7.031  16.122  0.00  0.00    +0.000 HD
ATOM      4  H   UNL     1       5.692   6.549  15.952  0.00  0.00    +0.000 HD
ENDBRANCH   1   2
BRANCH   1   5
ATOM      5  C   UNL     1       5.503   4.290  16.626  0.00  0.00    +0.000 C 
BRANCH   5   6
ATOM      6  C   UNL     1       6.603   4.830  15.727  0.00  0.00    +0.000 C 
ATOM      7  O   UNL     1       7.557   5.468  16.171  0.00  0.00    +0.000 OA
ATOM      8  N   UNL     1       6.489   4.540  14.378  0.00  0.00    +0.000 N 
ATOM      9  C   UNL     1       7.497   5.023  13.446  0.00  0.00    +0.000 C 
ATOM     10  C   UNL     1       7.371   4.311  12.103  0.00  0.00    +0.000 C 
ATOM     11  S   UNL     1       5.922   3.233  12.207  0.00  0.00    +0.000 S 
ATOM     12  C   UNL     1       5.327   3.967  13.736  0.00  0.00    +0.000 C 
ENDBRANCH   5   6
ENDBRANCH   1   5
BRANCH   1  13
ATOM     13  C   UNL     1       4.773   5.461  18.792  0.00  0.00    +0.000 C 
BRANCH  13  14
ATOM     14  C   UNL     1       3.709   4.700  19.558  0.00  0.00    +0.000 A 
ATOM     15  C   UNL     1       2.575   5.363  20.052  0.00  0.00    +0.000 A 
ATOM     16  C   UNL     1       1.617   4.665  20.789  0.00  0.00    +0.000 A 
ATOM     17  C   UNL     1       1.791   3.311  21.035  0.00  0.00    +0.000 A 
ATOM     18  F   UNL     1       0.877   2.643  21.752  0.00  0.00    +0.000 F 
ATOM     19  C   UNL     1       2.907   2.633  20.555  0.00  0.00    +0.000 A 
ATOM     20  C   UNL     1       3.864   3.330  19.814  0.00  0.00    +0.000 A 
ENDBRANCH  13  14
ENDBRANCH   1  13
TORSDOF 5
ENDMDL
MODEL 8
REMARK VINA RESULT:      -6.5      3.866      6.483
REMARK  Name = 
REMARK  5 active torsions:
REMARK  status: ('A' for Active; 'I' for Inactive)
REMARK    1  A    between atoms: N_1  and  C_2
REMARK    2  A    between atoms: C_2  and  C_3
REMARK    3  A    between atoms: C_2  and  C_11
REMARK    4  A    between atoms: C_3  and  C_4
REMARK    5  A    between atoms: C_11  and  C_12
REMARK                            x       y       z     vdW  Elec       q    Type
REMARK                         _______ _______ _______ _____ _____    ______ ____
ROOT
ATOM      1  C   UNL     1       6.889   4.624  17.181  0.00  0.00    +0.000 C 
ENDROOT
BRANCH   1   2
ATOM      2  N   UNL     1       8.173   4.157  17.749  0.00  0.00    +0.000 NA
ATOM      3  H   UNL     1       8.040   3.286  18.259  0.00  0.00    +0.000 HD
ATOM      4  H   UNL     1       8.542   4.841  18.407  0.00  0.00    +0.000 HD
ENDBRANCH   1   2
BRANCH   1   5
ATOM      5  C   UNL     1       6.153   5.424  18.269  0.00  0.00    +0.000 C 
BRANCH   5   6
ATOM      6  C   UNL     1       4.672   5.641  18.002  0.00  0.00    +0.000 C 
ATOM      7  O   UNL     1       4.239   6.692  17.533  0.00  0.00    +0.000 OA
ATOM      8  N   UNL     1       3.837   4.575  18.290  0.00  0.00    +0.000 N 
ATOM      9  C   UNL     1       2.405   4.699  18.067  0.00  0.00    +0.000 C 
ATOM     10  C   UNL     1       1.734   3.330  18.112  0.00  0.00    +0.000 C 
ATOM     11  S   UNL     1       3.012   2.126  18.545  0.00  0.00    +0.000 S 
ATOM     12  C   UNL     1       4.215   3.380  19.008  0.00  0.00    +0.000 C 
ENDBRANCH   5   6
ENDBRANCH   1   5
BRANCH   1  13
ATOM     13  C   UNL     1       7.143   5.455  15.899  0.00  0.00    +0.000 C 
BRANCH  13  14
ATOM     14  C   UNL     1       6.686   4.758  14.634  0.00  0.00    +0.000 A 
ATOM     15  C   UNL     1       7.483   4.781  13.479  0.00  0.00    +0.000 A 
ATOM     16  C   UNL     1       7.041   4.169  12.305  0.00  0.00    +0.000 A 
ATOM     17  C   UNL     1       5.806   3.539  12.282  0.00  0.00    +0.000 A 
ATOM     18  F   UNL     1       5.376   2.962  11.152  0.00  0.00    +0.000 F 
ATOM     19  C   UNL     1       4.999   3.503  13.415  0.00  0.00    +0.000 A 
ATOM     20  C   UNL     1       5.443   4.110  14.591  0.00  0.00    +0.000 A 
ENDBRANCH  13  14
ENDBRANCH   1  13
TORSDOF 5
ENDMDL
MODEL 9
REMARK VINA RESULT:      -6.5      4.182      6.786
REMARK  Name = 
REMARK  5 active torsions:
REMARK  status: ('A' for Active; 'I' for Inactive)
REMARK    1  A    between atoms: N_1  and  C_2
REMARK    2  A    between atoms: C_2  and  C_3
REMARK    3  A    between atoms: C_2  and  C_11
REMARK    4  A    between atoms: C_3  and  C_4
REMARK    5  A    between atoms: C_11  and  C_12
REMARK                            x       y       z     vdW  Elec       q    Type
REMARK                         _______ _______ _______ _____ _____    ______ ____
ROOT
ATOM      1  C   UNL     1       6.842   4.470  16.668  0.00  0.00    +0.000 C 
ENDROOT
BRANCH   1   2
ATOM      2  N   UNL     1       8.080   4.260  17.450  0.00  0.00    +0.000 NA
ATOM      3  H   UNL     1       8.897   4.324  16.845  0.00  0.00    +0.000 HD
ATOM      4  H   UNL     1       8.085   3.332  17.869  0.00  0.00    +0.000 HD
ENDBRANCH   1   2
BRANCH   1   5
ATOM      5  C   UNL     1       5.854   5.254  17.548  0.00  0.00    +0.000 C 
BRANCH   5   6
ATOM      6  C   UNL     1       5.462   4.552  18.838  0.00  0.00    +0.000 C 
ATOM      7  O   UNL     1       6.123   4.661  19.870  0.00  0.00    +0.000 OA
ATOM      8  N   UNL     1       4.298   3.802  18.798  0.00  0.00    +0.000 N 
ATOM      9  C   UNL     1       3.852   3.094  19.987  0.00  0.00    +0.000 C 
ATOM     10  C   UNL     1       2.406   2.635  19.828  0.00  0.00    +0.000 C 
ATOM     11  S   UNL     1       1.891   3.074  18.151  0.00  0.00    +0.000 S 
ATOM     12  C   UNL     1       3.559   3.461  17.603  0.00  0.00    +0.000 C 
ENDBRANCH   5   6
ENDBRANCH   1   5
BRANCH   1  13
ATOM     13  C   UNL     1       7.166   5.199  15.340  0.00  0.00    +0.000 C 
BRANCH  13  14
ATOM     14  C   UNL     1       6.576   4.516  14.124  0.00  0.00    +0.000 A 
ATOM     15  C   UNL     1       5.250   4.055  14.138  0.00  0.00    +0.000 A 
ATOM     16  C   UNL     1       4.723   3.392  13.028  0.00  0.00    +0.000 A 
ATOM     17  C   UNL     1       5.517   3.188  11.909  0.00  0.00    +0.000 A 
ATOM     18  F   UNL     1       5.015   2.542  10.848  0.00  0.00    +0.000 F 
ATOM     19  C   UNL     1       6.833   3.637  11.872  0.00  0.00    +0.000 A 
ATOM     20  C   UNL     1       7.359   4.303  12.980  0.00  0.00    +0.000 A 
ENDBRANCH  13  14
ENDBRANCH   1  13
TORSDOF 5
ENDMDL
