MODEL 1
REMARK VINA RESULT:      -7.0      0.000      0.000
REMARK  Name = 
REMARK  7 active torsions:
REMARK  status: ('A' for Active; 'I' for Inactive)
REMARK    1  A    between atoms: C_1  and  C_2
REMARK    2  A    between atoms: C_6  and  C_7
REMARK    3  A    between atoms: C_13  and  C_14
REMARK    4  A    between atoms: N_16  and  C_17
REMARK    5  A    between atoms: C_22  and  O_23
REMARK    6  A    between atoms: O_23  and  C_24
REMARK    7  A    between atoms: C_24  and  C_25
REMARK                            x       y       z     vdW  Elec       q    Type
REMARK                         _______ _______ _______ _____ _____    ______ ____
ROOT
ATOM      1  C   UNL     1      -1.252  11.339  18.754  0.00  0.00    +0.000 A 
ATOM      2  C   UNL     1      -0.772  10.088  18.430  0.00  0.00    +0.000 A 
ATOM      3  N   UNL     1       0.582  10.190  18.295  0.00  0.00    +0.000 N 
ATOM      4  C   UNL     1       1.480   9.087  18.030  0.00  0.00    +0.000 C 
ATOM      5  C   UNL     1       0.986  11.497  18.464  0.00  0.00    +0.000 A 
ATOM      6  C   UNL     1       2.276  12.042  18.408  0.00  0.00    +0.000 A 
ATOM      7  C   UNL     1       2.417  13.410  18.583  0.00  0.00    +0.000 A 
ATOM      8  C   UNL     1       1.309  14.204  18.839  0.00  0.00    +0.000 A 
ATOM      9  C   UNL     1       0.013  13.659  18.985  0.00  0.00    +0.000 A 
ATOM     10  C   UNL     1      -0.155  12.265  18.749  0.00  0.00    +0.000 A 
ENDROOT
BRANCH   1  17
ATOM     11  C   UNL     1      -5.064  11.809  18.289  0.00  0.00    +0.000 C 
ATOM     12  N   UNL     1      -5.723  11.530  17.186  0.00  0.00    +0.000 NA
ATOM     13  N   UNL     1      -4.780  11.210  16.239  0.00  0.00    +0.000 N 
ATOM     14  C   UNL     1      -3.464  11.299  16.660  0.00  0.00    +0.000 C 
ATOM     15  O   UNL     1      -2.467  11.159  15.984  0.00  0.00    +0.000 OA
ATOM     16  C   UNL     1      -3.604  11.609  18.104  0.00  0.00    +0.000 C 
ATOM     17  C   UNL     1      -2.628  11.580  19.024  0.00  0.00    +0.000 C 
ATOM     18  H   UNL     1      -5.046  11.006  15.282  0.00  0.00    +0.000 HD
BRANCH  11  24
ATOM     19  C   UNL     1      -7.101  10.166  20.146  0.00  0.00    +0.000 C 
ATOM     20  C   UNL     1      -6.664  11.578  20.269  0.00  0.00    +0.000 A 
ATOM     21  N   UNL     1      -7.202  12.342  21.300  0.00  0.00    +0.000 NA
ATOM     22  N   UNL     1      -6.757  13.584  21.278  0.00  0.00    +0.000 NA
ATOM     23  S   UNL     1      -5.703  13.872  20.018  0.00  0.00    +0.000 S 
ATOM     24  C   UNL     1      -5.757  12.253  19.460  0.00  0.00    +0.000 A 
ENDBRANCH  11  24
ENDBRANCH   1  17
BRANCH   9  25
ATOM     25  O   UNL     1      -1.073  14.434  19.360  0.00  0.00    +0.000 OA
BRANCH  25  26
ATOM     26  C   UNL     1      -1.082  14.775  20.756  0.00  0.00    +0.000 C 
BRANCH  26  27
ATOM     27  C   UNL     1      -1.627  13.694  21.659  0.00  0.00    +0.000 A 
ATOM     28  C   UNL     1      -0.811  12.696  22.196  0.00  0.00    +0.000 A 
ATOM     29  C   UNL     1      -1.332  11.780  23.109  0.00  0.00    +0.000 A 
ATOM     30  C   UNL     1      -2.669  11.857  23.500  0.00  0.00    +0.000 A 
ATOM     31  C   UNL     1      -3.491  12.853  22.982  0.00  0.00    +0.000 A 
ATOM     32  C   UNL     1      -2.971  13.769  22.067  0.00  0.00    +0.000 A 
ENDBRANCH  26  27
ENDBRANCH  25  26
ENDBRANCH   9  25
TORSDOF 5
ENDMDL
MODEL 2
REMARK VINA RESULT:      -7.0      0.679      1.097
REMARK  Name = 
REMARK  7 active torsions:
REMARK  status: ('A' for Active; 'I' for Inactive)
REMARK    1  A    between atoms: C_1  and  C_2
REMARK    2  A    between atoms: C_6  and  C_7
REMARK    3  A    between atoms: C_13  and  C_14
REMARK    4  A    between atoms: N_16  and  C_17
REMARK    5  A    between atoms: C_22  and  O_23
REMARK    6  A    between atoms: O_23  and  C_24
REMARK    7  A    between atoms: C_24  and  C_25
REMARK                            x       y       z     vdW  Elec       q    Type
REMARK                         _______ _______ _______ _____ _____    ______ ____
ROOT
ATOM      1  C   UNL     1      -1.219  11.180  18.882  0.00  0.00    +0.000 A 
ATOM      2  C   UNL     1      -0.607  10.033  18.424  0.00  0.00    +0.000 A 
ATOM      3  N   UNL     1       0.724  10.301  18.295  0.00  0.00    +0.000 N 
ATOM      4  C   UNL     1       1.735   9.341  17.910  0.00  0.00    +0.000 C 
ATOM      5  C   UNL     1       0.982  11.620  18.604  0.00  0.00    +0.000 A 
ATOM      6  C   UNL     1       2.202  12.310  18.602  0.00  0.00    +0.000 A 
ATOM      7  C   UNL     1       2.192  13.659  18.923  0.00  0.00    +0.000 A 
ATOM      8  C   UNL     1       1.006  14.291  19.267  0.00  0.00    +0.000 A 
ATOM      9  C   UNL     1      -0.218  13.590  19.358  0.00  0.00    +0.000 A 
ATOM     10  C   UNL     1      -0.234  12.219  18.973  0.00  0.00    +0.000 A 
ENDROOT
BRANCH   1  17
ATOM     11  C   UNL     1      -5.062  11.396  18.482  0.00  0.00    +0.000 C 
ATOM     12  N   UNL     1      -5.701  11.301  17.338  0.00  0.00    +0.000 NA
ATOM     13  N   UNL     1      -4.740  11.276  16.355  0.00  0.00    +0.000 N 
ATOM     14  C   UNL     1      -3.434  11.390  16.801  0.00  0.00    +0.000 C 
ATOM     15  O   UNL     1      -2.434  11.488  16.123  0.00  0.00    +0.000 OA
ATOM     16  C   UNL     1      -3.591  11.371  18.276  0.00  0.00    +0.000 C 
ATOM     17  C   UNL     1      -2.610  11.234  19.181  0.00  0.00    +0.000 C 
ATOM     18  H   UNL     1      -4.994  11.258  15.374  0.00  0.00    +0.000 HD
BRANCH  11  24
ATOM     19  C   UNL     1      -7.257   9.404  19.712  0.00  0.00    +0.000 C 
ATOM     20  C   UNL     1      -6.756  10.688  20.260  0.00  0.00    +0.000 A 
ATOM     21  N   UNL     1      -7.301  11.146  21.456  0.00  0.00    +0.000 NA
ATOM     22  N   UNL     1      -6.796  12.310  21.816  0.00  0.00    +0.000 NA
ATOM     23  S   UNL     1      -5.674  12.893  20.727  0.00  0.00    +0.000 S 
ATOM     24  C   UNL     1      -5.783  11.517  19.713  0.00  0.00    +0.000 A 
ENDBRANCH  11  24
ENDBRANCH   1  17
BRANCH   9  25
ATOM     25  O   UNL     1      -1.378  14.193  19.818  0.00  0.00    +0.000 OA
BRANCH  25  26
ATOM     26  C   UNL     1      -1.249  14.765  21.130  0.00  0.00    +0.000 C 
BRANCH  26  27
ATOM     27  C   UNL     1      -2.052  14.063  22.198  0.00  0.00    +0.000 A 
ATOM     28  C   UNL     1      -3.056  14.715  22.918  0.00  0.00    +0.000 A 
ATOM     29  C   UNL     1      -3.846  14.004  23.821  0.00  0.00    +0.000 A 
ATOM     30  C   UNL     1      -3.648  12.636  24.007  0.00  0.00    +0.000 A 
ATOM     31  C   UNL     1      -2.659  11.971  23.287  0.00  0.00    +0.000 A 
ATOM     32  C   UNL     1      -1.867  12.681  22.385  0.00  0.00    +0.000 A 
ENDBRANCH  26  27
ENDBRANCH  25  26
ENDBRANCH   9  25
TORSDOF 5
ENDMDL
MODEL 3
REMARK VINA RESULT:      -6.9      2.741      4.857
REMARK  Name = 
REMARK  7 active torsions:
REMARK  status: ('A' for Active; 'I' for Inactive)
REMARK    1  A    between atoms: C_1  and  C_2
REMARK    2  A    between atoms: C_6  and  C_7
REMARK    3  A    between atoms: C_13  and  C_14
REMARK    4  A    between atoms: N_16  and  C_17
REMARK    5  A    between atoms: C_22  and  O_23
REMARK    6  A    between atoms: O_23  and  C_24
REMARK    7  A    between atoms: C_24  and  C_25
REMARK                            x       y       z     vdW  Elec       q    Type
REMARK                         _______ _______ _______ _____ _____    ______ ____
ROOT
ATOM      1  C   UNL     1      -1.240  11.355  21.698  0.00  0.00    +0.000 A 
ATOM      2  C   UNL     1      -0.466  10.677  22.615  0.00  0.00    +0.000 A 
ATOM      3  N   UNL     1       0.434   9.927  21.916  0.00  0.00    +0.000 N 
ATOM      4  C   UNL     1       1.482   9.121  22.503  0.00  0.00    +0.000 C 
ATOM      5  C   UNL     1       0.222  10.058  20.560  0.00  0.00    +0.000 A 
ATOM      6  C   UNL     1       0.911   9.467  19.492  0.00  0.00    +0.000 A 
ATOM      7  C   UNL     1       0.477   9.735  18.204  0.00  0.00    +0.000 A 
ATOM      8  C   UNL     1      -0.592  10.594  17.986  0.00  0.00    +0.000 A 
ATOM      9  C   UNL     1      -1.242  11.265  19.047  0.00  0.00    +0.000 A 
ATOM     10  C   UNL     1      -0.845  10.953  20.378  0.00  0.00    +0.000 A 
ENDROOT
BRANCH   1  17
ATOM     11  C   UNL     1      -3.011  14.580  22.897  0.00  0.00    +0.000 C 
ATOM     12  N   UNL     1      -2.429  15.752  23.017  0.00  0.00    +0.000 NA
ATOM     13  N   UNL     1      -1.089  15.547  22.792  0.00  0.00    +0.000 N 
ATOM     14  C   UNL     1      -0.723  14.233  22.553  0.00  0.00    +0.000 C 
ATOM     15  O   UNL     1       0.401  13.797  22.424  0.00  0.00    +0.000 OA
ATOM     16  C   UNL     1      -2.030  13.534  22.510  0.00  0.00    +0.000 C 
ATOM     17  C   UNL     1      -2.250  12.279  22.089  0.00  0.00    +0.000 C 
ATOM     18  H   UNL     1      -0.420  16.303  22.882  0.00  0.00    +0.000 HD
BRANCH  11  24
ATOM     19  C   UNL     1      -4.497  12.439  24.770  0.00  0.00    +0.000 C 
ATOM     20  C   UNL     1      -5.089  13.503  23.924  0.00  0.00    +0.000 A 
ATOM     21  N   UNL     1      -6.476  13.612  23.885  0.00  0.00    +0.000 NA
ATOM     22  N   UNL     1      -6.874  14.573  23.074  0.00  0.00    +0.000 NA
ATOM     23  S   UNL     1      -5.605  15.355  22.326  0.00  0.00    +0.000 S 
ATOM     24  C   UNL     1      -4.414  14.433  23.142  0.00  0.00    +0.000 A 
ENDBRANCH  11  24
ENDBRANCH   1  17
BRANCH   9  25
ATOM     25  O   UNL     1      -2.227  12.213  18.822  0.00  0.00    +0.000 OA
BRANCH  25  26
ATOM     26  C   UNL     1      -3.265  11.765  17.935  0.00  0.00    +0.000 C 
BRANCH  26  27
ATOM     27  C   UNL     1      -4.618  11.610  18.585  0.00  0.00    +0.000 A 
ATOM     28  C   UNL     1      -5.554  10.675  18.134  0.00  0.00    +0.000 A 
ATOM     29  C   UNL     1      -6.749  10.489  18.828  0.00  0.00    +0.000 A 
ATOM     30  C   UNL     1      -7.018  11.226  19.981  0.00  0.00    +0.000 A 
ATOM     31  C   UNL     1      -6.089  12.152  20.449  0.00  0.00    +0.000 A 
ATOM     32  C   UNL     1      -4.894  12.341  19.755  0.00  0.00    +0.000 A 
ENDBRANCH  26  27
ENDBRANCH  25  26
ENDBRANCH   9  25
TORSDOF 5
ENDMDL
MODEL 4
REMARK VINA RESULT:      -6.8      2.926      6.093
REMARK  Name = 
REMARK  7 active torsions:
REMARK  status: ('A' for Active; 'I' for Inactive)
REMARK    1  A    between atoms: C_1  and  C_2
REMARK    2  A    between atoms: C_6  and  C_7
REMARK    3  A    between atoms: C_13  and  C_14
REMARK    4  A    between atoms: N_16  and  C_17
REMARK    5  A    between atoms: C_22  and  O_23
REMARK    6  A    between atoms: O_23  and  C_24
REMARK    7  A    between atoms: C_24  and  C_25
REMARK                            x       y       z     vdW  Elec       q    Type
REMARK                         _______ _______ _______ _____ _____    ______ ____
ROOT
ATOM      1  C   UNL     1      -4.382  12.757  19.681  0.00  0.00    +0.000 A 
ATOM      2  C   UNL     1      -5.618  13.174  19.234  0.00  0.00    +0.000 A 
ATOM      3  N   UNL     1      -5.844  12.569  18.032  0.00  0.00    +0.000 N 
ATOM      4  C   UNL     1      -7.061  12.680  17.257  0.00  0.00    +0.000 C 
ATOM      5  C   UNL     1      -4.753  11.813  17.659  0.00  0.00    +0.000 A 
ATOM      6  C   UNL     1      -4.562  11.035  16.509  0.00  0.00    +0.000 A 
ATOM      7  C   UNL     1      -3.346  10.388  16.350  0.00  0.00    +0.000 A 
ATOM      8  C   UNL     1      -2.364  10.488  17.325  0.00  0.00    +0.000 A 
ATOM      9  C   UNL     1      -2.573  11.196  18.530  0.00  0.00    +0.000 A 
ATOM     10  C   UNL     1      -3.793  11.914  18.680  0.00  0.00    +0.000 A 
ENDROOT
BRANCH   1  17
ATOM     11  C   UNL     1      -3.991  13.347  23.485  0.00  0.00    +0.000 C 
ATOM     12  N   UNL     1      -4.771  12.828  24.406  0.00  0.00    +0.000 NA
ATOM     13  N   UNL     1      -5.797  12.201  23.741  0.00  0.00    +0.000 N 
ATOM     14  C   UNL     1      -5.761  12.309  22.361  0.00  0.00    +0.000 C 
ATOM     15  O   UNL     1      -6.598  11.925  21.573  0.00  0.00    +0.000 OA
ATOM     16  C   UNL     1      -4.472  13.004  22.122  0.00  0.00    +0.000 C 
ATOM     17  C   UNL     1      -3.855  13.157  20.941  0.00  0.00    +0.000 C 
ATOM     18  H   UNL     1      -6.562  11.767  24.245  0.00  0.00    +0.000 HD
BRANCH  11  24
ATOM     19  C   UNL     1      -0.895  12.817  22.826  0.00  0.00    +0.000 C 
ATOM     20  C   UNL     1      -1.504  13.922  23.606  0.00  0.00    +0.000 A 
ATOM     21  N   UNL     1      -0.654  14.869  24.170  0.00  0.00    +0.000 NA
ATOM     22  N   UNL     1      -1.316  15.776  24.863  0.00  0.00    +0.000 NA
ATOM     23  S   UNL     1      -2.962  15.509  24.872  0.00  0.00    +0.000 S 
ATOM     24  C   UNL     1      -2.854  14.137  23.852  0.00  0.00    +0.000 A 
ENDBRANCH  11  24
ENDBRANCH   1  17
BRANCH   9  25
ATOM     25  O   UNL     1      -1.640  11.195  19.554  0.00  0.00    +0.000 OA
BRANCH  25  26
ATOM     26  C   UNL     1      -0.280  11.262  19.094  0.00  0.00    +0.000 C 
BRANCH  26  27
ATOM     27  C   UNL     1       0.558  10.057  19.447  0.00  0.00    +0.000 A 
ATOM     28  C   UNL     1       0.483   9.443  20.700  0.00  0.00    +0.000 A 
ATOM     29  C   UNL     1       1.194   8.270  20.950  0.00  0.00    +0.000 A 
ATOM     30  C   UNL     1       1.978   7.694  19.950  0.00  0.00    +0.000 A 
ATOM     31  C   UNL     1       2.053   8.288  18.693  0.00  0.00    +0.000 A 
ATOM     32  C   UNL     1       1.344   9.463  18.443  0.00  0.00    +0.000 A 
ENDBRANCH  26  27
ENDBRANCH  25  26
ENDBRANCH   9  25
TORSDOF 5
ENDMDL
MODEL 5
REMARK VINA RESULT:      -6.8      3.766      6.858
REMARK  Name = 
REMARK  7 active torsions:
REMARK  status: ('A' for Active; 'I' for Inactive)
REMARK    1  A    between atoms: C_1  and  C_2
REMARK    2  A    between atoms: C_6  and  C_7
REMARK    3  A    between atoms: C_13  and  C_14
REMARK    4  A    between atoms: N_16  and  C_17
REMARK    5  A    between atoms: C_22  and  O_23
REMARK    6  A    between atoms: O_23  and  C_24
REMARK    7  A    between atoms: C_24  and  C_25
REMARK                            x       y       z     vdW  Elec       q    Type
REMARK                         _______ _______ _______ _____ _____    ______ ____
ROOT
ATOM      1  C   UNL     1       0.140  13.178  21.100  0.00  0.00    +0.000 A 
ATOM      2  C   UNL     1       1.105  14.040  21.574  0.00  0.00    +0.000 A 
ATOM      3  N   UNL     1       0.467  15.152  22.043  0.00  0.00    +0.000 N 
ATOM      4  C   UNL     1       1.112  16.271  22.693  0.00  0.00    +0.000 C 
ATOM      5  C   UNL     1      -0.891  15.055  21.828  0.00  0.00    +0.000 A 
ATOM      6  C   UNL     1      -1.908  15.964  22.150  0.00  0.00    +0.000 A 
ATOM      7  C   UNL     1      -3.209  15.645  21.794  0.00  0.00    +0.000 A 
ATOM      8  C   UNL     1      -3.490  14.440  21.167  0.00  0.00    +0.000 A 
ATOM      9  C   UNL     1      -2.490  13.474  20.914  0.00  0.00    +0.000 A 
ATOM     10  C   UNL     1      -1.141  13.814  21.219  0.00  0.00    +0.000 A 
ENDROOT
BRANCH   1  17
ATOM     11  C   UNL     1       0.515   9.341  20.768  0.00  0.00    +0.000 C 
ATOM     12  N   UNL     1      -0.029   8.464  21.581  0.00  0.00    +0.000 NA
ATOM     13  N   UNL     1      -0.591   9.181  22.610  0.00  0.00    +0.000 N 
ATOM     14  C   UNL     1      -0.411  10.552  22.543  0.00  0.00    +0.000 C 
ATOM     15  O   UNL     1      -0.729  11.375  23.375  0.00  0.00    +0.000 OA
ATOM     16  C   UNL     1       0.259  10.729  21.232  0.00  0.00    +0.000 C 
ATOM     17  C   UNL     1       0.457  11.888  20.587  0.00  0.00    +0.000 C 
ATOM     18  H   UNL     1      -1.030   8.715  23.396  0.00  0.00    +0.000 HD
BRANCH  11  24
ATOM     19  C   UNL     1       2.131   6.601  20.342  0.00  0.00    +0.000 C 
ATOM     20  C   UNL     1       1.982   7.747  19.412  0.00  0.00    +0.000 A 
ATOM     21  N   UNL     1       2.634   7.682  18.185  0.00  0.00    +0.000 NA
ATOM     22  N   UNL     1       2.449   8.774  17.468  0.00  0.00    +0.000 NA
ATOM     23  S   UNL     1       1.508   9.908  18.249  0.00  0.00    +0.000 S 
ATOM     24  C   UNL     1       1.252   8.911  19.618  0.00  0.00    +0.000 A 
ENDBRANCH  11  24
ENDBRANCH   1  17
BRANCH   9  25
ATOM     25  O   UNL     1      -2.788  12.223  20.398  0.00  0.00    +0.000 OA
BRANCH  25  26
ATOM     26  C   UNL     1      -3.760  12.254  19.340  0.00  0.00    +0.000 C 
BRANCH  26  27
ATOM     27  C   UNL     1      -3.361  11.485  18.104  0.00  0.00    +0.000 A 
ATOM     28  C   UNL     1      -2.246  10.643  18.083  0.00  0.00    +0.000 A 
ATOM     29  C   UNL     1      -1.973   9.870  16.955  0.00  0.00    +0.000 A 
ATOM     30  C   UNL     1      -2.813   9.922  15.843  0.00  0.00    +0.000 A 
ATOM     31  C   UNL     1      -3.935  10.747  15.855  0.00  0.00    +0.000 A 
ATOM     32  C   UNL     1      -4.208  11.523  16.981  0.00  0.00    +0.000 A 
ENDBRANCH  26  27
ENDBRANCH  25  26
ENDBRANCH   9  25
TORSDOF 5
ENDMDL
MODEL 6
REMARK VINA RESULT:      -6.7      3.145      7.548
REMARK  Name = 
REMARK  7 active torsions:
REMARK  status: ('A' for Active; 'I' for Inactive)
REMARK    1  A    between atoms: C_1  and  C_2
REMARK    2  A    between atoms: C_6  and  C_7
REMARK    3  A    between atoms: C_13  and  C_14
REMARK    4  A    between atoms: N_16  and  C_17
REMARK    5  A    between atoms: C_22  and  O_23
REMARK    6  A    between atoms: O_23  and  C_24
REMARK    7  A    between atoms: C_24  and  C_25
REMARK                            x       y       z     vdW  Elec       q    Type
REMARK                         _______ _______ _______ _____ _____    ______ ____
ROOT
ATOM      1  C   UNL     1      -3.795  14.213  21.976  0.00  0.00    +0.000 A 
ATOM      2  C   UNL     1      -3.961  15.177  22.947  0.00  0.00    +0.000 A 
ATOM      3  N   UNL     1      -5.302  15.330  23.148  0.00  0.00    +0.000 N 
ATOM      4  C   UNL     1      -5.904  16.194  24.140  0.00  0.00    +0.000 C 
ATOM      5  C   UNL     1      -6.014  14.527  22.283  0.00  0.00    +0.000 A 
ATOM      6  C   UNL     1      -7.401  14.376  22.149  0.00  0.00    +0.000 A 
ATOM      7  C   UNL     1      -7.876  13.519  21.168  0.00  0.00    +0.000 A 
ATOM      8  C   UNL     1      -6.992  12.809  20.368  0.00  0.00    +0.000 A 
ATOM      9  C   UNL     1      -5.592  12.884  20.547  0.00  0.00    +0.000 A 
ATOM     10  C   UNL     1      -5.090  13.805  21.510  0.00  0.00    +0.000 A 
ENDROOT
BRANCH   1  17
ATOM     11  C   UNL     1      -0.513  12.179  21.724  0.00  0.00    +0.000 C 
ATOM     12  N   UNL     1      -0.292  11.039  22.338  0.00  0.00    +0.000 NA
ATOM     13  N   UNL     1      -1.364  10.829  23.171  0.00  0.00    +0.000 N 
ATOM     14  C   UNL     1      -2.318  11.834  23.173  0.00  0.00    +0.000 C 
ATOM     15  O   UNL     1      -3.293  11.918  23.889  0.00  0.00    +0.000 OA
ATOM     16  C   UNL     1      -1.831  12.746  22.110  0.00  0.00    +0.000 C 
ATOM     17  C   UNL     1      -2.510  13.765  21.561  0.00  0.00    +0.000 C 
ATOM     18  H   UNL     1      -1.397  10.030  23.794  0.00  0.00    +0.000 HD
BRANCH  11  24
ATOM     19  C   UNL     1       1.059  14.969  21.945  0.00  0.00    +0.000 C 
ATOM     20  C   UNL     1       1.137  13.939  20.880  0.00  0.00    +0.000 A 
ATOM     21  N   UNL     1       1.974  14.183  19.796  0.00  0.00    +0.000 NA
ATOM     22  N   UNL     1       1.928  13.208  18.907  0.00  0.00    +0.000 NA
ATOM     23  S   UNL     1       0.872  11.990  19.337  0.00  0.00    +0.000 S 
ATOM     24  C   UNL     1       0.460  12.726  20.827  0.00  0.00    +0.000 A 
ENDBRANCH  11  24
ENDBRANCH   1  17
BRANCH   9  25
ATOM     25  O   UNL     1      -4.715  12.086  19.830  0.00  0.00    +0.000 OA
BRANCH  25  26
ATOM     26  C   UNL     1      -4.855  12.213  18.405  0.00  0.00    +0.000 C 
BRANCH  26  27
ATOM     27  C   UNL     1      -3.962  11.295  17.606  0.00  0.00    +0.000 A 
ATOM     28  C   UNL     1      -4.222  10.987  16.268  0.00  0.00    +0.000 A 
ATOM     29  C   UNL     1      -3.316  10.221  15.536  0.00  0.00    +0.000 A 
ATOM     30  C   UNL     1      -2.139   9.764  16.128  0.00  0.00    +0.000 A 
ATOM     31  C   UNL     1      -1.860  10.074  17.456  0.00  0.00    +0.000 A 
ATOM     32  C   UNL     1      -2.767  10.838  18.191  0.00  0.00    +0.000 A 
ENDBRANCH  26  27
ENDBRANCH  25  26
ENDBRANCH   9  25
TORSDOF 5
ENDMDL
MODEL 7
REMARK VINA RESULT:      -6.7      2.322      5.114
REMARK  Name = 
REMARK  7 active torsions:
REMARK  status: ('A' for Active; 'I' for Inactive)
REMARK    1  A    between atoms: C_1  and  C_2
REMARK    2  A    between atoms: C_6  and  C_7
REMARK    3  A    between atoms: C_13  and  C_14
REMARK    4  A    between atoms: N_16  and  C_17
REMARK    5  A    between atoms: C_22  and  O_23
REMARK    6  A    between atoms: O_23  and  C_24
REMARK    7  A    between atoms: C_24  and  C_25
REMARK                            x       y       z     vdW  Elec       q    Type
REMARK                         _______ _______ _______ _____ _____    ______ ____
ROOT
ATOM      1  C   UNL     1      -1.386  14.229  20.762  0.00  0.00    +0.000 A 
ATOM      2  C   UNL     1      -0.840  15.464  21.040  0.00  0.00    +0.000 A 
ATOM      3  N   UNL     1       0.452  15.449  20.605  0.00  0.00    +0.000 N 
ATOM      4  C   UNL     1       1.358  16.576  20.641  0.00  0.00    +0.000 C 
ATOM      5  C   UNL     1       0.778  14.207  20.102  0.00  0.00    +0.000 A 
ATOM      6  C   UNL     1       1.989  13.760  19.557  0.00  0.00    +0.000 A 
ATOM      7  C   UNL     1       2.074  12.438  19.146  0.00  0.00    +0.000 A 
ATOM      8  C   UNL     1       0.973  11.599  19.246  0.00  0.00    +0.000 A 
ATOM      9  C   UNL     1      -0.280  12.058  19.712  0.00  0.00    +0.000 A 
ATOM     10  C   UNL     1      -0.365  13.396  20.193  0.00  0.00    +0.000 A 
ENDROOT
BRANCH   1  17
ATOM     11  C   UNL     1      -4.567  12.802  22.439  0.00  0.00    +0.000 C 
ATOM     12  N   UNL     1      -4.596  12.230  23.621  0.00  0.00    +0.000 NA
ATOM     13  N   UNL     1      -3.289  12.111  24.030  0.00  0.00    +0.000 N 
ATOM     14  C   UNL     1      -2.343  12.562  23.125  0.00  0.00    +0.000 C 
ATOM     15  O   UNL     1      -1.137  12.475  23.220  0.00  0.00    +0.000 OA
ATOM     16  C   UNL     1      -3.177  13.149  22.047  0.00  0.00    +0.000 C 
ATOM     17  C   UNL     1      -2.747  13.918  21.036  0.00  0.00    +0.000 C 
ATOM     18  H   UNL     1      -3.051  11.647  24.899  0.00  0.00    +0.000 HD
BRANCH  11  24
ATOM     19  C   UNL     1      -6.902  14.936  22.984  0.00  0.00    +0.000 C 
ATOM     20  C   UNL     1      -6.815  13.903  21.923  0.00  0.00    +0.000 A 
ATOM     21  N   UNL     1      -7.880  13.788  21.034  0.00  0.00    +0.000 NA
ATOM     22  N   UNL     1      -7.694  12.814  20.163  0.00  0.00    +0.000 NA
ATOM     23  S   UNL     1      -6.255  12.003  20.398  0.00  0.00    +0.000 S 
ATOM     24  C   UNL     1      -5.775  13.009  21.699  0.00  0.00    +0.000 A 
ENDBRANCH  11  24
ENDBRANCH   1  17
BRANCH   9  25
ATOM     25  O   UNL     1      -1.408  11.254  19.699  0.00  0.00    +0.000 OA
BRANCH  25  26
ATOM     26  C   UNL     1      -1.370  10.225  18.696  0.00  0.00    +0.000 C 
BRANCH  26  27
ATOM     27  C   UNL     1      -2.372  10.404  17.581  0.00  0.00    +0.000 A 
ATOM     28  C   UNL     1      -3.506  11.207  17.725  0.00  0.00    +0.000 A 
ATOM     29  C   UNL     1      -4.349  11.430  16.637  0.00  0.00    +0.000 A 
ATOM     30  C   UNL     1      -4.065  10.863  15.395  0.00  0.00    +0.000 A 
ATOM     31  C   UNL     1      -2.932  10.070  15.234  0.00  0.00    +0.000 A 
ATOM     32  C   UNL     1      -2.088   9.844  16.322  0.00  0.00    +0.000 A 
ENDBRANCH  26  27
ENDBRANCH  25  26
ENDBRANCH   9  25
TORSDOF 5
ENDMDL
MODEL 8
REMARK VINA RESULT:      -6.7      3.703      5.860
REMARK  Name = 
REMARK  7 active torsions:
REMARK  status: ('A' for Active; 'I' for Inactive)
REMARK    1  A    between atoms: C_1  and  C_2
REMARK    2  A    between atoms: C_6  and  C_7
REMARK    3  A    between atoms: C_13  and  C_14
REMARK    4  A    between atoms: N_16  and  C_17
REMARK    5  A    between atoms: C_22  and  O_23
REMARK    6  A    between atoms: O_23  and  C_24
REMARK    7  A    between atoms: C_24  and  C_25
REMARK                            x       y       z     vdW  Elec       q    Type
REMARK                         _______ _______ _______ _____ _____    ______ ____
ROOT
ATOM      1  C   UNL     1       0.603  12.171  19.630  0.00  0.00    +0.000 A 
ATOM      2  C   UNL     1       1.295  11.410  18.712  0.00  0.00    +0.000 A 
ATOM      3  N   UNL     1       1.258  10.115  19.142  0.00  0.00    +0.000 N 
ATOM      4  C   UNL     1       1.805   8.983  18.427  0.00  0.00    +0.000 C 
ATOM      5  C   UNL     1       0.607  10.028  20.354  0.00  0.00    +0.000 A 
ATOM      6  C   UNL     1       0.348   8.899  21.143  0.00  0.00    +0.000 A 
ATOM      7  C   UNL     1      -0.305   9.081  22.353  0.00  0.00    +0.000 A 
ATOM      8  C   UNL     1      -0.717  10.347  22.746  0.00  0.00    +0.000 A 
ATOM      9  C   UNL     1      -0.541  11.482  21.922  0.00  0.00    +0.000 A 
ATOM     10  C   UNL     1       0.181  11.319  20.705  0.00  0.00    +0.000 A 
ENDROOT
BRANCH   1  17
ATOM     11  C   UNL     1       1.017  16.009  19.889  0.00  0.00    +0.000 C 
ATOM     12  N   UNL     1       2.057  16.614  20.419  0.00  0.00    +0.000 NA
ATOM     13  N   UNL     1       2.839  15.631  20.976  0.00  0.00    +0.000 N 
ATOM     14  C   UNL     1       2.336  14.345  20.873  0.00  0.00    +0.000 C 
ATOM     15  O   UNL     1       2.795  13.337  21.366  0.00  0.00    +0.000 OA
ATOM     16  C   UNL     1       1.126  14.535  20.036  0.00  0.00    +0.000 C 
ATOM     17  C   UNL     1       0.396  13.569  19.459  0.00  0.00    +0.000 C 
ATOM     18  H   UNL     1       3.680  15.860  21.494  0.00  0.00    +0.000 HD
BRANCH  11  24
ATOM     19  C   UNL     1       1.158  17.924  17.318  0.00  0.00    +0.000 C 
ATOM     20  C   UNL     1      -0.004  17.622  18.190  0.00  0.00    +0.000 A 
ATOM     21  N   UNL     1      -1.213  18.250  17.909  0.00  0.00    +0.000 NA
ATOM     22  N   UNL     1      -2.153  17.922  18.774  0.00  0.00    +0.000 NA
ATOM     23  S   UNL     1      -1.610  16.872  19.952  0.00  0.00    +0.000 S 
ATOM     24  C   UNL     1      -0.037  16.765  19.284  0.00  0.00    +0.000 A 
ENDBRANCH  11  24
ENDBRANCH   1  17
BRANCH   9  25
ATOM     25  O   UNL     1      -1.058  12.722  22.260  0.00  0.00    +0.000 OA
BRANCH  25  26
ATOM     26  C   UNL     1      -2.301  13.025  21.605  0.00  0.00    +0.000 C 
BRANCH  26  27
ATOM     27  C   UNL     1      -3.511  12.965  22.506  0.00  0.00    +0.000 A 
ATOM     28  C   UNL     1      -4.810  13.109  22.012  0.00  0.00    +0.000 A 
ATOM     29  C   UNL     1      -5.905  12.942  22.859  0.00  0.00    +0.000 A 
ATOM     30  C   UNL     1      -5.714  12.622  24.203  0.00  0.00    +0.000 A 
ATOM     31  C   UNL     1      -4.426  12.464  24.706  0.00  0.00    +0.000 A 
ATOM     32  C   UNL     1      -3.330  12.632  23.860  0.00  0.00    +0.000 A 
ENDBRANCH  26  27
ENDBRANCH  25  26
ENDBRANCH   9  25
TORSDOF 5
ENDMDL
MODEL 9
REMARK VINA RESULT:      -6.6      2.580      5.297
REMARK  Name = 
REMARK  7 active torsions:
REMARK  status: ('A' for Active; 'I' for Inactive)
REMARK    1  A    between atoms: C_1  and  C_2
REMARK    2  A    between atoms: C_6  and  C_7
REMARK    3  A    between atoms: C_13  and  C_14
REMARK    4  A    between atoms: N_16  and  C_17
REMARK    5  A    between atoms: C_22  and  O_23
REMARK    6  A    between atoms: O_23  and  C_24
REMARK    7  A    between atoms: C_24  and  C_25
REMARK                            x       y       z     vdW  Elec       q    Type
REMARK                         _______ _______ _______ _____ _____    ______ ____
ROOT
ATOM      1  C   UNL     1      -0.626  14.859  19.939  0.00  0.00    +0.000 A 
ATOM      2  C   UNL     1      -0.127  16.103  19.617  0.00  0.00    +0.000 A 
ATOM      3  N   UNL     1       1.011  15.912  18.888  0.00  0.00    +0.000 N 
ATOM      4  C   UNL     1       1.804  16.963  18.290  0.00  0.00    +0.000 C 
ATOM      5  C   UNL     1       1.295  14.567  18.781  0.00  0.00    +0.000 A 
ATOM      6  C   UNL     1       2.360  13.934  18.127  0.00  0.00    +0.000 A 
ATOM      7  C   UNL     1       2.442  12.552  18.194  0.00  0.00    +0.000 A 
ATOM      8  C   UNL     1       1.472  11.822  18.866  0.00  0.00    +0.000 A 
ATOM      9  C   UNL     1       0.346  12.438  19.458  0.00  0.00    +0.000 A 
ATOM     10  C   UNL     1       0.280  13.861  19.448  0.00  0.00    +0.000 A 
ENDROOT
BRANCH   1  17
ATOM     11  C   UNL     1      -3.163  14.348  22.816  0.00  0.00    +0.000 C 
ATOM     12  N   UNL     1      -2.867  14.415  24.094  0.00  0.00    +0.000 NA
ATOM     13  N   UNL     1      -1.500  14.534  24.173  0.00  0.00    +0.000 N 
ATOM     14  C   UNL     1      -0.834  14.515  22.959  0.00  0.00    +0.000 C 
ATOM     15  O   UNL     1       0.366  14.509  22.781  0.00  0.00    +0.000 OA
ATOM     16  C   UNL     1      -1.946  14.493  21.977  0.00  0.00    +0.000 C 
ATOM     17  C   UNL     1      -1.845  14.690  20.654  0.00  0.00    +0.000 C 
ATOM     18  H   UNL     1      -1.025  14.551  25.068  0.00  0.00    +0.000 HD
BRANCH  11  24
ATOM     19  C   UNL     1      -5.737  16.168  23.419  0.00  0.00    +0.000 C 
ATOM     20  C   UNL     1      -5.654  14.900  22.655  0.00  0.00    +0.000 A 
ATOM     21  N   UNL     1      -6.830  14.374  22.129  0.00  0.00    +0.000 NA
ATOM     22  N   UNL     1      -6.625  13.232  21.503  0.00  0.00    +0.000 NA
ATOM     23  S   UNL     1      -5.028  12.750  21.542  0.00  0.00    +0.000 S 
ATOM     24  C   UNL     1      -4.515  14.148  22.389  0.00  0.00    +0.000 A 
ENDBRANCH  11  24
ENDBRANCH   1  17
BRANCH   9  25
ATOM     25  O   UNL     1      -0.683  11.702  20.023  0.00  0.00    +0.000 OA
BRANCH  25  26
ATOM     26  C   UNL     1      -0.960  10.474  19.330  0.00  0.00    +0.000 C 
BRANCH  26  27
ATOM     27  C   UNL     1      -2.018  10.588  18.259  0.00  0.00    +0.000 A 
ATOM     28  C   UNL     1      -3.134  11.416  18.404  0.00  0.00    +0.000 A 
ATOM     29  C   UNL     1      -4.032  11.574  17.349  0.00  0.00    +0.000 A 
ATOM     30  C   UNL     1      -3.820  10.916  16.138  0.00  0.00    +0.000 A 
ATOM     31  C   UNL     1      -2.706  10.097  15.975  0.00  0.00    +0.000 A 
ATOM     32  C   UNL     1      -1.808   9.936  17.030  0.00  0.00    +0.000 A 
ENDBRANCH  26  27
ENDBRANCH  25  26
ENDBRANCH   9  25
TORSDOF 5
ENDMDL
