MODEL 1
REMARK VINA RESULT:      -8.7      0.000      0.000
REMARK  Name = 
REMARK  2 active torsions:
REMARK  status: ('A' for Active; 'I' for Inactive)
REMARK    1  A    between atoms: C_4  and  C_5
REMARK    2  A    between atoms: C_13  and  C_14
REMARK                            x       y       z     vdW  Elec       q    Type
REMARK                         _______ _______ _______ _____ _____    ______ ____
ROOT
ATOM      1  N   UNL     1       8.010   5.012  18.785  0.00  0.00    +0.000 N 
ATOM      2  C   UNL     1       7.099   4.718  17.806  0.00  0.00    +0.000 A 
ATOM      3  N   UNL     1       7.468   4.866  16.553  0.00  0.00    +0.000 NA
ATOM      4  C   UNL     1       6.565   4.537  15.548  0.00  0.00    +0.000 A 
ATOM      5  C   UNL     1       5.326   4.058  15.779  0.00  0.00    +0.000 A 
ATOM      6  N   UNL     1       4.923   3.914  17.086  0.00  0.00    +0.000 N 
ATOM      7  C   UNL     1       3.764   3.461  17.645  0.00  0.00    +0.000 A 
ATOM      8  C   UNL     1       3.945   3.609  19.005  0.00  0.00    +0.000 A 
ATOM      9  N   UNL     1       5.190   4.127  19.296  0.00  0.00    +0.000 NA
ATOM     10  C   UNL     1       5.758   4.258  18.115  0.00  0.00    +0.000 A 
ATOM     11  H   UNL     1       8.763   5.615  18.483  0.00  0.00    +0.000 HD
ATOM     12  H   UNL     1       7.611   5.221  19.693  0.00  0.00    +0.000 HD
ENDROOT
BRANCH   4  13
ATOM     13  C   UNL     1       7.008   4.707  14.200  0.00  0.00    +0.000 A 
ATOM     14  C   UNL     1       6.594   4.058  13.038  0.00  0.00    +0.000 A 
ATOM     15  C   UNL     1       7.331   4.579  11.950  0.00  0.00    +0.000 A 
ATOM     16  C   UNL     1       8.169   5.522  12.486  0.00  0.00    +0.000 A 
ATOM     17  O   UNL     1       7.991   5.609  13.824  0.00  0.00    +0.000 OA
ENDBRANCH   4  13
BRANCH   8  18
ATOM     18  C   UNL     1       2.926   3.242  20.019  0.00  0.00    +0.000 A 
ATOM     19  C   UNL     1       1.577   3.532  19.956  0.00  0.00    +0.000 A 
ATOM     20  C   UNL     1       0.993   3.011  21.136  0.00  0.00    +0.000 A 
ATOM     21  C   UNL     1       2.019   2.441  21.850  0.00  0.00    +0.000 A 
ATOM     22  O   UNL     1       3.191   2.563  21.176  0.00  0.00    +0.000 OA
ENDBRANCH   8  18
TORSDOF 2
ENDMDL
MODEL 2
REMARK VINA RESULT:      -7.9      0.762      7.188
REMARK  Name = 
REMARK  2 active torsions:
REMARK  status: ('A' for Active; 'I' for Inactive)
REMARK    1  A    between atoms: C_4  and  C_5
REMARK    2  A    between atoms: C_13  and  C_14
REMARK                            x       y       z     vdW  Elec       q    Type
REMARK                         _______ _______ _______ _____ _____    ______ ____
ROOT
ATOM      1  N   UNL     1       7.235   5.183  19.594  0.00  0.00    +0.000 N 
ATOM      2  C   UNL     1       6.120   4.672  18.985  0.00  0.00    +0.000 A 
ATOM      3  N   UNL     1       5.121   4.288  19.748  0.00  0.00    +0.000 NA
ATOM      4  C   UNL     1       3.968   3.799  19.141  0.00  0.00    +0.000 A 
ATOM      5  C   UNL     1       3.806   3.704  17.806  0.00  0.00    +0.000 A 
ATOM      6  N   UNL     1       4.851   4.087  16.999  0.00  0.00    +0.000 N 
ATOM      7  C   UNL     1       5.000   4.121  15.643  0.00  0.00    +0.000 A 
ATOM      8  C   UNL     1       6.296   4.550  15.439  0.00  0.00    +0.000 A 
ATOM      9  N   UNL     1       6.940   4.795  16.634  0.00  0.00    +0.000 NA
ATOM     10  C   UNL     1       6.022   4.542  17.543  0.00  0.00    +0.000 A 
ATOM     11  H   UNL     1       7.329   4.931  20.567  0.00  0.00    +0.000 HD
ATOM     12  H   UNL     1       8.083   5.142  19.040  0.00  0.00    +0.000 HD
ENDROOT
BRANCH   4  13
ATOM     13  C   UNL     1       2.904   3.398  20.005  0.00  0.00    +0.000 A 
ATOM     14  C   UNL     1       2.956   2.800  21.263  0.00  0.00    +0.000 A 
ATOM     15  C   UNL     1       1.631   2.600  21.717  0.00  0.00    +0.000 A 
ATOM     16  C   UNL     1       0.821   3.077  20.720  0.00  0.00    +0.000 A 
ATOM     17  O   UNL     1       1.563   3.553  19.693  0.00  0.00    +0.000 OA
ENDBRANCH   4  13
BRANCH   8  18
ATOM     18  C   UNL     1       6.904   4.733  14.099  0.00  0.00    +0.000 A 
ATOM     19  C   UNL     1       6.583   4.024  12.958  0.00  0.00    +0.000 A 
ATOM     20  C   UNL     1       7.418   4.516  11.925  0.00  0.00    +0.000 A 
ATOM     21  C   UNL     1       8.200   5.490  12.497  0.00  0.00    +0.000 A 
ATOM     22  O   UNL     1       7.887   5.640  13.809  0.00  0.00    +0.000 OA
ENDBRANCH   8  18
TORSDOF 2
ENDMDL
MODEL 3
REMARK VINA RESULT:      -7.5      1.485      7.372
REMARK  Name = 
REMARK  2 active torsions:
REMARK  status: ('A' for Active; 'I' for Inactive)
REMARK    1  A    between atoms: C_4  and  C_5
REMARK    2  A    between atoms: C_13  and  C_14
REMARK                            x       y       z     vdW  Elec       q    Type
REMARK                         _______ _______ _______ _____ _____    ______ ____
ROOT
ATOM      1  N   UNL     1       3.488   7.591  17.684  0.00  0.00    +0.000 N 
ATOM      2  C   UNL     1       3.686   6.242  17.801  0.00  0.00    +0.000 A 
ATOM      3  N   UNL     1       3.112   5.618  18.806  0.00  0.00    +0.000 NA
ATOM      4  C   UNL     1       3.275   4.241  18.917  0.00  0.00    +0.000 A 
ATOM      5  C   UNL     1       3.981   3.496  18.043  0.00  0.00    +0.000 A 
ATOM      6  N   UNL     1       4.598   4.140  16.996  0.00  0.00    +0.000 N 
ATOM      7  C   UNL     1       5.361   3.686  15.960  0.00  0.00    +0.000 A 
ATOM      8  C   UNL     1       5.736   4.822  15.272  0.00  0.00    +0.000 A 
ATOM      9  N   UNL     1       5.210   5.959  15.849  0.00  0.00    +0.000 NA
ATOM     10  C   UNL     1       4.502   5.498  16.859  0.00  0.00    +0.000 A 
ATOM     11  H   UNL     1       3.195   8.044  18.539  0.00  0.00    +0.000 HD
ATOM     12  H   UNL     1       4.189   8.082  17.140  0.00  0.00    +0.000 HD
ENDROOT
BRANCH   4  13
ATOM     13  C   UNL     1       2.632   3.601  20.021  0.00  0.00    +0.000 A 
ATOM     14  C   UNL     1       1.312   3.699  20.460  0.00  0.00    +0.000 A 
ATOM     15  C   UNL     1       1.158   2.869  21.595  0.00  0.00    +0.000 A 
ATOM     16  C   UNL     1       2.386   2.300  21.809  0.00  0.00    +0.000 A 
ATOM     17  O   UNL     1       3.275   2.727  20.883  0.00  0.00    +0.000 OA
ENDBRANCH   4  13
BRANCH   8  18
ATOM     18  C   UNL     1       6.587   4.808  14.057  0.00  0.00    +0.000 A 
ATOM     19  C   UNL     1       6.411   3.998  12.952  0.00  0.00    +0.000 A 
ATOM     20  C   UNL     1       7.457   4.309  12.048  0.00  0.00    +0.000 A 
ATOM     21  C   UNL     1       8.209   5.286  12.657  0.00  0.00    +0.000 A 
ATOM     22  O   UNL     1       7.682   5.605  13.866  0.00  0.00    +0.000 OA
ENDBRANCH   8  18
TORSDOF 2
ENDMDL
MODEL 4
REMARK VINA RESULT:      -7.2      1.422      1.574
REMARK  Name = 
REMARK  2 active torsions:
REMARK  status: ('A' for Active; 'I' for Inactive)
REMARK    1  A    between atoms: C_4  and  C_5
REMARK    2  A    between atoms: C_13  and  C_14
REMARK                            x       y       z     vdW  Elec       q    Type
REMARK                         _______ _______ _______ _____ _____    ______ ____
ROOT
ATOM      1  N   UNL     1       4.491   7.698  17.198  0.00  0.00    +0.000 N 
ATOM      2  C   UNL     1       4.750   6.417  16.788  0.00  0.00    +0.000 A 
ATOM      3  N   UNL     1       5.451   6.250  15.689  0.00  0.00    +0.000 NA
ATOM      4  C   UNL     1       5.752   4.955  15.280  0.00  0.00    +0.000 A 
ATOM      5  C   UNL     1       5.378   3.849  15.953  0.00  0.00    +0.000 A 
ATOM      6  N   UNL     1       4.630   4.011  17.096  0.00  0.00    +0.000 N 
ATOM      7  C   UNL     1       4.111   3.119  17.989  0.00  0.00    +0.000 A 
ATOM      8  C   UNL     1       3.411   3.890  18.894  0.00  0.00    +0.000 A 
ATOM      9  N   UNL     1       3.499   5.233  18.590  0.00  0.00    +0.000 NA
ATOM     10  C   UNL     1       4.273   5.262  17.525  0.00  0.00    +0.000 A 
ATOM     11  H   UNL     1       4.576   8.392  16.469  0.00  0.00    +0.000 HD
ATOM     12  H   UNL     1       3.692   7.797  17.814  0.00  0.00    +0.000 HD
ENDROOT
BRANCH   4  13
ATOM     13  C   UNL     1       6.521   4.818  14.083  0.00  0.00    +0.000 A 
ATOM     14  C   UNL     1       6.343   3.951  13.006  0.00  0.00    +0.000 A 
ATOM     15  C   UNL     1       7.365   4.201  12.060  0.00  0.00    +0.000 A 
ATOM     16  C   UNL     1       8.130   5.204  12.596  0.00  0.00    +0.000 A 
ATOM     17  O   UNL     1       7.643   5.580  13.801  0.00  0.00    +0.000 OA
ENDBRANCH   4  13
BRANCH   8  18
ATOM     18  C   UNL     1       2.671   3.335  20.053  0.00  0.00    +0.000 A 
ATOM     19  C   UNL     1       1.330   3.523  20.327  0.00  0.00    +0.000 A 
ATOM     20  C   UNL     1       1.058   2.832  21.532  0.00  0.00    +0.000 A 
ATOM     21  C   UNL     1       2.249   2.267  21.925  0.00  0.00    +0.000 A 
ATOM     22  O   UNL     1       3.227   2.554  21.029  0.00  0.00    +0.000 OA
ENDBRANCH   8  18
TORSDOF 2
ENDMDL
MODEL 5
REMARK VINA RESULT:      -7.2      3.140      3.432
REMARK  Name = 
REMARK  2 active torsions:
REMARK  status: ('A' for Active; 'I' for Inactive)
REMARK    1  A    between atoms: C_4  and  C_5
REMARK    2  A    between atoms: C_13  and  C_14
REMARK                            x       y       z     vdW  Elec       q    Type
REMARK                         _______ _______ _______ _____ _____    ______ ____
ROOT
ATOM      1  N   UNL     1       5.311   3.388  19.047  0.00  0.00    +0.000 N 
ATOM      2  C   UNL     1       5.158   4.331  18.067  0.00  0.00    +0.000 A 
ATOM      3  N   UNL     1       5.817   4.166  16.942  0.00  0.00    +0.000 NA
ATOM      4  C   UNL     1       5.644   5.099  15.924  0.00  0.00    +0.000 A 
ATOM      5  C   UNL     1       4.826   6.165  16.015  0.00  0.00    +0.000 A 
ATOM      6  N   UNL     1       4.143   6.357  17.194  0.00  0.00    +0.000 N 
ATOM      7  C   UNL     1       3.254   7.311  17.595  0.00  0.00    +0.000 A 
ATOM      8  C   UNL     1       2.962   6.994  18.907  0.00  0.00    +0.000 A 
ATOM      9  N   UNL     1       3.637   5.862  19.315  0.00  0.00    +0.000 NA
ATOM     10  C   UNL     1       4.304   5.491  18.242  0.00  0.00    +0.000 A 
ATOM     11  H   UNL     1       6.146   2.826  18.957  0.00  0.00    +0.000 HD
ATOM     12  H   UNL     1       5.087   3.703  19.985  0.00  0.00    +0.000 HD
ENDROOT
BRANCH   4  13
ATOM     13  C   UNL     1       6.374   4.879  14.716  0.00  0.00    +0.000 A 
ATOM     14  C   UNL     1       6.123   3.987  13.674  0.00  0.00    +0.000 A 
ATOM     15  C   UNL     1       7.132   4.148  12.697  0.00  0.00    +0.000 A 
ATOM     16  C   UNL     1       7.964   5.126  13.178  0.00  0.00    +0.000 A 
ATOM     17  O   UNL     1       7.528   5.569  14.380  0.00  0.00    +0.000 OA
ENDBRANCH   4  13
BRANCH   8  18
ATOM     18  C   UNL     1       2.028   7.772  19.756  0.00  0.00    +0.000 A 
ATOM     19  C   UNL     1       1.516   7.373  20.975  0.00  0.00    +0.000 A 
ATOM     20  C   UNL     1       0.660   8.411  21.418  0.00  0.00    +0.000 A 
ATOM     21  C   UNL     1       0.697   9.378  20.441  0.00  0.00    +0.000 A 
ATOM     22  O   UNL     1       1.533   9.007  19.439  0.00  0.00    +0.000 OA
ENDBRANCH   8  18
TORSDOF 2
ENDMDL
MODEL 6
REMARK VINA RESULT:      -7.1      2.812      7.290
REMARK  Name = 
REMARK  2 active torsions:
REMARK  status: ('A' for Active; 'I' for Inactive)
REMARK    1  A    between atoms: C_4  and  C_5
REMARK    2  A    between atoms: C_13  and  C_14
REMARK                            x       y       z     vdW  Elec       q    Type
REMARK                         _______ _______ _______ _____ _____    ______ ____
ROOT
ATOM      1  N   UNL     1       4.968   3.331  19.359  0.00  0.00    +0.000 N 
ATOM      2  C   UNL     1       4.503   4.486  18.790  0.00  0.00    +0.000 A 
ATOM      3  N   UNL     1       3.669   5.226  19.488  0.00  0.00    +0.000 NA
ATOM      4  C   UNL     1       3.215   6.420  18.936  0.00  0.00    +0.000 A 
ATOM      5  C   UNL     1       3.590   6.877  17.725  0.00  0.00    +0.000 A 
ATOM      6  N   UNL     1       4.448   6.103  16.980  0.00  0.00    +0.000 N 
ATOM      7  C   UNL     1       5.010   6.280  15.749  0.00  0.00    +0.000 A 
ATOM      8  C   UNL     1       5.738   5.129  15.523  0.00  0.00    +0.000 A 
ATOM      9  N   UNL     1       5.650   4.258  16.590  0.00  0.00    +0.000 NA
ATOM     10  C   UNL     1       4.898   4.902  17.457  0.00  0.00    +0.000 A 
ATOM     11  H   UNL     1       4.398   2.982  20.117  0.00  0.00    +0.000 HD
ATOM     12  H   UNL     1       5.308   2.636  18.703  0.00  0.00    +0.000 HD
ENDROOT
BRANCH   4  13
ATOM     13  C   UNL     1       2.316   7.196  19.729  0.00  0.00    +0.000 A 
ATOM     14  C   UNL     1       1.700   6.884  20.940  0.00  0.00    +0.000 A 
ATOM     15  C   UNL     1       0.899   7.983  21.329  0.00  0.00    +0.000 A 
ATOM     16  C   UNL     1       1.052   8.922  20.342  0.00  0.00    +0.000 A 
ATOM     17  O   UNL     1       1.889   8.468  19.381  0.00  0.00    +0.000 OA
ENDBRANCH   4  13
BRANCH   8  18
ATOM     18  C   UNL     1       6.524   4.877  14.290  0.00  0.00    +0.000 A 
ATOM     19  C   UNL     1       6.247   3.921  13.333  0.00  0.00    +0.000 A 
ATOM     20  C   UNL     1       7.261   4.025  12.349  0.00  0.00    +0.000 A 
ATOM     21  C   UNL     1       8.097   5.032  12.767  0.00  0.00    +0.000 A 
ATOM     22  O   UNL     1       7.652   5.565  13.934  0.00  0.00    +0.000 OA
ENDBRANCH   8  18
TORSDOF 2
ENDMDL
MODEL 7
REMARK VINA RESULT:      -7.0      0.889      7.186
REMARK  Name = 
REMARK  2 active torsions:
REMARK  status: ('A' for Active; 'I' for Inactive)
REMARK    1  A    between atoms: C_4  and  C_5
REMARK    2  A    between atoms: C_13  and  C_14
REMARK                            x       y       z     vdW  Elec       q    Type
REMARK                         _______ _______ _______ _____ _____    ______ ____
ROOT
ATOM      1  N   UNL     1       7.676   5.467  19.212  0.00  0.00    +0.000 N 
ATOM      2  C   UNL     1       6.526   4.895  18.739  0.00  0.00    +0.000 A 
ATOM      3  N   UNL     1       5.599   4.560  19.610  0.00  0.00    +0.000 NA
ATOM      4  C   UNL     1       4.411   4.010  19.140  0.00  0.00    +0.000 A 
ATOM      5  C   UNL     1       4.141   3.809  17.835  0.00  0.00    +0.000 A 
ATOM      6  N   UNL     1       5.108   4.142  16.917  0.00  0.00    +0.000 N 
ATOM      7  C   UNL     1       5.145   4.071  15.554  0.00  0.00    +0.000 A 
ATOM      8  C   UNL     1       6.411   4.499  15.211  0.00  0.00    +0.000 A 
ATOM      9  N   UNL     1       7.147   4.845  16.326  0.00  0.00    +0.000 NA
ATOM     10  C   UNL     1       6.312   4.652  17.324  0.00  0.00    +0.000 A 
ATOM     11  H   UNL     1       7.855   5.292  20.190  0.00  0.00    +0.000 HD
ATOM     12  H   UNL     1       8.477   5.393  18.594  0.00  0.00    +0.000 HD
ENDROOT
BRANCH   4  13
ATOM     13  C   UNL     1       3.428   3.665  20.119  0.00  0.00    +0.000 A 
ATOM     14  C   UNL     1       2.287   4.359  20.517  0.00  0.00    +0.000 A 
ATOM     15  C   UNL     1       1.633   3.603  21.518  0.00  0.00    +0.000 A 
ATOM     16  C   UNL     1       2.400   2.482  21.698  0.00  0.00    +0.000 A 
ATOM     17  O   UNL     1       3.473   2.505  20.874  0.00  0.00    +0.000 OA
ENDBRANCH   4  13
BRANCH   8  18
ATOM     18  C   UNL     1       6.904   4.584  13.815  0.00  0.00    +0.000 A 
ATOM     19  C   UNL     1       7.837   5.484  13.337  0.00  0.00    +0.000 A 
ATOM     20  C   UNL     1       7.990   5.216  11.954  0.00  0.00    +0.000 A 
ATOM     21  C   UNL     1       7.140   4.175  11.671  0.00  0.00    +0.000 A 
ATOM     22  O   UNL     1       6.488   3.776  12.793  0.00  0.00    +0.000 OA
ENDBRANCH   8  18
TORSDOF 2
ENDMDL
MODEL 8
REMARK VINA RESULT:      -6.9      4.886      5.797
REMARK  Name = 
REMARK  2 active torsions:
REMARK  status: ('A' for Active; 'I' for Inactive)
REMARK    1  A    between atoms: C_4  and  C_5
REMARK    2  A    between atoms: C_13  and  C_14
REMARK                            x       y       z     vdW  Elec       q    Type
REMARK                         _______ _______ _______ _____ _____    ______ ____
ROOT
ATOM      1  N   UNL     1       2.195   4.331  20.869  0.00  0.00    +0.000 N 
ATOM      2  C   UNL     1       2.521   5.311  19.971  0.00  0.00    +0.000 A 
ATOM      3  N   UNL     1       3.303   4.990  18.963  0.00  0.00    +0.000 NA
ATOM      4  C   UNL     1       3.614   5.967  18.023  0.00  0.00    +0.000 A 
ATOM      5  C   UNL     1       3.150   7.232  18.073  0.00  0.00    +0.000 A 
ATOM      6  N   UNL     1       2.345   7.583  19.131  0.00  0.00    +0.000 N 
ATOM      7  C   UNL     1       1.723   8.751  19.464  0.00  0.00    +0.000 A 
ATOM      8  C   UNL     1       1.105   8.492  20.671  0.00  0.00    +0.000 A 
ATOM      9  N   UNL     1       1.320   7.192  21.080  0.00  0.00    +0.000 NA
ATOM     10  C   UNL     1       2.037   6.672  20.105  0.00  0.00    +0.000 A 
ATOM     11  H   UNL     1       2.825   3.541  20.870  0.00  0.00    +0.000 HD
ATOM     12  H   UNL     1       1.901   4.666  21.781  0.00  0.00    +0.000 HD
ENDROOT
BRANCH   4  13
ATOM     13  C   UNL     1       4.460   5.575  16.941  0.00  0.00    +0.000 A 
ATOM     14  C   UNL     1       5.025   6.348  15.927  0.00  0.00    +0.000 A 
ATOM     15  C   UNL     1       5.791   5.500  15.094  0.00  0.00    +0.000 A 
ATOM     16  C   UNL     1       5.662   4.243  15.624  0.00  0.00    +0.000 A 
ATOM     17  O   UNL     1       4.871   4.270  16.722  0.00  0.00    +0.000 OA
ENDBRANCH   4  13
BRANCH   8  18
ATOM     18  C   UNL     1       0.303   9.491  21.418  0.00  0.00    +0.000 A 
ATOM     19  C   UNL     1      -0.117   9.377  22.729  0.00  0.00    +0.000 A 
ATOM     20  C   UNL     1      -0.864  10.545  23.021  0.00  0.00    +0.000 A 
ATOM     21  C   UNL     1      -0.859  11.298  21.870  0.00  0.00    +0.000 A 
ATOM     22  O   UNL     1      -0.144  10.675  20.899  0.00  0.00    +0.000 OA
ENDBRANCH   8  18
TORSDOF 2
ENDMDL
MODEL 9
REMARK VINA RESULT:      -6.8      1.351      1.472
REMARK  Name = 
REMARK  2 active torsions:
REMARK  status: ('A' for Active; 'I' for Inactive)
REMARK    1  A    between atoms: C_4  and  C_5
REMARK    2  A    between atoms: C_13  and  C_14
REMARK                            x       y       z     vdW  Elec       q    Type
REMARK                         _______ _______ _______ _____ _____    ______ ____
ROOT
ATOM      1  N   UNL     1       6.000   7.250  17.475  0.00  0.00    +0.000 N 
ATOM      2  C   UNL     1       5.698   6.065  16.860  0.00  0.00    +0.000 A 
ATOM      3  N   UNL     1       6.191   5.848  15.660  0.00  0.00    +0.000 NA
ATOM      4  C   UNL     1       5.921   4.634  15.038  0.00  0.00    +0.000 A 
ATOM      5  C   UNL     1       5.190   3.650  15.598  0.00  0.00    +0.000 A 
ATOM      6  N   UNL     1       4.656   3.871  16.845  0.00  0.00    +0.000 N 
ATOM      7  C   UNL     1       3.894   3.095  17.669  0.00  0.00    +0.000 A 
ATOM      8  C   UNL     1       3.627   3.895  18.762  0.00  0.00    +0.000 A 
ATOM      9  N   UNL     1       4.218   5.136  18.637  0.00  0.00    +0.000 NA
ATOM     10  C   UNL     1       4.858   5.063  17.489  0.00  0.00    +0.000 A 
ATOM     11  H   UNL     1       6.299   7.981  16.845  0.00  0.00    +0.000 HD
ATOM     12  H   UNL     1       5.355   7.531  18.205  0.00  0.00    +0.000 HD
ENDROOT
BRANCH   4  13
ATOM     13  C   UNL     1       6.481   4.436  13.738  0.00  0.00    +0.000 A 
ATOM     14  C   UNL     1       7.465   5.164  13.072  0.00  0.00    +0.000 A 
ATOM     15  C   UNL     1       7.678   4.572  11.806  0.00  0.00    +0.000 A 
ATOM     16  C   UNL     1       6.814   3.510  11.742  0.00  0.00    +0.000 A 
ATOM     17  O   UNL     1       6.092   3.417  12.883  0.00  0.00    +0.000 OA
ENDBRANCH   4  13
BRANCH   8  18
ATOM     18  C   UNL     1       2.816   3.460  19.926  0.00  0.00    +0.000 A 
ATOM     19  C   UNL     1       1.483   3.750  20.140  0.00  0.00    +0.000 A 
ATOM     20  C   UNL     1       1.129   3.152  21.374  0.00  0.00    +0.000 A 
ATOM     21  C   UNL     1       2.267   2.539  21.841  0.00  0.00    +0.000 A 
ATOM     22  O   UNL     1       3.290   2.708  20.965  0.00  0.00    +0.000 OA
ENDBRANCH   8  18
TORSDOF 2
ENDMDL
