MODEL 1
REMARK VINA RESULT:      -7.5      0.000      0.000
REMARK  Name = 
REMARK  7 active torsions:
REMARK  status: ('A' for Active; 'I' for Inactive)
REMARK    1  A    between atoms: C_1  and  C_2
REMARK    2  A    between atoms: C_2  and  O_3
REMARK    3  A    between atoms: O_3  and  C_4
REMARK    4  A    between atoms: C_4  and  C_6
REMARK    5  A    between atoms: C_6  and  C_7
REMARK    6  A    between atoms: C_7  and  C_8
REMARK    7  A    between atoms: C_8  and  N_9
REMARK                            x       y       z     vdW  Elec       q    Type
REMARK                         _______ _______ _______ _____ _____    ______ ____
ROOT
ATOM      1  N   UNL     1       2.933   6.200  18.497  0.00  0.00    +0.000 N 
ATOM      2  C   UNL     1       2.492   5.034  19.103  0.00  0.00    +0.000 A 
ATOM      3  C   UNL     1       3.092   3.967  18.446  0.00  0.00    +0.000 A 
ATOM      4  C   UNL     1       3.903   4.517  17.401  0.00  0.00    +0.000 A 
ATOM      5  C   UNL     1       4.754   3.943  16.431  0.00  0.00    +0.000 A 
ATOM      6  C   UNL     1       5.536   4.762  15.613  0.00  0.00    +0.000 A 
ATOM      7  C   UNL     1       5.473   6.143  15.743  0.00  0.00    +0.000 A 
ATOM      8  C   UNL     1       4.615   6.739  16.671  0.00  0.00    +0.000 A 
ATOM      9  C   UNL     1       3.836   5.904  17.492  0.00  0.00    +0.000 A 
ATOM     10  C   UNL     1       3.027   2.548  18.769  0.00  0.00    +0.000 C 
ATOM     11  O   UNL     1       3.147   1.667  17.917  0.00  0.00    +0.000 OA
ATOM     12  N   UNL     1       3.003   2.168  20.087  0.00  0.00    +0.000 N 
ATOM     13  C   UNL     1       2.092   2.660  21.095  0.00  0.00    +0.000 C 
ATOM     14  C   UNL     1       2.140   4.149  21.398  0.00  0.00    +0.000 C 
ATOM     15  C   UNL     1       1.561   4.991  20.269  0.00  0.00    +0.000 C 
ATOM     16  H   UNL     1       3.143   1.166  20.118  0.00  0.00    +0.000 HD
ENDROOT
BRANCH   1  17
ATOM     17  C   UNL     1       2.589   7.555  18.893  0.00  0.00    +0.000 C 
BRANCH  17  18
ATOM     18  C   UNL     1       1.780   8.262  17.809  0.00  0.00    +0.000 C 
BRANCH  18  19
ATOM     19  C   UNL     1       1.768   9.761  18.036  0.00  0.00    +0.000 C 
BRANCH  19  20
ATOM     20  C   UNL     1       0.533  10.194  18.778  0.00  0.00    +0.000 C 
ATOM     21  O   UNL     1      -0.567  10.319  18.258  0.00  0.00    +0.000 OA
BRANCH  20  22
ATOM     22  O   UNL     1       0.839  10.468  20.075  0.00  0.00    +0.000 OA
BRANCH  22  24
ATOM     23  C   UNL     1       0.057   8.668  21.436  0.00  0.00    +0.000 C 
ATOM     24  C   UNL     1      -0.169  10.114  21.032  0.00  0.00    +0.000 C 
ENDBRANCH  22  24
ENDBRANCH  20  22
ENDBRANCH  19  20
ENDBRANCH  18  19
ENDBRANCH  17  18
ENDBRANCH   1  17
TORSDOF 6
ENDMDL
MODEL 2
REMARK VINA RESULT:      -7.4      0.987      1.260
REMARK  Name = 
REMARK  7 active torsions:
REMARK  status: ('A' for Active; 'I' for Inactive)
REMARK    1  A    between atoms: C_1  and  C_2
REMARK    2  A    between atoms: C_2  and  O_3
REMARK    3  A    between atoms: O_3  and  C_4
REMARK    4  A    between atoms: C_4  and  C_6
REMARK    5  A    between atoms: C_6  and  C_7
REMARK    6  A    between atoms: C_7  and  C_8
REMARK    7  A    between atoms: C_8  and  N_9
REMARK                            x       y       z     vdW  Elec       q    Type
REMARK                         _______ _______ _______ _____ _____    ______ ____
ROOT
ATOM      1  N   UNL     1       2.905   6.224  18.578  0.00  0.00    +0.000 N 
ATOM      2  C   UNL     1       2.452   5.044  19.143  0.00  0.00    +0.000 A 
ATOM      3  C   UNL     1       3.034   3.993  18.446  0.00  0.00    +0.000 A 
ATOM      4  C   UNL     1       3.848   4.569  17.417  0.00  0.00    +0.000 A 
ATOM      5  C   UNL     1       4.687   4.018  16.423  0.00  0.00    +0.000 A 
ATOM      6  C   UNL     1       5.476   4.856  15.632  0.00  0.00    +0.000 A 
ATOM      7  C   UNL     1       5.433   6.232  15.811  0.00  0.00    +0.000 A 
ATOM      8  C   UNL     1       4.586   6.806  16.764  0.00  0.00    +0.000 A 
ATOM      9  C   UNL     1       3.800   5.953  17.558  0.00  0.00    +0.000 A 
ATOM     10  C   UNL     1       2.952   2.565  18.719  0.00  0.00    +0.000 C 
ATOM     11  O   UNL     1       3.056   1.712  17.836  0.00  0.00    +0.000 OA
ATOM     12  N   UNL     1       2.928   2.138  20.023  0.00  0.00    +0.000 N 
ATOM     13  C   UNL     1       2.028   2.607  21.052  0.00  0.00    +0.000 C 
ATOM     14  C   UNL     1       2.098   4.083  21.408  0.00  0.00    +0.000 C 
ATOM     15  C   UNL     1       1.525   4.972  20.312  0.00  0.00    +0.000 C 
ATOM     16  H   UNL     1       3.055   1.134  20.018  0.00  0.00    +0.000 HD
ENDROOT
BRANCH   1  17
ATOM     17  C   UNL     1       2.582   7.570  19.022  0.00  0.00    +0.000 C 
BRANCH  17  18
ATOM     18  C   UNL     1       1.674   8.282  18.024  0.00  0.00    +0.000 C 
BRANCH  18  19
ATOM     19  C   UNL     1       2.048   9.747  17.904  0.00  0.00    +0.000 C 
BRANCH  19  20
ATOM     20  C   UNL     1       1.048  10.626  18.603  0.00  0.00    +0.000 C 
ATOM     21  O   UNL     1       1.202  11.827  18.781  0.00  0.00    +0.000 OA
BRANCH  20  22
ATOM     22  O   UNL     1      -0.003   9.883  19.042  0.00  0.00    +0.000 OA
BRANCH  22  24
ATOM     23  C   UNL     1      -1.708  10.067  17.379  0.00  0.00    +0.000 C 
ATOM     24  C   UNL     1      -1.299  10.444  18.792  0.00  0.00    +0.000 C 
ENDBRANCH  22  24
ENDBRANCH  20  22
ENDBRANCH  19  20
ENDBRANCH  18  19
ENDBRANCH  17  18
ENDBRANCH   1  17
TORSDOF 6
ENDMDL
MODEL 3
REMARK VINA RESULT:      -7.4      2.641      6.262
REMARK  Name = 
REMARK  7 active torsions:
REMARK  status: ('A' for Active; 'I' for Inactive)
REMARK    1  A    between atoms: C_1  and  C_2
REMARK    2  A    between atoms: C_2  and  O_3
REMARK    3  A    between atoms: O_3  and  C_4
REMARK    4  A    between atoms: C_4  and  C_6
REMARK    5  A    between atoms: C_6  and  C_7
REMARK    6  A    between atoms: C_7  and  C_8
REMARK    7  A    between atoms: C_8  and  N_9
REMARK                            x       y       z     vdW  Elec       q    Type
REMARK                         _______ _______ _______ _____ _____    ______ ____
ROOT
ATOM      1  N   UNL     1       3.959   5.698  17.503  0.00  0.00    +0.000 N 
ATOM      2  C   UNL     1       3.710   4.561  18.253  0.00  0.00    +0.000 A 
ATOM      3  C   UNL     1       2.876   4.925  19.303  0.00  0.00    +0.000 A 
ATOM      4  C   UNL     1       2.635   6.332  19.182  0.00  0.00    +0.000 A 
ATOM      5  C   UNL     1       1.862   7.250  19.927  0.00  0.00    +0.000 A 
ATOM      6  C   UNL     1       1.711   8.564  19.476  0.00  0.00    +0.000 A 
ATOM      7  C   UNL     1       2.327   8.976  18.302  0.00  0.00    +0.000 A 
ATOM      8  C   UNL     1       3.126   8.097  17.565  0.00  0.00    +0.000 A 
ATOM      9  C   UNL     1       3.267   6.776  18.025  0.00  0.00    +0.000 A 
ATOM     10  C   UNL     1       2.253   4.073  20.307  0.00  0.00    +0.000 C 
ATOM     11  O   UNL     1       1.962   4.477  21.433  0.00  0.00    +0.000 OA
ATOM     12  N   UNL     1       1.816   2.824  19.940  0.00  0.00    +0.000 N 
ATOM     13  C   UNL     1       2.599   1.819  19.258  0.00  0.00    +0.000 C 
ATOM     14  C   UNL     1       3.125   2.175  17.877  0.00  0.00    +0.000 C 
ATOM     15  C   UNL     1       4.246   3.205  17.931  0.00  0.00    +0.000 C 
ATOM     16  H   UNL     1       1.258   2.460  20.701  0.00  0.00    +0.000 HD
ENDROOT
BRANCH   1  17
ATOM     17  C   UNL     1       4.751   5.768  16.286  0.00  0.00    +0.000 C 
BRANCH  17  18
ATOM     18  C   UNL     1       6.243   5.844  16.598  0.00  0.00    +0.000 C 
BRANCH  18  19
ATOM     19  C   UNL     1       6.978   4.657  16.007  0.00  0.00    +0.000 C 
BRANCH  19  20
ATOM     20  C   UNL     1       7.068   4.757  14.509  0.00  0.00    +0.000 C 
ATOM     21  O   UNL     1       7.805   5.536  13.920  0.00  0.00    +0.000 OA
BRANCH  20  22
ATOM     22  O   UNL     1       6.181   3.903  13.930  0.00  0.00    +0.000 OA
BRANCH  22  24
ATOM     23  C   UNL     1       5.110   3.186  11.918  0.00  0.00    +0.000 C 
ATOM     24  C   UNL     1       6.425   3.610  12.547  0.00  0.00    +0.000 C 
ENDBRANCH  22  24
ENDBRANCH  20  22
ENDBRANCH  19  20
ENDBRANCH  18  19
ENDBRANCH  17  18
ENDBRANCH   1  17
TORSDOF 6
ENDMDL
MODEL 4
REMARK VINA RESULT:      -7.3      2.733      5.866
REMARK  Name = 
REMARK  7 active torsions:
REMARK  status: ('A' for Active; 'I' for Inactive)
REMARK    1  A    between atoms: C_1  and  C_2
REMARK    2  A    between atoms: C_2  and  O_3
REMARK    3  A    between atoms: O_3  and  C_4
REMARK    4  A    between atoms: C_4  and  C_6
REMARK    5  A    between atoms: C_6  and  C_7
REMARK    6  A    between atoms: C_7  and  C_8
REMARK    7  A    between atoms: C_8  and  N_9
REMARK                            x       y       z     vdW  Elec       q    Type
REMARK                         _______ _______ _______ _____ _____    ______ ____
ROOT
ATOM      1  N   UNL     1       3.652   5.884  18.196  0.00  0.00    +0.000 N 
ATOM      2  C   UNL     1       3.540   4.583  18.659  0.00  0.00    +0.000 A 
ATOM      3  C   UNL     1       2.660   4.594  19.735  0.00  0.00    +0.000 A 
ATOM      4  C   UNL     1       2.251   5.953  19.931  0.00  0.00    +0.000 A 
ATOM      5  C   UNL     1       1.368   6.577  20.839  0.00  0.00    +0.000 A 
ATOM      6  C   UNL     1       1.060   7.932  20.696  0.00  0.00    +0.000 A 
ATOM      7  C   UNL     1       1.629   8.673  19.669  0.00  0.00    +0.000 A 
ATOM      8  C   UNL     1       2.533   8.089  18.777  0.00  0.00    +0.000 A 
ATOM      9  C   UNL     1       2.831   6.724  18.928  0.00  0.00    +0.000 A 
ATOM     10  C   UNL     1       2.141   3.466  20.495  0.00  0.00    +0.000 C 
ATOM     11  O   UNL     1       1.796   3.562  21.674  0.00  0.00    +0.000 OA
ATOM     12  N   UNL     1       1.861   2.294  19.838  0.00  0.00    +0.000 N 
ATOM     13  C   UNL     1       2.764   1.572  18.972  0.00  0.00    +0.000 C 
ATOM     14  C   UNL     1       3.252   2.296  17.728  0.00  0.00    +0.000 C 
ATOM     15  C   UNL     1       4.238   3.411  18.053  0.00  0.00    +0.000 C 
ATOM     16  H   UNL     1       1.346   1.701  20.477  0.00  0.00    +0.000 HD
ENDROOT
BRANCH   1  17
ATOM     17  C   UNL     1       4.437   6.325  17.056  0.00  0.00    +0.000 C 
BRANCH  17  18
ATOM     18  C   UNL     1       5.787   6.885  17.493  0.00  0.00    +0.000 C 
BRANCH  18  19
ATOM     19  C   UNL     1       6.909   6.309  16.650  0.00  0.00    +0.000 C 
BRANCH  19  20
ATOM     20  C   UNL     1       7.232   4.898  17.058  0.00  0.00    +0.000 C 
ATOM     21  O   UNL     1       7.589   4.578  18.183  0.00  0.00    +0.000 OA
BRANCH  20  22
ATOM     22  O   UNL     1       7.120   4.065  15.988  0.00  0.00    +0.000 OA
BRANCH  22  24
ATOM     23  C   UNL     1       5.738   4.027  14.039  0.00  0.00    +0.000 C 
ATOM     24  C   UNL     1       6.906   4.712  14.726  0.00  0.00    +0.000 C 
ENDBRANCH  22  24
ENDBRANCH  20  22
ENDBRANCH  19  20
ENDBRANCH  18  19
ENDBRANCH  17  18
ENDBRANCH   1  17
TORSDOF 6
ENDMDL
MODEL 5
REMARK VINA RESULT:      -7.2      1.105      1.699
REMARK  Name = 
REMARK  7 active torsions:
REMARK  status: ('A' for Active; 'I' for Inactive)
REMARK    1  A    between atoms: C_1  and  C_2
REMARK    2  A    between atoms: C_2  and  O_3
REMARK    3  A    between atoms: O_3  and  C_4
REMARK    4  A    between atoms: C_4  and  C_6
REMARK    5  A    between atoms: C_6  and  C_7
REMARK    6  A    between atoms: C_7  and  C_8
REMARK    7  A    between atoms: C_8  and  N_9
REMARK                            x       y       z     vdW  Elec       q    Type
REMARK                         _______ _______ _______ _____ _____    ______ ____
ROOT
ATOM      1  N   UNL     1       2.949   6.228  18.506  0.00  0.00    +0.000 N 
ATOM      2  C   UNL     1       2.480   5.064  19.092  0.00  0.00    +0.000 A 
ATOM      3  C   UNL     1       3.056   3.993  18.419  0.00  0.00    +0.000 A 
ATOM      4  C   UNL     1       3.882   4.540  17.385  0.00  0.00    +0.000 A 
ATOM      5  C   UNL     1       4.722   3.962  16.407  0.00  0.00    +0.000 A 
ATOM      6  C   UNL     1       5.525   4.776  15.604  0.00  0.00    +0.000 A 
ATOM      7  C   UNL     1       5.494   6.155  15.756  0.00  0.00    +0.000 A 
ATOM      8  C   UNL     1       4.647   6.756  16.692  0.00  0.00    +0.000 A 
ATOM      9  C   UNL     1       3.847   5.927  17.497  0.00  0.00    +0.000 A 
ATOM     10  C   UNL     1       2.957   2.572  18.720  0.00  0.00    +0.000 C 
ATOM     11  O   UNL     1       3.059   1.701  17.854  0.00  0.00    +0.000 OA
ATOM     12  N   UNL     1       2.921   2.171  20.032  0.00  0.00    +0.000 N 
ATOM     13  C   UNL     1       2.019   2.669  21.045  0.00  0.00    +0.000 C 
ATOM     14  C   UNL     1       2.102   4.151  21.372  0.00  0.00    +0.000 C 
ATOM     15  C   UNL     1       1.545   5.024  20.255  0.00  0.00    +0.000 C 
ATOM     16  H   UNL     1       3.038   1.166  20.048  0.00  0.00    +0.000 HD
ENDROOT
BRANCH   1  17
ATOM     17  C   UNL     1       2.636   7.585  18.921  0.00  0.00    +0.000 C 
BRANCH  17  18
ATOM     18  C   UNL     1       1.708   8.272  17.924  0.00  0.00    +0.000 C 
BRANCH  18  19
ATOM     19  C   UNL     1       1.949   9.769  17.905  0.00  0.00    +0.000 C 
BRANCH  19  20
ATOM     20  C   UNL     1       1.016  10.486  18.841  0.00  0.00    +0.000 C 
ATOM     21  O   UNL     1      -0.001   9.989  19.305  0.00  0.00    +0.000 OA
BRANCH  20  22
ATOM     22  O   UNL     1       1.444  11.762  19.041  0.00  0.00    +0.000 OA
BRANCH  22  24
ATOM     23  C   UNL     1       2.656  13.708  18.371  0.00  0.00    +0.000 C 
ATOM     24  C   UNL     1       2.441  12.226  18.120  0.00  0.00    +0.000 C 
ENDBRANCH  22  24
ENDBRANCH  20  22
ENDBRANCH  19  20
ENDBRANCH  18  19
ENDBRANCH  17  18
ENDBRANCH   1  17
TORSDOF 6
ENDMDL
MODEL 6
REMARK VINA RESULT:      -7.1      1.472      1.488
REMARK  Name = 
REMARK  7 active torsions:
REMARK  status: ('A' for Active; 'I' for Inactive)
REMARK    1  A    between atoms: C_1  and  C_2
REMARK    2  A    between atoms: C_2  and  O_3
REMARK    3  A    between atoms: O_3  and  C_4
REMARK    4  A    between atoms: C_4  and  C_6
REMARK    5  A    between atoms: C_6  and  C_7
REMARK    6  A    between atoms: C_7  and  C_8
REMARK    7  A    between atoms: C_8  and  N_9
REMARK                            x       y       z     vdW  Elec       q    Type
REMARK                         _______ _______ _______ _____ _____    ______ ____
ROOT
ATOM      1  N   UNL     1       3.249   5.793  18.130  0.00  0.00    +0.000 N 
ATOM      2  C   UNL     1       2.843   4.679  18.846  0.00  0.00    +0.000 A 
ATOM      3  C   UNL     1       3.983   3.963  19.192  0.00  0.00    +0.000 A 
ATOM      4  C   UNL     1       5.104   4.668  18.647  0.00  0.00    +0.000 A 
ATOM      5  C   UNL     1       6.499   4.446  18.685  0.00  0.00    +0.000 A 
ATOM      6  C   UNL     1       7.373   5.402  18.162  0.00  0.00    +0.000 A 
ATOM      7  C   UNL     1       6.876   6.567  17.594  0.00  0.00    +0.000 A 
ATOM      8  C   UNL     1       5.500   6.796  17.512  0.00  0.00    +0.000 A 
ATOM      9  C   UNL     1       4.630   5.829  18.045  0.00  0.00    +0.000 A 
ATOM     10  C   UNL     1       4.091   2.776  20.028  0.00  0.00    +0.000 C 
ATOM     11  O   UNL     1       4.992   1.947  19.892  0.00  0.00    +0.000 OA
ATOM     12  N   UNL     1       3.266   2.654  21.118  0.00  0.00    +0.000 N 
ATOM     13  C   UNL     1       1.826   2.781  21.110  0.00  0.00    +0.000 C 
ATOM     14  C   UNL     1       1.256   4.121  20.676  0.00  0.00    +0.000 C 
ATOM     15  C   UNL     1       1.422   4.366  19.181  0.00  0.00    +0.000 C 
ATOM     16  H   UNL     1       3.604   1.876  21.671  0.00  0.00    +0.000 HD
ENDROOT
BRANCH   1  17
ATOM     17  C   UNL     1       2.387   6.839  17.607  0.00  0.00    +0.000 C 
BRANCH  17  18
ATOM     18  C   UNL     1       2.309   8.025  18.563  0.00  0.00    +0.000 C 
BRANCH  18  19
ATOM     19  C   UNL     1       1.763   9.252  17.858  0.00  0.00    +0.000 C 
BRANCH  19  20
ATOM     20  C   UNL     1       0.592   9.835  18.599  0.00  0.00    +0.000 C 
ATOM     21  O   UNL     1      -0.411  10.275  18.053  0.00  0.00    +0.000 OA
BRANCH  20  22
ATOM     22  O   UNL     1       0.842   9.844  19.936  0.00  0.00    +0.000 OA
BRANCH  22  24
ATOM     23  C   UNL     1      -0.015   9.004  22.003  0.00  0.00    +0.000 C 
ATOM     24  C   UNL     1      -0.319   9.849  20.778  0.00  0.00    +0.000 C 
ENDBRANCH  22  24
ENDBRANCH  20  22
ENDBRANCH  19  20
ENDBRANCH  18  19
ENDBRANCH  17  18
ENDBRANCH   1  17
TORSDOF 6
ENDMDL
MODEL 7
REMARK VINA RESULT:      -7.0      2.719      6.190
REMARK  Name = 
REMARK  7 active torsions:
REMARK  status: ('A' for Active; 'I' for Inactive)
REMARK    1  A    between atoms: C_1  and  C_2
REMARK    2  A    between atoms: C_2  and  O_3
REMARK    3  A    between atoms: O_3  and  C_4
REMARK    4  A    between atoms: C_4  and  C_6
REMARK    5  A    between atoms: C_6  and  C_7
REMARK    6  A    between atoms: C_7  and  C_8
REMARK    7  A    between atoms: C_8  and  N_9
REMARK                            x       y       z     vdW  Elec       q    Type
REMARK                         _______ _______ _______ _____ _____    ______ ____
ROOT
ATOM      1  N   UNL     1       4.634   4.946  18.305  0.00  0.00    +0.000 N 
ATOM      2  C   UNL     1       3.840   3.998  18.931  0.00  0.00    +0.000 A 
ATOM      3  C   UNL     1       2.633   4.607  19.251  0.00  0.00    +0.000 A 
ATOM      4  C   UNL     1       2.719   5.970  18.817  0.00  0.00    +0.000 A 
ATOM      5  C   UNL     1       1.816   7.055  18.848  0.00  0.00    +0.000 A 
ATOM      6  C   UNL     1       2.144   8.255  18.212  0.00  0.00    +0.000 A 
ATOM      7  C   UNL     1       3.361   8.390  17.557  0.00  0.00    +0.000 A 
ATOM      8  C   UNL     1       4.287   7.344  17.541  0.00  0.00    +0.000 A 
ATOM      9  C   UNL     1       3.945   6.139  18.180  0.00  0.00    +0.000 A 
ATOM     10  C   UNL     1       1.437   4.007  19.827  0.00  0.00    +0.000 C 
ATOM     11  O   UNL     1       0.639   4.646  20.514  0.00  0.00    +0.000 OA
ATOM     12  N   UNL     1       1.089   2.732  19.457  0.00  0.00    +0.000 N 
ATOM     13  C   UNL     1       1.952   1.573  19.495  0.00  0.00    +0.000 C 
ATOM     14  C   UNL     1       3.201   1.616  18.629  0.00  0.00    +0.000 C 
ATOM     15  C   UNL     1       4.248   2.582  19.168  0.00  0.00    +0.000 C 
ATOM     16  H   UNL     1       0.155   2.557  19.804  0.00  0.00    +0.000 HD
ENDROOT
BRANCH   1  17
ATOM     17  C   UNL     1       5.966   4.729  17.765  0.00  0.00    +0.000 C 
BRANCH  17  18
ATOM     18  C   UNL     1       5.906   4.174  16.345  0.00  0.00    +0.000 C 
BRANCH  18  19
ATOM     19  C   UNL     1       6.099   5.279  15.325  0.00  0.00    +0.000 C 
BRANCH  19  20
ATOM     20  C   UNL     1       6.706   4.752  14.054  0.00  0.00    +0.000 C 
ATOM     21  O   UNL     1       7.653   5.276  13.482  0.00  0.00    +0.000 OA
BRANCH  20  22
ATOM     22  O   UNL     1       6.019   3.660  13.625  0.00  0.00    +0.000 OA
BRANCH  22  24
ATOM     23  C   UNL     1       4.711   3.171  11.686  0.00  0.00    +0.000 C 
ATOM     24  C   UNL     1       6.116   3.386  12.220  0.00  0.00    +0.000 C 
ENDBRANCH  22  24
ENDBRANCH  20  22
ENDBRANCH  19  20
ENDBRANCH  18  19
ENDBRANCH  17  18
ENDBRANCH   1  17
TORSDOF 6
ENDMDL
MODEL 8
REMARK VINA RESULT:      -7.0      1.658      1.989
REMARK  Name = 
REMARK  7 active torsions:
REMARK  status: ('A' for Active; 'I' for Inactive)
REMARK    1  A    between atoms: C_1  and  C_2
REMARK    2  A    between atoms: C_2  and  O_3
REMARK    3  A    between atoms: O_3  and  C_4
REMARK    4  A    between atoms: C_4  and  C_6
REMARK    5  A    between atoms: C_6  and  C_7
REMARK    6  A    between atoms: C_7  and  C_8
REMARK    7  A    between atoms: C_8  and  N_9
REMARK                            x       y       z     vdW  Elec       q    Type
REMARK                         _______ _______ _______ _____ _____    ______ ____
ROOT
ATOM      1  N   UNL     1       3.298   5.882  18.113  0.00  0.00    +0.000 N 
ATOM      2  C   UNL     1       2.878   4.764  18.815  0.00  0.00    +0.000 A 
ATOM      3  C   UNL     1       4.009   4.030  19.152  0.00  0.00    +0.000 A 
ATOM      4  C   UNL     1       5.139   4.727  18.614  0.00  0.00    +0.000 A 
ATOM      5  C   UNL     1       6.531   4.488  18.648  0.00  0.00    +0.000 A 
ATOM      6  C   UNL     1       7.417   5.439  18.136  0.00  0.00    +0.000 A 
ATOM      7  C   UNL     1       6.934   6.618  17.583  0.00  0.00    +0.000 A 
ATOM      8  C   UNL     1       5.560   6.865  17.505  0.00  0.00    +0.000 A 
ATOM      9  C   UNL     1       4.678   5.902  18.027  0.00  0.00    +0.000 A 
ATOM     10  C   UNL     1       4.103   2.831  19.973  0.00  0.00    +0.000 C 
ATOM     11  O   UNL     1       4.994   1.993  19.825  0.00  0.00    +0.000 OA
ATOM     12  N   UNL     1       3.278   2.705  21.062  0.00  0.00    +0.000 N 
ATOM     13  C   UNL     1       1.840   2.851  21.057  0.00  0.00    +0.000 C 
ATOM     14  C   UNL     1       1.286   4.204  20.640  0.00  0.00    +0.000 C 
ATOM     15  C   UNL     1       1.454   4.465  19.148  0.00  0.00    +0.000 C 
ATOM     16  H   UNL     1       3.606   1.917  21.605  0.00  0.00    +0.000 HD
ENDROOT
BRANCH   1  17
ATOM     17  C   UNL     1       2.448   6.946  17.604  0.00  0.00    +0.000 C 
BRANCH  17  18
ATOM     18  C   UNL     1       2.276   8.060  18.632  0.00  0.00    +0.000 C 
BRANCH  18  19
ATOM     19  C   UNL     1       1.581   9.259  18.016  0.00  0.00    +0.000 C 
BRANCH  19  20
ATOM     20  C   UNL     1       0.594   9.871  18.972  0.00  0.00    +0.000 C 
ATOM     21  O   UNL     1       0.405   9.465  20.110  0.00  0.00    +0.000 OA
BRANCH  20  22
ATOM     22  O   UNL     1      -0.074  10.889  18.365  0.00  0.00    +0.000 OA
BRANCH  22  24
ATOM     23  C   UNL     1      -1.959   9.931  17.252  0.00  0.00    +0.000 C 
ATOM     24  C   UNL     1      -1.505  10.798  18.413  0.00  0.00    +0.000 C 
ENDBRANCH  22  24
ENDBRANCH  20  22
ENDBRANCH  19  20
ENDBRANCH  18  19
ENDBRANCH  17  18
ENDBRANCH   1  17
TORSDOF 6
ENDMDL
MODEL 9
REMARK VINA RESULT:      -7.0      3.255      5.289
REMARK  Name = 
REMARK  7 active torsions:
REMARK  status: ('A' for Active; 'I' for Inactive)
REMARK    1  A    between atoms: C_1  and  C_2
REMARK    2  A    between atoms: C_2  and  O_3
REMARK    3  A    between atoms: O_3  and  C_4
REMARK    4  A    between atoms: C_4  and  C_6
REMARK    5  A    between atoms: C_6  and  C_7
REMARK    6  A    between atoms: C_7  and  C_8
REMARK    7  A    between atoms: C_8  and  N_9
REMARK                            x       y       z     vdW  Elec       q    Type
REMARK                         _______ _______ _______ _____ _____    ______ ____
ROOT
ATOM      1  N   UNL     1       4.300   5.026  17.693  0.00  0.00    +0.000 N 
ATOM      2  C   UNL     1       3.587   4.061  18.386  0.00  0.00    +0.000 A 
ATOM      3  C   UNL     1       2.517   4.695  19.008  0.00  0.00    +0.000 A 
ATOM      4  C   UNL     1       2.609   6.088  18.688  0.00  0.00    +0.000 A 
ATOM      5  C   UNL     1       1.811   7.210  19.005  0.00  0.00    +0.000 A 
ATOM      6  C   UNL     1       2.086   8.450  18.424  0.00  0.00    +0.000 A 
ATOM      7  C   UNL     1       3.148   8.588  17.541  0.00  0.00    +0.000 A 
ATOM      8  C   UNL     1       3.974   7.503  17.236  0.00  0.00    +0.000 A 
ATOM      9  C   UNL     1       3.687   6.259  17.823  0.00  0.00    +0.000 A 
ATOM     10  C   UNL     1       1.426   4.101  19.768  0.00  0.00    +0.000 C 
ATOM     11  O   UNL     1       0.834   4.706  20.663  0.00  0.00    +0.000 OA
ATOM     12  N   UNL     1       0.920   2.890  19.368  0.00  0.00    +0.000 N 
ATOM     13  C   UNL     1       1.688   1.691  19.119  0.00  0.00    +0.000 C 
ATOM     14  C   UNL     1       2.731   1.757  18.016  0.00  0.00    +0.000 C 
ATOM     15  C   UNL     1       3.933   2.609  18.404  0.00  0.00    +0.000 C 
ATOM     16  H   UNL     1       0.068   2.728  19.888  0.00  0.00    +0.000 HD
ENDROOT
BRANCH   1  17
ATOM     17  C   UNL     1       5.473   4.798  16.866  0.00  0.00    +0.000 C 
BRANCH  17  18
ATOM     18  C   UNL     1       6.727   4.622  17.717  0.00  0.00    +0.000 C 
BRANCH  18  19
ATOM     19  C   UNL     1       7.008   5.872  18.528  0.00  0.00    +0.000 C 
BRANCH  19  20
ATOM     20  C   UNL     1       7.696   6.922  17.699  0.00  0.00    +0.000 C 
ATOM     21  O   UNL     1       7.731   6.909  16.476  0.00  0.00    +0.000 OA
BRANCH  20  22
ATOM     22  O   UNL     1       8.301   7.833  18.506  0.00  0.00    +0.000 OA
BRANCH  22  24
ATOM     23  C   UNL     1       9.087  10.035  18.997  0.00  0.00    +0.000 C 
ATOM     24  C   UNL     1       8.297   9.183  18.020  0.00  0.00    +0.000 C 
ENDBRANCH  22  24
ENDBRANCH  20  22
ENDBRANCH  19  20
ENDBRANCH  18  19
ENDBRANCH  17  18
ENDBRANCH   1  17
TORSDOF 6
ENDMDL
