MODEL 1
REMARK VINA RESULT:      -8.7      0.000      0.000
REMARK  Name = 
REMARK  4 active torsions:
REMARK  status: ('A' for Active; 'I' for Inactive)
REMARK    1  A    between atoms: C_1  and  N_2
REMARK    2  A    between atoms: N_5  and  C_6
REMARK    3  A    between atoms: C_11  and  S_12
REMARK    4  A    between atoms: S_12  and  C_15
REMARK                            x       y       z     vdW  Elec       q    Type
REMARK                         _______ _______ _______ _____ _____    ______ ____
ROOT
ATOM      1  C   UNL     1       1.740   8.301  19.703  0.00  0.00    +0.000 A 
ATOM      2  C   UNL     1       2.169   8.756  18.437  0.00  0.00    +0.000 A 
ATOM      3  C   UNL     1       2.788   7.937  17.496  0.00  0.00    +0.000 A 
ATOM      4  C   UNL     1       3.034   6.597  17.782  0.00  0.00    +0.000 A 
ATOM      5  C   UNL     1       2.639   6.075  19.028  0.00  0.00    +0.000 A 
ATOM      6  C   UNL     1       2.775   4.799  19.660  0.00  0.00    +0.000 A 
ATOM      7  C   UNL     1       2.161   4.872  20.890  0.00  0.00    +0.000 A 
ATOM      8  N   UNL     1       1.671   6.140  21.031  0.00  0.00    +0.000 N 
ATOM      9  C   UNL     1       1.994   6.928  19.943  0.00  0.00    +0.000 A 
ATOM     10  H   UNL     1       1.152   6.470  21.828  0.00  0.00    +0.000 HD
ENDROOT
BRANCH   1  15
ATOM     11  C   UNL     1      -1.504  11.201  23.234  0.00  0.00    +0.000 C 
ATOM     12  N   UNL     1      -0.282  10.838  22.518  0.00  0.00    +0.000 NA
ATOM     13  C   UNL     1      -0.471  10.984  21.057  0.00  0.00    +0.000 C 
ATOM     14  C   UNL     1       0.775  10.563  20.236  0.00  0.00    +0.000 C 
ATOM     15  N   UNL     1       1.199   9.208  20.604  0.00  0.00    +0.000 N 
ATOM     16  C   UNL     1       1.384   9.020  22.056  0.00  0.00    +0.000 C 
ATOM     17  C   UNL     1       0.100   9.437  22.810  0.00  0.00    +0.000 C 
ENDBRANCH   1  15
BRANCH   6  18
ATOM     18  S   UNL     1       3.585   3.405  19.029  0.00  0.00    +0.000 S 
ATOM     19  O   UNL     1       4.102   2.688  20.178  0.00  0.00    +0.000 OA
ATOM     20  O   UNL     1       2.628   2.799  18.121  0.00  0.00    +0.000 OA
BRANCH  18  21
ATOM     21  C   UNL     1       4.949   4.013  18.074  0.00  0.00    +0.000 A 
ATOM     22  C   UNL     1       6.052   4.579  18.720  0.00  0.00    +0.000 A 
ATOM     23  C   UNL     1       7.159   4.978  17.970  0.00  0.00    +0.000 A 
ATOM     24  C   UNL     1       7.166   4.798  16.586  0.00  0.00    +0.000 A 
ATOM     25  C   UNL     1       6.074   4.215  15.946  0.00  0.00    +0.000 A 
ATOM     26  C   UNL     1       4.961   3.817  16.690  0.00  0.00    +0.000 A 
ENDBRANCH  18  21
ENDBRANCH   6  18
TORSDOF 3
ENDMDL
MODEL 2
REMARK VINA RESULT:      -8.5      0.732      1.223
REMARK  Name = 
REMARK  4 active torsions:
REMARK  status: ('A' for Active; 'I' for Inactive)
REMARK    1  A    between atoms: C_1  and  N_2
REMARK    2  A    between atoms: N_5  and  C_6
REMARK    3  A    between atoms: C_11  and  S_12
REMARK    4  A    between atoms: S_12  and  C_15
REMARK                            x       y       z     vdW  Elec       q    Type
REMARK                         _______ _______ _______ _____ _____    ______ ____
ROOT
ATOM      1  C   UNL     1       1.505   8.776  19.875  0.00  0.00    +0.000 A 
ATOM      2  C   UNL     1       1.833   9.313  18.610  0.00  0.00    +0.000 A 
ATOM      3  C   UNL     1       2.443   8.576  17.598  0.00  0.00    +0.000 A 
ATOM      4  C   UNL     1       2.784   7.243  17.805  0.00  0.00    +0.000 A 
ATOM      5  C   UNL     1       2.493   6.641  19.044  0.00  0.00    +0.000 A 
ATOM      6  C   UNL     1       2.739   5.349  19.605  0.00  0.00    +0.000 A 
ATOM      7  C   UNL     1       2.194   5.329  20.869  0.00  0.00    +0.000 A 
ATOM      8  N   UNL     1       1.640   6.556  21.098  0.00  0.00    +0.000 N 
ATOM      9  C   UNL     1       1.853   7.411  20.033  0.00  0.00    +0.000 A 
ATOM     10  H   UNL     1       1.149   6.818  21.938  0.00  0.00    +0.000 HD
ENDROOT
BRANCH   1  15
ATOM     11  C   UNL     1      -1.807  11.606  23.399  0.00  0.00    +0.000 C 
ATOM     12  N   UNL     1      -0.552  11.145  22.808  0.00  0.00    +0.000 NA
ATOM     13  C   UNL     1      -0.458  11.563  21.391  0.00  0.00    +0.000 C 
ATOM     14  C   UNL     1       0.830  11.059  20.690  0.00  0.00    +0.000 C 
ATOM     15  N   UNL     1       0.965   9.606  20.847  0.00  0.00    +0.000 N 
ATOM     16  C   UNL     1       0.863   9.150  22.246  0.00  0.00    +0.000 C 
ATOM     17  C   UNL     1      -0.451   9.669  22.876  0.00  0.00    +0.000 C 
ENDBRANCH   1  15
BRANCH   6  18
ATOM     18  S   UNL     1       3.592   4.037  18.863  0.00  0.00    +0.000 S 
ATOM     19  O   UNL     1       3.883   3.097  19.928  0.00  0.00    +0.000 OA
ATOM     20  O   UNL     1       2.778   3.664  17.721  0.00  0.00    +0.000 OA
BRANCH  18  21
ATOM     21  C   UNL     1       5.117   4.711  18.263  0.00  0.00    +0.000 A 
ATOM     22  C   UNL     1       5.343   4.802  16.887  0.00  0.00    +0.000 A 
ATOM     23  C   UNL     1       6.508   5.411  16.420  0.00  0.00    +0.000 A 
ATOM     24  C   UNL     1       7.433   5.937  17.324  0.00  0.00    +0.000 A 
ATOM     25  C   UNL     1       7.196   5.862  18.695  0.00  0.00    +0.000 A 
ATOM     26  C   UNL     1       6.034   5.251  19.170  0.00  0.00    +0.000 A 
ENDBRANCH  18  21
ENDBRANCH   6  18
TORSDOF 3
ENDMDL
MODEL 3
REMARK VINA RESULT:      -8.2      1.028      1.110
REMARK  Name = 
REMARK  4 active torsions:
REMARK  status: ('A' for Active; 'I' for Inactive)
REMARK    1  A    between atoms: C_1  and  N_2
REMARK    2  A    between atoms: N_5  and  C_6
REMARK    3  A    between atoms: C_11  and  S_12
REMARK    4  A    between atoms: S_12  and  C_15
REMARK                            x       y       z     vdW  Elec       q    Type
REMARK                         _______ _______ _______ _____ _____    ______ ____
ROOT
ATOM      1  C   UNL     1       1.339   9.132  19.929  0.00  0.00    +0.000 A 
ATOM      2  C   UNL     1       1.624   9.701  18.668  0.00  0.00    +0.000 A 
ATOM      3  C   UNL     1       2.224   8.997  17.626  0.00  0.00    +0.000 A 
ATOM      4  C   UNL     1       2.594   7.667  17.796  0.00  0.00    +0.000 A 
ATOM      5  C   UNL     1       2.345   7.034  19.029  0.00  0.00    +0.000 A 
ATOM      6  C   UNL     1       2.630   5.736  19.557  0.00  0.00    +0.000 A 
ATOM      7  C   UNL     1       2.117   5.680  20.833  0.00  0.00    +0.000 A 
ATOM      8  N   UNL     1       1.545   6.891  21.101  0.00  0.00    +0.000 N 
ATOM      9  C   UNL     1       1.716   7.771  20.050  0.00  0.00    +0.000 A 
ATOM     10  H   UNL     1       1.071   7.126  21.958  0.00  0.00    +0.000 HD
ENDROOT
BRANCH   1  15
ATOM     11  C   UNL     1      -1.949  11.927  23.502  0.00  0.00    +0.000 C 
ATOM     12  N   UNL     1      -0.699  11.433  22.929  0.00  0.00    +0.000 NA
ATOM     13  C   UNL     1      -0.528  11.929  21.545  0.00  0.00    +0.000 C 
ATOM     14  C   UNL     1       0.757  11.396  20.860  0.00  0.00    +0.000 C 
ATOM     15  N   UNL     1       0.807   9.932  20.931  0.00  0.00    +0.000 N 
ATOM     16  C   UNL     1       0.626   9.399  22.294  0.00  0.00    +0.000 C 
ATOM     17  C   UNL     1      -0.681   9.952  22.909  0.00  0.00    +0.000 C 
ENDBRANCH   1  15
BRANCH   6  18
ATOM     18  S   UNL     1       3.488   4.456  18.767  0.00  0.00    +0.000 S 
ATOM     19  O   UNL     1       3.729   3.450  19.782  0.00  0.00    +0.000 OA
ATOM     20  O   UNL     1       2.709   4.166  17.577  0.00  0.00    +0.000 OA
BRANCH  18  21
ATOM     21  C   UNL     1       5.043   5.139  18.260  0.00  0.00    +0.000 A 
ATOM     22  C   UNL     1       6.058   5.331  19.202  0.00  0.00    +0.000 A 
ATOM     23  C   UNL     1       7.308   5.788  18.784  0.00  0.00    +0.000 A 
ATOM     24  C   UNL     1       7.543   6.039  17.431  0.00  0.00    +0.000 A 
ATOM     25  C   UNL     1       6.536   5.829  16.491  0.00  0.00    +0.000 A 
ATOM     26  C   UNL     1       5.282   5.374  16.903  0.00  0.00    +0.000 A 
ENDBRANCH  18  21
ENDBRANCH   6  18
TORSDOF 3
ENDMDL
MODEL 4
REMARK VINA RESULT:      -7.9      0.844      1.642
REMARK  Name = 
REMARK  4 active torsions:
REMARK  status: ('A' for Active; 'I' for Inactive)
REMARK    1  A    between atoms: C_1  and  N_2
REMARK    2  A    between atoms: N_5  and  C_6
REMARK    3  A    between atoms: C_11  and  S_12
REMARK    4  A    between atoms: S_12  and  C_15
REMARK                            x       y       z     vdW  Elec       q    Type
REMARK                         _______ _______ _______ _____ _____    ______ ____
ROOT
ATOM      1  C   UNL     1       1.528   8.182  19.615  0.00  0.00    +0.000 A 
ATOM      2  C   UNL     1       2.038   8.809  18.457  0.00  0.00    +0.000 A 
ATOM      3  C   UNL     1       2.938   8.199  17.587  0.00  0.00    +0.000 A 
ATOM      4  C   UNL     1       3.403   6.912  17.842  0.00  0.00    +0.000 A 
ATOM      5  C   UNL     1       2.943   6.227  18.983  0.00  0.00    +0.000 A 
ATOM      6  C   UNL     1       3.237   4.954  19.564  0.00  0.00    +0.000 A 
ATOM      7  C   UNL     1       2.448   4.812  20.683  0.00  0.00    +0.000 A 
ATOM      8  N   UNL     1       1.699   5.948  20.807  0.00  0.00    +0.000 N 
ATOM      9  C   UNL     1       2.014   6.867  19.824  0.00  0.00    +0.000 A 
ATOM     10  H   UNL     1       1.014   6.109  21.527  0.00  0.00    +0.000 HD
ENDROOT
BRANCH   1  15
ATOM     11  C   UNL     1      -0.927  11.981  22.921  0.00  0.00    +0.000 C 
ATOM     12  N   UNL     1      -0.797  10.734  22.169  0.00  0.00    +0.000 NA
ATOM     13  C   UNL     1       0.332   9.929  22.687  0.00  0.00    +0.000 C 
ATOM     14  C   UNL     1       0.557   8.615  21.896  0.00  0.00    +0.000 C 
ATOM     15  N   UNL     1       0.691   8.895  20.463  0.00  0.00    +0.000 N 
ATOM     16  C   UNL     1      -0.410   9.709  19.913  0.00  0.00    +0.000 C 
ATOM     17  C   UNL     1      -0.565  11.010  20.733  0.00  0.00    +0.000 C 
ENDBRANCH   1  15
BRANCH   6  18
ATOM     18  S   UNL     1       4.392   3.793  19.001  0.00  0.00    +0.000 S 
ATOM     19  O   UNL     1       4.874   3.105  20.182  0.00  0.00    +0.000 OA
ATOM     20  O   UNL     1       3.716   3.086  17.930  0.00  0.00    +0.000 OA
BRANCH  18  21
ATOM     21  C   UNL     1       5.727   4.723  18.298  0.00  0.00    +0.000 A 
ATOM     22  C   UNL     1       5.878   4.781  16.909  0.00  0.00    +0.000 A 
ATOM     23  C   UNL     1       6.878   5.582  16.358  0.00  0.00    +0.000 A 
ATOM     24  C   UNL     1       7.713   6.329  17.191  0.00  0.00    +0.000 A 
ATOM     25  C   UNL     1       7.549   6.285  18.575  0.00  0.00    +0.000 A 
ATOM     26  C   UNL     1       6.552   5.483  19.133  0.00  0.00    +0.000 A 
ENDBRANCH  18  21
ENDBRANCH   6  18
TORSDOF 3
ENDMDL
MODEL 5
REMARK VINA RESULT:      -7.8      4.037      7.712
REMARK  Name = 
REMARK  4 active torsions:
REMARK  status: ('A' for Active; 'I' for Inactive)
REMARK    1  A    between atoms: C_1  and  N_2
REMARK    2  A    between atoms: N_5  and  C_6
REMARK    3  A    between atoms: C_11  and  S_12
REMARK    4  A    between atoms: S_12  and  C_15
REMARK                            x       y       z     vdW  Elec       q    Type
REMARK                         _______ _______ _______ _____ _____    ______ ____
ROOT
ATOM      1  C   UNL     1       2.250   7.361  19.357  0.00  0.00    +0.000 A 
ATOM      2  C   UNL     1       2.244   7.838  18.027  0.00  0.00    +0.000 A 
ATOM      3  C   UNL     1       1.739   9.082  17.660  0.00  0.00    +0.000 A 
ATOM      4  C   UNL     1       1.183   9.927  18.616  0.00  0.00    +0.000 A 
ATOM      5  C   UNL     1       1.149   9.516  19.962  0.00  0.00    +0.000 A 
ATOM      6  C   UNL     1       0.623  10.087  21.164  0.00  0.00    +0.000 A 
ATOM      7  C   UNL     1       0.913   9.227  22.198  0.00  0.00    +0.000 A 
ATOM      8  N   UNL     1       1.580   8.157  21.672  0.00  0.00    +0.000 N 
ATOM      9  C   UNL     1       1.692   8.262  20.298  0.00  0.00    +0.000 A 
ATOM     10  H   UNL     1       1.935   7.381  22.206  0.00  0.00    +0.000 HD
ENDROOT
BRANCH   1  15
ATOM     11  C   UNL     1       3.747   1.965  19.166  0.00  0.00    +0.000 C 
ATOM     12  N   UNL     1       3.612   3.305  19.733  0.00  0.00    +0.000 NA
ATOM     13  C   UNL     1       2.185   3.668  19.882  0.00  0.00    +0.000 C 
ATOM     14  C   UNL     1       1.973   5.102  20.431  0.00  0.00    +0.000 C 
ATOM     15  N   UNL     1       2.708   6.077  19.617  0.00  0.00    +0.000 N 
ATOM     16  C   UNL     1       4.133   5.741  19.435  0.00  0.00    +0.000 C 
ATOM     17  C   UNL     1       4.270   4.310  18.867  0.00  0.00    +0.000 C 
ENDBRANCH   1  15
BRANCH   6  18
ATOM     18  S   UNL     1      -0.248  11.576  21.315  0.00  0.00    +0.000 S 
ATOM     19  O   UNL     1      -1.481  11.393  20.575  0.00  0.00    +0.000 OA
ATOM     20  O   UNL     1      -0.249  11.863  22.737  0.00  0.00    +0.000 OA
BRANCH  18  21
ATOM     21  C   UNL     1       0.729  12.809  20.499  0.00  0.00    +0.000 A 
ATOM     22  C   UNL     1       2.058  13.009  20.884  0.00  0.00    +0.000 A 
ATOM     23  C   UNL     1       2.848  13.920  20.182  0.00  0.00    +0.000 A 
ATOM     24  C   UNL     1       2.315  14.615  19.095  0.00  0.00    +0.000 A 
ATOM     25  C   UNL     1       0.996  14.399  18.701  0.00  0.00    +0.000 A 
ATOM     26  C   UNL     1       0.199  13.492  19.400  0.00  0.00    +0.000 A 
ENDBRANCH  18  21
ENDBRANCH   6  18
TORSDOF 3
ENDMDL
MODEL 6
REMARK VINA RESULT:      -7.7      2.192      3.195
REMARK  Name = 
REMARK  4 active torsions:
REMARK  status: ('A' for Active; 'I' for Inactive)
REMARK    1  A    between atoms: C_1  and  N_2
REMARK    2  A    between atoms: N_5  and  C_6
REMARK    3  A    between atoms: C_11  and  S_12
REMARK    4  A    between atoms: S_12  and  C_15
REMARK                            x       y       z     vdW  Elec       q    Type
REMARK                         _______ _______ _______ _____ _____    ______ ____
ROOT
ATOM      1  C   UNL     1       1.039  10.015  19.733  0.00  0.00    +0.000 A 
ATOM      2  C   UNL     1       0.542   9.670  21.009  0.00  0.00    +0.000 A 
ATOM      3  C   UNL     1       0.733   8.421  21.595  0.00  0.00    +0.000 A 
ATOM      4  C   UNL     1       1.427   7.423  20.919  0.00  0.00    +0.000 A 
ATOM      5  C   UNL     1       1.948   7.693  19.638  0.00  0.00    +0.000 A 
ATOM      6  C   UNL     1       2.647   6.914  18.664  0.00  0.00    +0.000 A 
ATOM      7  C   UNL     1       2.927   7.734  17.594  0.00  0.00    +0.000 A 
ATOM      8  N   UNL     1       2.418   8.970  17.876  0.00  0.00    +0.000 N 
ATOM      9  C   UNL     1       1.756   8.975  19.089  0.00  0.00    +0.000 A 
ATOM     10  H   UNL     1       2.498   9.775  17.277  0.00  0.00    +0.000 HD
ENDROOT
BRANCH   1  15
ATOM     11  C   UNL     1      -0.247  15.394  18.835  0.00  0.00    +0.000 C 
ATOM     12  N   UNL     1       0.131  14.024  18.491  0.00  0.00    +0.000 NA
ATOM     13  C   UNL     1      -0.927  13.073  18.896  0.00  0.00    +0.000 C 
ATOM     14  C   UNL     1      -0.563  11.594  18.606  0.00  0.00    +0.000 C 
ATOM     15  N   UNL     1       0.736  11.260  19.199  0.00  0.00    +0.000 N 
ATOM     16  C   UNL     1       1.815  12.195  18.828  0.00  0.00    +0.000 C 
ATOM     17  C   UNL     1       1.395  13.645  19.163  0.00  0.00    +0.000 C 
ENDBRANCH   1  15
BRANCH   6  18
ATOM     18  S   UNL     1       3.055   5.235  18.771  0.00  0.00    +0.000 S 
ATOM     19  O   UNL     1       3.191   4.947  20.185  0.00  0.00    +0.000 OA
ATOM     20  O   UNL     1       2.070   4.560  17.947  0.00  0.00    +0.000 OA
BRANCH  18  21
ATOM     21  C   UNL     1       4.641   5.059  17.999  0.00  0.00    +0.000 A 
ATOM     22  C   UNL     1       5.801   5.362  18.716  0.00  0.00    +0.000 A 
ATOM     23  C   UNL     1       7.049   5.141  18.133  0.00  0.00    +0.000 A 
ATOM     24  C   UNL     1       7.134   4.607  16.846  0.00  0.00    +0.000 A 
ATOM     25  C   UNL     1       5.976   4.287  16.139  0.00  0.00    +0.000 A 
ATOM     26  C   UNL     1       4.724   4.509  16.716  0.00  0.00    +0.000 A 
ENDBRANCH  18  21
ENDBRANCH   6  18
TORSDOF 3
ENDMDL
MODEL 7
REMARK VINA RESULT:      -7.7      3.871      7.885
REMARK  Name = 
REMARK  4 active torsions:
REMARK  status: ('A' for Active; 'I' for Inactive)
REMARK    1  A    between atoms: C_1  and  N_2
REMARK    2  A    between atoms: N_5  and  C_6
REMARK    3  A    between atoms: C_11  and  S_12
REMARK    4  A    between atoms: S_12  and  C_15
REMARK                            x       y       z     vdW  Elec       q    Type
REMARK                         _______ _______ _______ _____ _____    ______ ____
ROOT
ATOM      1  C   UNL     1       2.479   6.962  19.063  0.00  0.00    +0.000 A 
ATOM      2  C   UNL     1       2.713   7.524  17.788  0.00  0.00    +0.000 A 
ATOM      3  C   UNL     1       2.404   8.842  17.462  0.00  0.00    +0.000 A 
ATOM      4  C   UNL     1       1.817   9.682  18.403  0.00  0.00    +0.000 A 
ATOM      5  C   UNL     1       1.549   9.189  19.695  0.00  0.00    +0.000 A 
ATOM      6  C   UNL     1       0.926   9.737  20.860  0.00  0.00    +0.000 A 
ATOM      7  C   UNL     1       0.971   8.780  21.849  0.00  0.00    +0.000 A 
ATOM      8  N   UNL     1       1.583   7.676  21.327  0.00  0.00    +0.000 N 
ATOM      9  C   UNL     1       1.897   7.858  19.994  0.00  0.00    +0.000 A 
ATOM     10  H   UNL     1       1.771   6.829  21.837  0.00  0.00    +0.000 HD
ENDROOT
BRANCH   1  15
ATOM     11  C   UNL     1       3.633   1.498  18.607  0.00  0.00    +0.000 C 
ATOM     12  N   UNL     1       3.402   2.774  19.282  0.00  0.00    +0.000 NA
ATOM     13  C   UNL     1       2.028   3.259  19.026  0.00  0.00    +0.000 C 
ATOM     14  C   UNL     1       1.736   4.637  19.674  0.00  0.00    +0.000 C 
ATOM     15  N   UNL     1       2.751   5.617  19.273  0.00  0.00    +0.000 N 
ATOM     16  C   UNL     1       4.136   5.163  19.501  0.00  0.00    +0.000 C 
ATOM     17  C   UNL     1       4.364   3.797  18.812  0.00  0.00    +0.000 C 
ENDBRANCH   1  15
BRANCH   6  18
ATOM     18  S   UNL     1       0.212  11.307  21.018  0.00  0.00    +0.000 S 
ATOM     19  O   UNL     1      -0.195  11.422  22.404  0.00  0.00    +0.000 OA
ATOM     20  O   UNL     1       1.179  12.215  20.431  0.00  0.00    +0.000 OA
BRANCH  18  21
ATOM     21  C   UNL     1      -1.236  11.299  19.996  0.00  0.00    +0.000 A 
ATOM     22  C   UNL     1      -2.248  12.237  20.219  0.00  0.00    +0.000 A 
ATOM     23  C   UNL     1      -3.346  12.282  19.359  0.00  0.00    +0.000 A 
ATOM     24  C   UNL     1      -3.422  11.403  18.277  0.00  0.00    +0.000 A 
ATOM     25  C   UNL     1      -2.402  10.482  18.045  0.00  0.00    +0.000 A 
ATOM     26  C   UNL     1      -1.302  10.429  18.904  0.00  0.00    +0.000 A 
ENDBRANCH  18  21
ENDBRANCH   6  18
TORSDOF 3
ENDMDL
MODEL 8
REMARK VINA RESULT:      -7.6      0.811      1.269
REMARK  Name = 
REMARK  4 active torsions:
REMARK  status: ('A' for Active; 'I' for Inactive)
REMARK    1  A    between atoms: C_1  and  N_2
REMARK    2  A    between atoms: N_5  and  C_6
REMARK    3  A    between atoms: C_11  and  S_12
REMARK    4  A    between atoms: S_12  and  C_15
REMARK                            x       y       z     vdW  Elec       q    Type
REMARK                         _______ _______ _______ _____ _____    ______ ____
ROOT
ATOM      1  C   UNL     1       1.838   8.068  19.353  0.00  0.00    +0.000 A 
ATOM      2  C   UNL     1       2.440   8.594  18.188  0.00  0.00    +0.000 A 
ATOM      3  C   UNL     1       3.317   7.870  17.384  0.00  0.00    +0.000 A 
ATOM      4  C   UNL     1       3.663   6.564  17.715  0.00  0.00    +0.000 A 
ATOM      5  C   UNL     1       3.105   5.975  18.867  0.00  0.00    +0.000 A 
ATOM      6  C   UNL     1       3.270   4.712  19.518  0.00  0.00    +0.000 A 
ATOM      7  C   UNL     1       2.432   4.691  20.609  0.00  0.00    +0.000 A 
ATOM      8  N   UNL     1       1.778   5.889  20.651  0.00  0.00    +0.000 N 
ATOM      9  C   UNL     1       2.204   6.730  19.641  0.00  0.00    +0.000 A 
ATOM     10  H   UNL     1       1.083   6.141  21.335  0.00  0.00    +0.000 HD
ENDROOT
BRANCH   1  15
ATOM     11  C   UNL     1      -0.451  12.248  22.300  0.00  0.00    +0.000 C 
ATOM     12  N   UNL     1      -0.373  10.934  21.665  0.00  0.00    +0.000 NA
ATOM     13  C   UNL     1       0.726  10.135  22.253  0.00  0.00    +0.000 C 
ATOM     14  C   UNL     1       0.896   8.746  21.585  0.00  0.00    +0.000 C 
ATOM     15  N   UNL     1       1.034   8.889  20.132  0.00  0.00    +0.000 N 
ATOM     16  C   UNL     1      -0.037   9.691  19.511  0.00  0.00    +0.000 C 
ATOM     17  C   UNL     1      -0.137  11.068  20.209  0.00  0.00    +0.000 C 
ENDBRANCH   1  15
BRANCH   6  18
ATOM     18  S   UNL     1       4.344   3.435  19.055  0.00  0.00    +0.000 S 
ATOM     19  O   UNL     1       5.203   3.201  20.199  0.00  0.00    +0.000 OA
ATOM     20  O   UNL     1       3.478   2.396  18.528  0.00  0.00    +0.000 OA
BRANCH  18  21
ATOM     21  C   UNL     1       5.326   4.069  17.723  0.00  0.00    +0.000 A 
ATOM     22  C   UNL     1       6.534   4.716  17.997  0.00  0.00    +0.000 A 
ATOM     23  C   UNL     1       7.344   5.137  16.943  0.00  0.00    +0.000 A 
ATOM     24  C   UNL     1       6.953   4.900  15.624  0.00  0.00    +0.000 A 
ATOM     25  C   UNL     1       5.757   4.237  15.352  0.00  0.00    +0.000 A 
ATOM     26  C   UNL     1       4.940   3.816  16.403  0.00  0.00    +0.000 A 
ENDBRANCH  18  21
ENDBRANCH   6  18
TORSDOF 3
ENDMDL
MODEL 9
REMARK VINA RESULT:      -7.6      3.860      8.081
REMARK  Name = 
REMARK  4 active torsions:
REMARK  status: ('A' for Active; 'I' for Inactive)
REMARK    1  A    between atoms: C_1  and  N_2
REMARK    2  A    between atoms: N_5  and  C_6
REMARK    3  A    between atoms: C_11  and  S_12
REMARK    4  A    between atoms: S_12  and  C_15
REMARK                            x       y       z     vdW  Elec       q    Type
REMARK                         _______ _______ _______ _____ _____    ______ ____
ROOT
ATOM      1  C   UNL     1       3.288   5.973  18.788  0.00  0.00    +0.000 A 
ATOM      2  C   UNL     1       2.824   5.260  19.915  0.00  0.00    +0.000 A 
ATOM      3  C   UNL     1       1.880   5.762  20.806  0.00  0.00    +0.000 A 
ATOM      4  C   UNL     1       1.351   7.037  20.629  0.00  0.00    +0.000 A 
ATOM      5  C   UNL     1       1.771   7.810  19.529  0.00  0.00    +0.000 A 
ATOM      6  C   UNL     1       1.486   9.137  19.079  0.00  0.00    +0.000 A 
ATOM      7  C   UNL     1       2.181   9.341  17.908  0.00  0.00    +0.000 A 
ATOM      8  N   UNL     1       2.880   8.199  17.639  0.00  0.00    +0.000 N 
ATOM      9  C   UNL     1       2.708   7.258  18.636  0.00  0.00    +0.000 A 
ATOM     10  H   UNL     1       3.460   8.057  16.828  0.00  0.00    +0.000 HD
ENDROOT
BRANCH   1  15
ATOM     11  C   UNL     1       7.023   4.739  14.798  0.00  0.00    +0.000 C 
ATOM     12  N   UNL     1       6.337   4.620  16.083  0.00  0.00    +0.000 NA
ATOM     13  C   UNL     1       4.909   4.286  15.882  0.00  0.00    +0.000 C 
ATOM     14  C   UNL     1       4.111   4.196  17.208  0.00  0.00    +0.000 C 
ATOM     15  N   UNL     1       4.285   5.421  17.996  0.00  0.00    +0.000 N 
ATOM     16  C   UNL     1       5.697   5.794  18.206  0.00  0.00    +0.000 C 
ATOM     17  C   UNL     1       6.426   5.886  16.845  0.00  0.00    +0.000 C 
ENDBRANCH   1  15
BRANCH   6  18
ATOM     18  S   UNL     1       0.477  10.307  19.859  0.00  0.00    +0.000 S 
ATOM     19  O   UNL     1       0.012   9.682  21.082  0.00  0.00    +0.000 OA
ATOM     20  O   UNL     1       1.267  11.525  19.880  0.00  0.00    +0.000 OA
BRANCH  18  21
ATOM     21  C   UNL     1      -0.910  10.563  18.786  0.00  0.00    +0.000 A 
ATOM     22  C   UNL     1      -1.053   9.779  17.637  0.00  0.00    +0.000 A 
ATOM     23  C   UNL     1      -2.190   9.925  16.842  0.00  0.00    +0.000 A 
ATOM     24  C   UNL     1      -3.182  10.840  17.201  0.00  0.00    +0.000 A 
ATOM     25  C   UNL     1      -3.046  11.606  18.358  0.00  0.00    +0.000 A 
ATOM     26  C   UNL     1      -1.910  11.468  19.156  0.00  0.00    +0.000 A 
ENDBRANCH  18  21
ENDBRANCH   6  18
TORSDOF 3
ENDMDL
