MODEL 1
REMARK VINA RESULT:      -7.9      0.000      0.000
REMARK  Name = 
REMARK  6 active torsions:
REMARK  status: ('A' for Active; 'I' for Inactive)
REMARK    1  A    between atoms: C_1  and  C_2
REMARK    2  A    between atoms: C_5  and  N_6
REMARK    3  A    between atoms: N_9  and  C_10
REMARK    4  A    between atoms: C_19  and  O_20
REMARK    5  A    between atoms: O_20  and  C_21
REMARK    6  A    between atoms: C_21  and  C_22
REMARK                            x       y       z     vdW  Elec       q    Type
REMARK                         _______ _______ _______ _____ _____    ______ ____
ROOT
ATOM      1  C   UNL     1       2.206   7.402  18.755  0.00  0.00    +0.000 A 
ATOM      2  C   UNL     1       2.324   6.323  17.865  0.00  0.00    +0.000 A 
ATOM      3  C   UNL     1       2.304   5.011  18.313  0.00  0.00    +0.000 A 
ATOM      4  N   UNL     1       2.498   3.997  17.459  0.00  0.00    +0.000 NA
ATOM      5  C   UNL     1       2.494   2.758  17.973  0.00  0.00    +0.000 A 
ATOM      6  N   UNL     1       2.328   2.435  19.265  0.00  0.00    +0.000 NA
ATOM      7  C   UNL     1       2.139   3.476  20.092  0.00  0.00    +0.000 A 
ATOM      8  C   UNL     1       2.118   4.796  19.683  0.00  0.00    +0.000 A 
ATOM      9  C   UNL     1       1.927   5.864  20.579  0.00  0.00    +0.000 A 
ATOM     10  C   UNL     1       1.979   7.178  20.130  0.00  0.00    +0.000 A 
ENDROOT
BRANCH   1  14
ATOM     11  N   UNL     1       0.168   9.184  18.075  0.00  0.00    +0.000 N 
ATOM     12  C   UNL     1       1.465   9.585  17.840  0.00  0.00    +0.000 C 
ATOM     13  O   UNL     1       1.822  10.691  17.447  0.00  0.00    +0.000 OA
ATOM     14  N   UNL     1       2.436   8.687  18.234  0.00  0.00    +0.000 N 
ATOM     15  H   UNL     1       0.056   8.356  18.632  0.00  0.00    +0.000 HD
ATOM     16  H   UNL     1       3.271   9.184  18.524  0.00  0.00    +0.000 HD
BRANCH  11  21
ATOM     17  C   UNL     1      -4.746  11.935  17.174  0.00  0.00    +0.000 C 
ATOM     18  C   UNL     1      -3.423  11.270  17.393  0.00  0.00    +0.000 A 
ATOM     19  C   UNL     1      -2.680  11.528  18.549  0.00  0.00    +0.000 A 
ATOM     20  C   UNL     1      -1.480  10.859  18.785  0.00  0.00    +0.000 A 
ATOM     21  C   UNL     1      -1.006   9.929  17.866  0.00  0.00    +0.000 A 
ATOM     22  C   UNL     1      -1.716   9.706  16.679  0.00  0.00    +0.000 A 
ATOM     23  C   UNL     1      -2.922  10.366  16.450  0.00  0.00    +0.000 A 
ENDBRANCH  11  21
ENDBRANCH   1  14
BRANCH  10  24
ATOM     24  O   UNL     1       1.805   8.273  20.947  0.00  0.00    +0.000 OA
BRANCH  24  25
ATOM     25  C   UNL     1       0.529   8.377  21.593  0.00  0.00    +0.000 C 
BRANCH  25  26
ATOM     26  C   UNL     1       0.154   9.784  22.010  0.00  0.00    +0.000 A 
ATOM     27  C   UNL     1       0.735  10.877  21.337  0.00  0.00    +0.000 A 
ATOM     28  C   UNL     1       0.251  12.174  21.528  0.00  0.00    +0.000 A 
ATOM     29  C   UNL     1      -0.819  12.388  22.394  0.00  0.00    +0.000 A 
ATOM     30 CL   UNL     1      -1.487  13.966  22.551  0.00  0.00    +0.000 Cl
ATOM     31  C   UNL     1      -1.370  11.325  23.106  0.00  0.00    +0.000 A 
ATOM     32  C   UNL     1      -0.881  10.030  22.920  0.00  0.00    +0.000 A 
ENDBRANCH  25  26
ENDBRANCH  24  25
ENDBRANCH  10  24
TORSDOF 5
ENDMDL
MODEL 2
REMARK VINA RESULT:      -7.7      4.610      7.404
REMARK  Name = 
REMARK  6 active torsions:
REMARK  status: ('A' for Active; 'I' for Inactive)
REMARK    1  A    between atoms: C_1  and  C_2
REMARK    2  A    between atoms: C_5  and  N_6
REMARK    3  A    between atoms: N_9  and  C_10
REMARK    4  A    between atoms: C_19  and  O_20
REMARK    5  A    between atoms: O_20  and  C_21
REMARK    6  A    between atoms: C_21  and  C_22
REMARK                            x       y       z     vdW  Elec       q    Type
REMARK                         _______ _______ _______ _____ _____    ______ ____
ROOT
ATOM      1  C   UNL     1       6.153   4.504  16.521  0.00  0.00    +0.000 A 
ATOM      2  C   UNL     1       6.945   5.275  15.657  0.00  0.00    +0.000 A 
ATOM      3  C   UNL     1       7.047   4.974  14.307  0.00  0.00    +0.000 A 
ATOM      4  N   UNL     1       7.871   5.672  13.514  0.00  0.00    +0.000 NA
ATOM      5  C   UNL     1       7.937   5.302  12.227  0.00  0.00    +0.000 A 
ATOM      6  N   UNL     1       7.268   4.287  11.658  0.00  0.00    +0.000 NA
ATOM      7  C   UNL     1       6.455   3.607  12.483  0.00  0.00    +0.000 A 
ATOM      8  C   UNL     1       6.297   3.895  13.825  0.00  0.00    +0.000 A 
ATOM      9  C   UNL     1       5.444   3.156  14.664  0.00  0.00    +0.000 A 
ATOM     10  C   UNL     1       5.368   3.442  16.021  0.00  0.00    +0.000 A 
ENDROOT
BRANCH   1  14
ATOM     11  N   UNL     1       4.413   6.168  17.933  0.00  0.00    +0.000 N 
ATOM     12  C   UNL     1       5.464   5.613  18.629  0.00  0.00    +0.000 C 
ATOM     13  O   UNL     1       5.661   5.703  19.837  0.00  0.00    +0.000 OA
ATOM     14  N   UNL     1       6.269   4.765  17.898  0.00  0.00    +0.000 N 
ATOM     15  H   UNL     1       4.247   5.796  17.015  0.00  0.00    +0.000 HD
ATOM     16  H   UNL     1       6.644   4.038  18.497  0.00  0.00    +0.000 HD
BRANCH  11  21
ATOM     17  C   UNL     1       0.417   9.494  20.278  0.00  0.00    +0.000 C 
ATOM     18  C   UNL     1       1.418   8.597  19.619  0.00  0.00    +0.000 A 
ATOM     19  C   UNL     1       1.960   8.927  18.374  0.00  0.00    +0.000 A 
ATOM     20  C   UNL     1       2.940   8.128  17.790  0.00  0.00    +0.000 A 
ATOM     21  C   UNL     1       3.387   6.984  18.444  0.00  0.00    +0.000 A 
ATOM     22  C   UNL     1       2.811   6.615  19.666  0.00  0.00    +0.000 A 
ATOM     23  C   UNL     1       1.839   7.423  20.254  0.00  0.00    +0.000 A 
ENDBRANCH  11  21
ENDBRANCH   1  14
BRANCH  10  24
ATOM     24  O   UNL     1       4.559   2.760  16.903  0.00  0.00    +0.000 OA
BRANCH  24  25
ATOM     25  C   UNL     1       3.219   3.254  17.034  0.00  0.00    +0.000 C 
BRANCH  25  26
ATOM     26  C   UNL     1       2.685   3.239  18.452  0.00  0.00    +0.000 A 
ATOM     27  C   UNL     1       1.297   3.363  18.663  0.00  0.00    +0.000 A 
ATOM     28  C   UNL     1       0.741   3.125  19.923  0.00  0.00    +0.000 A 
ATOM     29  C   UNL     1       1.569   2.760  20.982  0.00  0.00    +0.000 A 
ATOM     30 CL   UNL     1       0.878   2.362  22.506  0.00  0.00    +0.000 Cl
ATOM     31  C   UNL     1       2.948   2.683  20.801  0.00  0.00    +0.000 A 
ATOM     32  C   UNL     1       3.504   2.928  19.543  0.00  0.00    +0.000 A 
ENDBRANCH  25  26
ENDBRANCH  24  25
ENDBRANCH  10  24
TORSDOF 5
ENDMDL
MODEL 3
REMARK VINA RESULT:      -7.6      4.314      7.075
REMARK  Name = 
REMARK  6 active torsions:
REMARK  status: ('A' for Active; 'I' for Inactive)
REMARK    1  A    between atoms: C_1  and  C_2
REMARK    2  A    between atoms: C_5  and  N_6
REMARK    3  A    between atoms: N_9  and  C_10
REMARK    4  A    between atoms: C_19  and  O_20
REMARK    5  A    between atoms: O_20  and  C_21
REMARK    6  A    between atoms: C_21  and  C_22
REMARK                            x       y       z     vdW  Elec       q    Type
REMARK                         _______ _______ _______ _____ _____    ______ ____
ROOT
ATOM      1  C   UNL     1       3.143   6.429  18.692  0.00  0.00    +0.000 A 
ATOM      2  C   UNL     1       2.094   5.895  19.455  0.00  0.00    +0.000 A 
ATOM      3  C   UNL     1       2.206   4.659  20.074  0.00  0.00    +0.000 A 
ATOM      4  N   UNL     1       1.166   4.130  20.731  0.00  0.00    +0.000 NA
ATOM      5  C   UNL     1       1.343   2.918  21.279  0.00  0.00    +0.000 A 
ATOM      6  N   UNL     1       2.459   2.176  21.219  0.00  0.00    +0.000 NA
ATOM      7  C   UNL     1       3.480   2.736  20.549  0.00  0.00    +0.000 A 
ATOM      8  C   UNL     1       3.422   3.978  19.947  0.00  0.00    +0.000 A 
ATOM      9  C   UNL     1       4.508   4.532  19.244  0.00  0.00    +0.000 A 
ATOM     10  C   UNL     1       4.381   5.757  18.600  0.00  0.00    +0.000 A 
ENDROOT
BRANCH   1  14
ATOM     11  N   UNL     1       1.577   8.538  19.634  0.00  0.00    +0.000 N 
ATOM     12  C   UNL     1       2.060   8.634  18.347  0.00  0.00    +0.000 C 
ATOM     13  O   UNL     1       1.948   9.601  17.600  0.00  0.00    +0.000 OA
ATOM     14  N   UNL     1       2.864   7.587  17.944  0.00  0.00    +0.000 N 
ATOM     15  H   UNL     1       1.966   7.804  20.198  0.00  0.00    +0.000 HD
ATOM     16  H   UNL     1       3.561   7.918  17.287  0.00  0.00    +0.000 HD
BRANCH  11  21
ATOM     17  C   UNL     1      -1.271  12.415  22.700  0.00  0.00    +0.000 C 
ATOM     18  C   UNL     1      -0.582  11.380  21.865  0.00  0.00    +0.000 A 
ATOM     19  C   UNL     1      -0.295  11.627  20.519  0.00  0.00    +0.000 A 
ATOM     20  C   UNL     1       0.405  10.693  19.759  0.00  0.00    +0.000 A 
ATOM     21  C   UNL     1       0.820   9.496  20.333  0.00  0.00    +0.000 A 
ATOM     22  C   UNL     1       0.488   9.215  21.665  0.00  0.00    +0.000 A 
ATOM     23  C   UNL     1      -0.201  10.158  22.428  0.00  0.00    +0.000 A 
ENDBRANCH  11  21
ENDBRANCH   1  14
BRANCH  10  24
ATOM     24  O   UNL     1       5.398   6.358  17.892  0.00  0.00    +0.000 OA
BRANCH  24  25
ATOM     25  C   UNL     1       6.436   5.487  17.425  0.00  0.00    +0.000 C 
BRANCH  25  26
ATOM     26  C   UNL     1       6.297   5.072  15.974  0.00  0.00    +0.000 A 
ATOM     27  C   UNL     1       7.334   5.380  15.071  0.00  0.00    +0.000 A 
ATOM     28  C   UNL     1       7.355   4.821  13.790  0.00  0.00    +0.000 A 
ATOM     29  C   UNL     1       6.339   3.951  13.402  0.00  0.00    +0.000 A 
ATOM     30 CL   UNL     1       6.417   3.178  11.867  0.00  0.00    +0.000 Cl
ATOM     31  C   UNL     1       5.280   3.678  14.266  0.00  0.00    +0.000 A 
ATOM     32  C   UNL     1       5.256   4.242  15.544  0.00  0.00    +0.000 A 
ENDBRANCH  25  26
ENDBRANCH  24  25
ENDBRANCH  10  24
TORSDOF 5
ENDMDL
MODEL 4
REMARK VINA RESULT:      -7.5      2.017      3.145
REMARK  Name = 
REMARK  6 active torsions:
REMARK  status: ('A' for Active; 'I' for Inactive)
REMARK    1  A    between atoms: C_1  and  C_2
REMARK    2  A    between atoms: C_5  and  N_6
REMARK    3  A    between atoms: N_9  and  C_10
REMARK    4  A    between atoms: C_19  and  O_20
REMARK    5  A    between atoms: O_20  and  C_21
REMARK    6  A    between atoms: C_21  and  C_22
REMARK                            x       y       z     vdW  Elec       q    Type
REMARK                         _______ _______ _______ _____ _____    ______ ____
ROOT
ATOM      1  C   UNL     1       0.947  10.461  19.787  0.00  0.00    +0.000 A 
ATOM      2  C   UNL     1       1.316   9.594  18.747  0.00  0.00    +0.000 A 
ATOM      3  C   UNL     1       1.739   8.298  19.002  0.00  0.00    +0.000 A 
ATOM      4  N   UNL     1       2.163   7.511  18.005  0.00  0.00    +0.000 NA
ATOM      5  C   UNL     1       2.585   6.282  18.335  0.00  0.00    +0.000 A 
ATOM      6  N   UNL     1       2.638   5.767  19.573  0.00  0.00    +0.000 NA
ATOM      7  C   UNL     1       2.209   6.584  20.548  0.00  0.00    +0.000 A 
ATOM      8  C   UNL     1       1.747   7.869  20.334  0.00  0.00    +0.000 A 
ATOM      9  C   UNL     1       1.314   8.703  21.381  0.00  0.00    +0.000 A 
ATOM     10  C   UNL     1       0.919  10.010  21.124  0.00  0.00    +0.000 A 
ENDROOT
BRANCH   1  14
ATOM     11  N   UNL     1      -1.555  11.490  19.102  0.00  0.00    +0.000 N 
ATOM     12  C   UNL     1      -0.482  12.353  19.057  0.00  0.00    +0.000 C 
ATOM     13  O   UNL     1      -0.529  13.559  18.835  0.00  0.00    +0.000 OA
ATOM     14  N   UNL     1       0.725  11.807  19.446  0.00  0.00    +0.000 N 
ATOM     15  H   UNL     1      -1.391  10.604  19.544  0.00  0.00    +0.000 HD
ATOM     16  H   UNL     1       1.303  12.517  19.880  0.00  0.00    +0.000 HD
BRANCH  11  21
ATOM     17  C   UNL     1      -7.075  12.430  18.016  0.00  0.00    +0.000 C 
ATOM     18  C   UNL     1      -5.614  12.250  18.291  0.00  0.00    +0.000 A 
ATOM     19  C   UNL     1      -5.068  12.637  19.518  0.00  0.00    +0.000 A 
ATOM     20  C   UNL     1      -3.723  12.409  19.800  0.00  0.00    +0.000 A 
ATOM     21  C   UNL     1      -2.906  11.797  18.855  0.00  0.00    +0.000 A 
ATOM     22  C   UNL     1      -3.431  11.456  17.602  0.00  0.00    +0.000 A 
ATOM     23  C   UNL     1      -4.781  11.673  17.327  0.00  0.00    +0.000 A 
ENDBRANCH  11  21
ENDBRANCH   1  14
BRANCH  10  24
ATOM     24  O   UNL     1       0.487  10.884  22.097  0.00  0.00    +0.000 OA
BRANCH  24  25
ATOM     25  C   UNL     1      -0.849  10.677  22.576  0.00  0.00    +0.000 C 
BRANCH  25  26
ATOM     26  C   UNL     1      -1.591  11.951  22.924  0.00  0.00    +0.000 A 
ATOM     27  C   UNL     1      -1.029  13.192  22.564  0.00  0.00    +0.000 A 
ATOM     28  C   UNL     1      -1.776  14.370  22.655  0.00  0.00    +0.000 A 
ATOM     29  C   UNL     1      -3.093  14.315  23.108  0.00  0.00    +0.000 A 
ATOM     30 CL   UNL     1      -4.050  15.744  23.122  0.00  0.00    +0.000 Cl
ATOM     31  C   UNL     1      -3.645  13.103  23.517  0.00  0.00    +0.000 A 
ATOM     32  C   UNL     1      -2.895  11.927  23.432  0.00  0.00    +0.000 A 
ENDBRANCH  25  26
ENDBRANCH  24  25
ENDBRANCH  10  24
TORSDOF 5
ENDMDL
MODEL 5
REMARK VINA RESULT:      -7.5      2.121      3.546
REMARK  Name = 
REMARK  6 active torsions:
REMARK  status: ('A' for Active; 'I' for Inactive)
REMARK    1  A    between atoms: C_1  and  C_2
REMARK    2  A    between atoms: C_5  and  N_6
REMARK    3  A    between atoms: N_9  and  C_10
REMARK    4  A    between atoms: C_19  and  O_20
REMARK    5  A    between atoms: O_20  and  C_21
REMARK    6  A    between atoms: C_21  and  C_22
REMARK                            x       y       z     vdW  Elec       q    Type
REMARK                         _______ _______ _______ _____ _____    ______ ____
ROOT
ATOM      1  C   UNL     1       0.814  10.608  19.841  0.00  0.00    +0.000 A 
ATOM      2  C   UNL     1       1.202   9.799  18.762  0.00  0.00    +0.000 A 
ATOM      3  C   UNL     1       1.681   8.513  18.958  0.00  0.00    +0.000 A 
ATOM      4  N   UNL     1       2.121   7.785  17.924  0.00  0.00    +0.000 NA
ATOM      5  C   UNL     1       2.597   6.561  18.198  0.00  0.00    +0.000 A 
ATOM      6  N   UNL     1       2.690   6.000  19.413  0.00  0.00    +0.000 NA
ATOM      7  C   UNL     1       2.244   6.759  20.427  0.00  0.00    +0.000 A 
ATOM      8  C   UNL     1       1.727   8.031  20.272  0.00  0.00    +0.000 A 
ATOM      9  C   UNL     1       1.276   8.804  21.358  0.00  0.00    +0.000 A 
ATOM     10  C   UNL     1       0.825  10.103  21.159  0.00  0.00    +0.000 A 
ENDROOT
BRANCH   1  14
ATOM     11  N   UNL     1      -1.711  11.539  19.101  0.00  0.00    +0.000 N 
ATOM     12  C   UNL     1      -0.685  12.457  19.146  0.00  0.00    +0.000 C 
ATOM     13  O   UNL     1      -0.789  13.669  18.982  0.00  0.00    +0.000 OA
ATOM     14  N   UNL     1       0.532  11.957  19.559  0.00  0.00    +0.000 N 
ATOM     15  H   UNL     1      -1.516  10.640  19.506  0.00  0.00    +0.000 HD
ATOM     16  H   UNL     1       1.053  12.673  20.052  0.00  0.00    +0.000 HD
BRANCH  11  21
ATOM     17  C   UNL     1      -7.157  12.843  18.019  0.00  0.00    +0.000 C 
ATOM     18  C   UNL     1      -5.746  12.435  18.312  0.00  0.00    +0.000 A 
ATOM     19  C   UNL     1      -4.976  11.790  17.340  0.00  0.00    +0.000 A 
ATOM     20  C   UNL     1      -3.643  11.470  17.587  0.00  0.00    +0.000 A 
ATOM     21  C   UNL     1      -3.065  11.786  18.812  0.00  0.00    +0.000 A 
ATOM     22  C   UNL     1      -3.845  12.382  19.812  0.00  0.00    +0.000 A 
ATOM     23  C   UNL     1      -5.175  12.714  19.558  0.00  0.00    +0.000 A 
ENDBRANCH  11  21
ENDBRANCH   1  14
BRANCH  10  24
ATOM     24  O   UNL     1       0.373  10.919  22.172  0.00  0.00    +0.000 OA
BRANCH  24  25
ATOM     25  C   UNL     1      -1.007  10.768  22.530  0.00  0.00    +0.000 C 
BRANCH  25  26
ATOM     26  C   UNL     1      -1.690  12.056  22.940  0.00  0.00    +0.000 A 
ATOM     27  C   UNL     1      -3.003  12.005  23.449  0.00  0.00    +0.000 A 
ATOM     28  C   UNL     1      -3.582  13.126  24.050  0.00  0.00    +0.000 A 
ATOM     29  C   UNL     1      -2.853  14.308  24.145  0.00  0.00    +0.000 A 
ATOM     30 CL   UNL     1      -3.520  15.658  24.978  0.00  0.00    +0.000 Cl
ATOM     31  C   UNL     1      -1.573  14.391  23.600  0.00  0.00    +0.000 A 
ATOM     32  C   UNL     1      -0.997  13.271  22.994  0.00  0.00    +0.000 A 
ENDBRANCH  25  26
ENDBRANCH  24  25
ENDBRANCH  10  24
TORSDOF 5
ENDMDL
MODEL 6
REMARK VINA RESULT:      -7.5      3.964      6.696
REMARK  Name = 
REMARK  6 active torsions:
REMARK  status: ('A' for Active; 'I' for Inactive)
REMARK    1  A    between atoms: C_1  and  C_2
REMARK    2  A    between atoms: C_5  and  N_6
REMARK    3  A    between atoms: N_9  and  C_10
REMARK    4  A    between atoms: C_19  and  O_20
REMARK    5  A    between atoms: O_20  and  C_21
REMARK    6  A    between atoms: C_21  and  C_22
REMARK                            x       y       z     vdW  Elec       q    Type
REMARK                         _______ _______ _______ _____ _____    ______ ____
ROOT
ATOM      1  C   UNL     1       3.167   6.209  18.220  0.00  0.00    +0.000 A 
ATOM      2  C   UNL     1       2.044   5.368  18.194  0.00  0.00    +0.000 A 
ATOM      3  C   UNL     1       2.152   4.010  18.453  0.00  0.00    +0.000 A 
ATOM      4  N   UNL     1       1.084   3.209  18.345  0.00  0.00    +0.000 NA
ATOM      5  C   UNL     1       1.274   1.903  18.583  0.00  0.00    +0.000 A 
ATOM      6  N   UNL     1       2.437   1.316  18.904  0.00  0.00    +0.000 NA
ATOM      7  C   UNL     1       3.487   2.148  19.000  0.00  0.00    +0.000 A 
ATOM      8  C   UNL     1       3.417   3.511  18.784  0.00  0.00    +0.000 A 
ATOM      9  C   UNL     1       4.540   4.353  18.883  0.00  0.00    +0.000 A 
ATOM     10  C   UNL     1       4.432   5.708  18.593  0.00  0.00    +0.000 A 
ENDROOT
BRANCH   1  14
ATOM     11  N   UNL     1       1.718   8.160  19.593  0.00  0.00    +0.000 N 
ATOM     12  C   UNL     1       2.247   8.508  18.370  0.00  0.00    +0.000 C 
ATOM     13  O   UNL     1       2.225   9.624  17.861  0.00  0.00    +0.000 OA
ATOM     14  N   UNL     1       2.991   7.523  17.752  0.00  0.00    +0.000 N 
ATOM     15  H   UNL     1       2.038   7.290  19.981  0.00  0.00    +0.000 HD
ATOM     16  H   UNL     1       3.729   7.942  17.198  0.00  0.00    +0.000 HD
BRANCH  11  21
ATOM     17  C   UNL     1      -1.430  11.453  23.025  0.00  0.00    +0.000 C 
ATOM     18  C   UNL     1      -0.548  10.625  22.143  0.00  0.00    +0.000 A 
ATOM     19  C   UNL     1       0.274   9.634  22.687  0.00  0.00    +0.000 A 
ATOM     20  C   UNL     1       1.044   8.818  21.861  0.00  0.00    +0.000 A 
ATOM     21  C   UNL     1       1.006   8.987  20.481  0.00  0.00    +0.000 A 
ATOM     22  C   UNL     1       0.228  10.014  19.930  0.00  0.00    +0.000 A 
ATOM     23  C   UNL     1      -0.552  10.821  20.758  0.00  0.00    +0.000 A 
ENDBRANCH  11  21
ENDBRANCH   1  14
BRANCH  10  24
ATOM     24  O   UNL     1       5.487   6.591  18.665  0.00  0.00    +0.000 OA
BRANCH  24  25
ATOM     25  C   UNL     1       6.703   6.168  18.036  0.00  0.00    +0.000 C 
BRANCH  25  26
ATOM     26  C   UNL     1       6.526   5.642  16.626  0.00  0.00    +0.000 A 
ATOM     27  C   UNL     1       7.093   4.399  16.281  0.00  0.00    +0.000 A 
ATOM     28  C   UNL     1       6.764   3.772  15.076  0.00  0.00    +0.000 A 
ATOM     29  C   UNL     1       5.865   4.385  14.205  0.00  0.00    +0.000 A 
ATOM     30 CL   UNL     1       5.376   3.569  12.772  0.00  0.00    +0.000 Cl
ATOM     31  C   UNL     1       5.337   5.638  14.508  0.00  0.00    +0.000 A 
ATOM     32  C   UNL     1       5.671   6.267  15.710  0.00  0.00    +0.000 A 
ENDBRANCH  25  26
ENDBRANCH  24  25
ENDBRANCH  10  24
TORSDOF 5
ENDMDL
MODEL 7
REMARK VINA RESULT:      -7.4      0.599      1.066
REMARK  Name = 
REMARK  6 active torsions:
REMARK  status: ('A' for Active; 'I' for Inactive)
REMARK    1  A    between atoms: C_1  and  C_2
REMARK    2  A    between atoms: C_5  and  N_6
REMARK    3  A    between atoms: N_9  and  C_10
REMARK    4  A    between atoms: C_19  and  O_20
REMARK    5  A    between atoms: O_20  and  C_21
REMARK    6  A    between atoms: C_21  and  C_22
REMARK                            x       y       z     vdW  Elec       q    Type
REMARK                         _______ _______ _______ _____ _____    ______ ____
ROOT
ATOM      1  C   UNL     1       2.048   7.995  19.079  0.00  0.00    +0.000 A 
ATOM      2  C   UNL     1       2.224   6.981  18.126  0.00  0.00    +0.000 A 
ATOM      3  C   UNL     1       2.287   5.645  18.494  0.00  0.00    +0.000 A 
ATOM      4  N   UNL     1       2.536   4.698  17.580  0.00  0.00    +0.000 NA
ATOM      5  C   UNL     1       2.611   3.433  18.019  0.00  0.00    +0.000 A 
ATOM      6  N   UNL     1       2.476   3.024  19.290  0.00  0.00    +0.000 NA
ATOM      7  C   UNL     1       2.232   4.000  20.179  0.00  0.00    +0.000 A 
ATOM      8  C   UNL     1       2.127   5.338  19.850  0.00  0.00    +0.000 A 
ATOM      9  C   UNL     1       1.879   6.338  20.809  0.00  0.00    +0.000 A 
ATOM     10  C   UNL     1       1.847   7.677  20.439  0.00  0.00    +0.000 A 
ENDROOT
BRANCH   1  14
ATOM     11  N   UNL     1      -0.086   9.601  18.266  0.00  0.00    +0.000 N 
ATOM     12  C   UNL     1       1.180  10.138  18.180  0.00  0.00    +0.000 C 
ATOM     13  O   UNL     1       1.459  11.292  17.869  0.00  0.00    +0.000 OA
ATOM     14  N   UNL     1       2.195   9.321  18.635  0.00  0.00    +0.000 N 
ATOM     15  H   UNL     1      -0.166   8.740  18.777  0.00  0.00    +0.000 HD
ATOM     16  H   UNL     1       2.943   9.882  19.027  0.00  0.00    +0.000 HD
BRANCH  11  21
ATOM     17  C   UNL     1      -5.155  11.897  17.016  0.00  0.00    +0.000 C 
ATOM     18  C   UNL     1      -3.795  11.353  17.325  0.00  0.00    +0.000 A 
ATOM     19  C   UNL     1      -3.128  11.726  18.496  0.00  0.00    +0.000 A 
ATOM     20  C   UNL     1      -1.892  11.170  18.818  0.00  0.00    +0.000 A 
ATOM     21  C   UNL     1      -1.304  10.238  17.969  0.00  0.00    +0.000 A 
ATOM     22  C   UNL     1      -1.938   9.900  16.767  0.00  0.00    +0.000 A 
ATOM     23  C   UNL     1      -3.181  10.448  16.453  0.00  0.00    +0.000 A 
ENDBRANCH  11  21
ENDBRANCH   1  14
BRANCH  10  24
ATOM     24  O   UNL     1       1.614   8.708  21.322  0.00  0.00    +0.000 OA
BRANCH  24  25
ATOM     25  C   UNL     1       0.268   8.833  21.798  0.00  0.00    +0.000 C 
BRANCH  25  26
ATOM     26  C   UNL     1      -0.210  10.263  21.951  0.00  0.00    +0.000 A 
ATOM     27  C   UNL     1      -1.217  10.552  22.894  0.00  0.00    +0.000 A 
ATOM     28  C   UNL     1      -1.522  11.873  23.232  0.00  0.00    +0.000 A 
ATOM     29  C   UNL     1      -0.824  12.916  22.628  0.00  0.00    +0.000 A 
ATOM     30 CL   UNL     1      -1.121  14.539  23.117  0.00  0.00    +0.000 Cl
ATOM     31  C   UNL     1       0.138  12.648  21.656  0.00  0.00    +0.000 A 
ATOM     32  C   UNL     1       0.438  11.327  21.314  0.00  0.00    +0.000 A 
ENDBRANCH  25  26
ENDBRANCH  24  25
ENDBRANCH  10  24
TORSDOF 5
ENDMDL
MODEL 8
REMARK VINA RESULT:      -7.3      4.517      7.371
REMARK  Name = 
REMARK  6 active torsions:
REMARK  status: ('A' for Active; 'I' for Inactive)
REMARK    1  A    between atoms: C_1  and  C_2
REMARK    2  A    between atoms: C_5  and  N_6
REMARK    3  A    between atoms: N_9  and  C_10
REMARK    4  A    between atoms: C_19  and  O_20
REMARK    5  A    between atoms: O_20  and  C_21
REMARK    6  A    between atoms: C_21  and  C_22
REMARK                            x       y       z     vdW  Elec       q    Type
REMARK                         _______ _______ _______ _____ _____    ______ ____
ROOT
ATOM      1  C   UNL     1       3.149   6.706  18.428  0.00  0.00    +0.000 A 
ATOM      2  C   UNL     1       2.437   6.210  19.531  0.00  0.00    +0.000 A 
ATOM      3  C   UNL     1       2.702   4.955  20.059  0.00  0.00    +0.000 A 
ATOM      4  N   UNL     1       1.958   4.467  21.060  0.00  0.00    +0.000 NA
ATOM      5  C   UNL     1       2.257   3.234  21.496  0.00  0.00    +0.000 A 
ATOM      6  N   UNL     1       3.221   2.434  21.015  0.00  0.00    +0.000 NA
ATOM      7  C   UNL     1       3.944   2.955  20.010  0.00  0.00    +0.000 A 
ATOM      8  C   UNL     1       3.736   4.213  19.478  0.00  0.00    +0.000 A 
ATOM      9  C   UNL     1       4.506   4.724  18.417  0.00  0.00    +0.000 A 
ATOM     10  C   UNL     1       4.217   5.969  17.872  0.00  0.00    +0.000 A 
ENDROOT
BRANCH   1  14
ATOM     11  N   UNL     1       1.572   8.571  19.780  0.00  0.00    +0.000 N 
ATOM     12  C   UNL     1       1.859   8.824  18.456  0.00  0.00    +0.000 C 
ATOM     13  O   UNL     1       1.567   9.840  17.832  0.00  0.00    +0.000 OA
ATOM     14  N   UNL     1       2.677   7.895  17.846  0.00  0.00    +0.000 N 
ATOM     15  H   UNL     1       2.094   7.828  20.209  0.00  0.00    +0.000 HD
ATOM     16  H   UNL     1       3.246   8.345  17.138  0.00  0.00    +0.000 HD
BRANCH  11  21
ATOM     17  C   UNL     1      -1.518  12.000  23.129  0.00  0.00    +0.000 C 
ATOM     18  C   UNL     1      -0.657  11.101  22.298  0.00  0.00    +0.000 A 
ATOM     19  C   UNL     1      -0.543   9.742  22.605  0.00  0.00    +0.000 A 
ATOM     20  C   UNL     1       0.204   8.890  21.793  0.00  0.00    +0.000 A 
ATOM     21  C   UNL     1       0.851   9.389  20.667  0.00  0.00    +0.000 A 
ATOM     22  C   UNL     1       0.787  10.759  20.382  0.00  0.00    +0.000 A 
ATOM     23  C   UNL     1       0.029  11.607  21.189  0.00  0.00    +0.000 A 
ENDBRANCH  11  21
ENDBRANCH   1  14
BRANCH  10  24
ATOM     24  O   UNL     1       4.924   6.532  16.833  0.00  0.00    +0.000 OA
BRANCH  24  25
ATOM     25  C   UNL     1       6.165   5.895  16.501  0.00  0.00    +0.000 C 
BRANCH  25  26
ATOM     26  C   UNL     1       6.189   5.251  15.130  0.00  0.00    +0.000 A 
ATOM     27  C   UNL     1       7.342   5.383  14.330  0.00  0.00    +0.000 A 
ATOM     28  C   UNL     1       7.497   4.622  13.169  0.00  0.00    +0.000 A 
ATOM     29  C   UNL     1       6.501   3.722  12.797  0.00  0.00    +0.000 A 
ATOM     30 CL   UNL     1       6.735   2.707  11.428  0.00  0.00    +0.000 Cl
ATOM     31  C   UNL     1       5.333   3.618  13.549  0.00  0.00    +0.000 A 
ATOM     32  C   UNL     1       5.174   4.384  14.707  0.00  0.00    +0.000 A 
ENDBRANCH  25  26
ENDBRANCH  24  25
ENDBRANCH  10  24
TORSDOF 5
ENDMDL
MODEL 9
REMARK VINA RESULT:      -7.3      4.082      6.810
REMARK  Name = 
REMARK  6 active torsions:
REMARK  status: ('A' for Active; 'I' for Inactive)
REMARK    1  A    between atoms: C_1  and  C_2
REMARK    2  A    between atoms: C_5  and  N_6
REMARK    3  A    between atoms: N_9  and  C_10
REMARK    4  A    between atoms: C_19  and  O_20
REMARK    5  A    between atoms: O_20  and  C_21
REMARK    6  A    between atoms: C_21  and  C_22
REMARK                            x       y       z     vdW  Elec       q    Type
REMARK                         _______ _______ _______ _____ _____    ______ ____
ROOT
ATOM      1  C   UNL     1       3.306   6.284  18.168  0.00  0.00    +0.000 A 
ATOM      2  C   UNL     1       2.155   5.482  18.144  0.00  0.00    +0.000 A 
ATOM      3  C   UNL     1       2.217   4.120  18.398  0.00  0.00    +0.000 A 
ATOM      4  N   UNL     1       1.122   3.357  18.293  0.00  0.00    +0.000 NA
ATOM      5  C   UNL     1       1.268   2.044  18.525  0.00  0.00    +0.000 A 
ATOM      6  N   UNL     1       2.412   1.417  18.839  0.00  0.00    +0.000 NA
ATOM      7  C   UNL     1       3.490   2.212  18.932  0.00  0.00    +0.000 A 
ATOM      8  C   UNL     1       3.466   3.577  18.721  0.00  0.00    +0.000 A 
ATOM      9  C   UNL     1       4.617   4.380  18.818  0.00  0.00    +0.000 A 
ATOM     10  C   UNL     1       4.555   5.739  18.533  0.00  0.00    +0.000 A 
ENDROOT
BRANCH   1  14
ATOM     11  N   UNL     1       1.739   8.216  19.433  0.00  0.00    +0.000 N 
ATOM     12  C   UNL     1       2.376   8.581  18.268  0.00  0.00    +0.000 C 
ATOM     13  O   UNL     1       2.400   9.706  17.776  0.00  0.00    +0.000 OA
ATOM     14  N   UNL     1       3.173   7.605  17.705  0.00  0.00    +0.000 N 
ATOM     15  H   UNL     1       2.022   7.341  19.835  0.00  0.00    +0.000 HD
ATOM     16  H   UNL     1       3.958   8.031  17.226  0.00  0.00    +0.000 HD
BRANCH  11  21
ATOM     17  C   UNL     1      -1.199  11.586  22.975  0.00  0.00    +0.000 C 
ATOM     18  C   UNL     1      -0.486  10.669  22.030  0.00  0.00    +0.000 A 
ATOM     19  C   UNL     1      -0.581  10.856  20.648  0.00  0.00    +0.000 A 
ATOM     20  C   UNL     1       0.135  10.045  19.771  0.00  0.00    +0.000 A 
ATOM     21  C   UNL     1       0.950   9.031  20.265  0.00  0.00    +0.000 A 
ATOM     22  C   UNL     1       1.007   8.800  21.645  0.00  0.00    +0.000 A 
ATOM     23  C   UNL     1       0.300   9.622  22.523  0.00  0.00    +0.000 A 
ENDBRANCH  11  21
ENDBRANCH   1  14
BRANCH  10  24
ATOM     24  O   UNL     1       5.640   6.585  18.603  0.00  0.00    +0.000 OA
BRANCH  24  25
ATOM     25  C   UNL     1       6.262   6.911  17.354  0.00  0.00    +0.000 C 
BRANCH  25  26
ATOM     26  C   UNL     1       6.136   5.835  16.294  0.00  0.00    +0.000 A 
ATOM     27  C   UNL     1       5.224   6.019  15.236  0.00  0.00    +0.000 A 
ATOM     28  C   UNL     1       5.238   5.173  14.124  0.00  0.00    +0.000 A 
ATOM     29  C   UNL     1       6.165   4.135  14.062  0.00  0.00    +0.000 A 
ATOM     30 CL   UNL     1       6.258   3.157  12.649  0.00  0.00    +0.000 Cl
ATOM     31  C   UNL     1       7.039   3.909  15.124  0.00  0.00    +0.000 A 
ATOM     32  C   UNL     1       7.019   4.751  16.238  0.00  0.00    +0.000 A 
ENDBRANCH  25  26
ENDBRANCH  24  25
ENDBRANCH  10  24
TORSDOF 5
ENDMDL
