MODEL 1
REMARK VINA RESULT:      -4.9      0.000      0.000
REMARK  Name = 
REMARK  12 active torsions:
REMARK  status: ('A' for Active; 'I' for Inactive)
REMARK    1  A    between atoms: C_1  and  C_2
REMARK    2  A    between atoms: C_2  and  C_3
REMARK    3  A    between atoms: C_2  and  O_9
REMARK    4  A    between atoms: C_3  and  O_4
REMARK    5  A    between atoms: O_4  and  C_5
REMARK    6  A    between atoms: C_5  and  C_6
REMARK    7  A    between atoms: C_5  and  C_7
REMARK    8  A    between atoms: C_5  and  C_8
REMARK    9  A    between atoms: O_9  and  C_10
REMARK   10  A    between atoms: C_10  and  C_11
REMARK   11  A    between atoms: C_11  and  C_12
REMARK   12  A    between atoms: C_12  and  O_13
REMARK                            x       y       z     vdW  Elec       q    Type
REMARK                         _______ _______ _______ _____ _____    ______ ____
ROOT
ATOM      1  C   UNL     1       3.309   1.810  18.249  0.00  0.00    +0.000 C 
ATOM      2  C   UNL     1       4.016   3.152  18.466  0.00  0.00    +0.000 C 
ENDROOT
BRANCH   2   3
ATOM      3  C   UNL     1       4.033   3.896  17.114  0.00  0.00    +0.000 C 
BRANCH   3   4
ATOM      4  O   UNL     1       5.184   3.586  16.319  0.00  0.00    +0.000 OA
BRANCH   4   5
ATOM      5  C   UNL     1       6.110   4.675  16.111  0.00  0.00    +0.000 C 
ATOM      6  C   UNL     1       7.265   4.650  17.121  0.00  0.00    +0.000 C 
ATOM      7  C   UNL     1       6.696   4.485  14.704  0.00  0.00    +0.000 C 
ATOM      8  C   UNL     1       5.391   6.033  16.147  0.00  0.00    +0.000 C 
ENDBRANCH   4   5
ENDBRANCH   3   4
ENDBRANCH   2   3
BRANCH   2   9
ATOM      9  O   UNL     1       3.305   3.941  19.436  0.00  0.00    +0.000 OA
BRANCH   9  10
ATOM     10  C   UNL     1       1.890   3.950  19.242  0.00  0.00    +0.000 C 
BRANCH  10  11
ATOM     11  C   UNL     1       1.191   3.994  20.589  0.00  0.00    +0.000 C 
BRANCH  11  12
ATOM     12  C   UNL     1       1.379   2.707  21.376  0.00  0.00    +0.000 C 
BRANCH  12  13
ATOM     13  O   UNL     1       2.648   2.728  22.024  0.00  0.00    +0.000 OA
ATOM     14  H   UNL     1       3.112   1.914  21.762  0.00  0.00    +0.000 HD
ENDBRANCH  12  13
ENDBRANCH  11  12
ENDBRANCH  10  11
ENDBRANCH   9  10
ENDBRANCH   2   9
TORSDOF 8
ENDMDL
MODEL 2
REMARK VINA RESULT:      -4.9      2.060      5.744
REMARK  Name = 
REMARK  12 active torsions:
REMARK  status: ('A' for Active; 'I' for Inactive)
REMARK    1  A    between atoms: C_1  and  C_2
REMARK    2  A    between atoms: C_2  and  C_3
REMARK    3  A    between atoms: C_2  and  O_9
REMARK    4  A    between atoms: C_3  and  O_4
REMARK    5  A    between atoms: O_4  and  C_5
REMARK    6  A    between atoms: C_5  and  C_6
REMARK    7  A    between atoms: C_5  and  C_7
REMARK    8  A    between atoms: C_5  and  C_8
REMARK    9  A    between atoms: O_9  and  C_10
REMARK   10  A    between atoms: C_10  and  C_11
REMARK   11  A    between atoms: C_11  and  C_12
REMARK   12  A    between atoms: C_12  and  O_13
REMARK                            x       y       z     vdW  Elec       q    Type
REMARK                         _______ _______ _______ _____ _____    ______ ____
ROOT
ATOM      1  C   UNL     1       4.263   3.575  17.398  0.00  0.00    +0.000 C 
ATOM      2  C   UNL     1       4.819   4.620  18.371  0.00  0.00    +0.000 C 
ENDROOT
BRANCH   2   3
ATOM      3  C   UNL     1       3.938   4.595  19.638  0.00  0.00    +0.000 C 
BRANCH   3   4
ATOM      4  O   UNL     1       3.277   3.339  19.834  0.00  0.00    +0.000 OA
BRANCH   4   5
ATOM      5  C   UNL     1       1.916   3.419  20.313  0.00  0.00    +0.000 C 
ATOM      6  C   UNL     1       1.738   2.714  21.664  0.00  0.00    +0.000 C 
ATOM      7  C   UNL     1       1.611   4.913  20.505  0.00  0.00    +0.000 C 
ATOM      8  C   UNL     1       0.927   2.861  19.278  0.00  0.00    +0.000 C 
ENDBRANCH   4   5
ENDBRANCH   3   4
ENDBRANCH   2   3
BRANCH   2   9
ATOM      9  O   UNL     1       6.176   4.300  18.727  0.00  0.00    +0.000 OA
BRANCH   9  10
ATOM     10  C   UNL     1       7.131   4.657  17.727  0.00  0.00    +0.000 C 
BRANCH  10  11
ATOM     11  C   UNL     1       7.056   6.150  17.462  0.00  0.00    +0.000 C 
BRANCH  11  12
ATOM     12  C   UNL     1       7.941   6.948  18.405  0.00  0.00    +0.000 C 
BRANCH  12  13
ATOM     13  O   UNL     1       8.253   6.154  19.547  0.00  0.00    +0.000 OA
ATOM     14  H   UNL     1       7.810   5.297  19.425  0.00  0.00    +0.000 HD
ENDBRANCH  12  13
ENDBRANCH  11  12
ENDBRANCH  10  11
ENDBRANCH   9  10
ENDBRANCH   2   9
TORSDOF 8
ENDMDL
MODEL 3
REMARK VINA RESULT:      -4.8      2.198      5.155
REMARK  Name = 
REMARK  12 active torsions:
REMARK  status: ('A' for Active; 'I' for Inactive)
REMARK    1  A    between atoms: C_1  and  C_2
REMARK    2  A    between atoms: C_2  and  C_3
REMARK    3  A    between atoms: C_2  and  O_9
REMARK    4  A    between atoms: C_3  and  O_4
REMARK    5  A    between atoms: O_4  and  C_5
REMARK    6  A    between atoms: C_5  and  C_6
REMARK    7  A    between atoms: C_5  and  C_7
REMARK    8  A    between atoms: C_5  and  C_8
REMARK    9  A    between atoms: O_9  and  C_10
REMARK   10  A    between atoms: C_10  and  C_11
REMARK   11  A    between atoms: C_11  and  C_12
REMARK   12  A    between atoms: C_12  and  O_13
REMARK                            x       y       z     vdW  Elec       q    Type
REMARK                         _______ _______ _______ _____ _____    ______ ____
ROOT
ATOM      1  C   UNL     1       5.590   4.273  15.320  0.00  0.00    +0.000 C 
ATOM      2  C   UNL     1       5.383   5.718  15.783  0.00  0.00    +0.000 C 
ENDROOT
BRANCH   2   3
ATOM      3  C   UNL     1       4.425   5.690  16.993  0.00  0.00    +0.000 C 
BRANCH   3   4
ATOM      4  O   UNL     1       4.501   4.468  17.737  0.00  0.00    +0.000 OA
BRANCH   4   5
ATOM      5  C   UNL     1       3.244   3.971  18.247  0.00  0.00    +0.000 C 
ATOM      6  C   UNL     1       3.366   3.471  19.693  0.00  0.00    +0.000 C 
ATOM      7  C   UNL     1       2.268   5.158  18.230  0.00  0.00    +0.000 C 
ATOM      8  C   UNL     1       2.670   2.870  17.342  0.00  0.00    +0.000 C 
ENDBRANCH   4   5
ENDBRANCH   3   4
ENDBRANCH   2   3
BRANCH   2   9
ATOM      9  O   UNL     1       6.637   6.300  16.181  0.00  0.00    +0.000 OA
BRANCH   9  10
ATOM     10  C   UNL     1       6.553   7.090  17.369  0.00  0.00    +0.000 C 
BRANCH  10  11
ATOM     11  C   UNL     1       7.843   6.960  18.159  0.00  0.00    +0.000 C 
BRANCH  11  12
ATOM     12  C   UNL     1       7.788   5.824  19.166  0.00  0.00    +0.000 C 
BRANCH  12  13
ATOM     13  O   UNL     1       7.397   4.623  18.507  0.00  0.00    +0.000 OA
ATOM     14  H   UNL     1       8.129   4.373  17.917  0.00  0.00    +0.000 HD
ENDBRANCH  12  13
ENDBRANCH  11  12
ENDBRANCH  10  11
ENDBRANCH   9  10
ENDBRANCH   2   9
TORSDOF 8
ENDMDL
MODEL 4
REMARK VINA RESULT:      -4.8      0.890      1.387
REMARK  Name = 
REMARK  12 active torsions:
REMARK  status: ('A' for Active; 'I' for Inactive)
REMARK    1  A    between atoms: C_1  and  C_2
REMARK    2  A    between atoms: C_2  and  C_3
REMARK    3  A    between atoms: C_2  and  O_9
REMARK    4  A    between atoms: C_3  and  O_4
REMARK    5  A    between atoms: O_4  and  C_5
REMARK    6  A    between atoms: C_5  and  C_6
REMARK    7  A    between atoms: C_5  and  C_7
REMARK    8  A    between atoms: C_5  and  C_8
REMARK    9  A    between atoms: O_9  and  C_10
REMARK   10  A    between atoms: C_10  and  C_11
REMARK   11  A    between atoms: C_11  and  C_12
REMARK   12  A    between atoms: C_12  and  O_13
REMARK                            x       y       z     vdW  Elec       q    Type
REMARK                         _______ _______ _______ _____ _____    ______ ____
ROOT
ATOM      1  C   UNL     1       3.533   2.958  17.825  0.00  0.00    +0.000 C 
ATOM      2  C   UNL     1       4.241   3.584  19.031  0.00  0.00    +0.000 C 
ENDROOT
BRANCH   2   3
ATOM      3  C   UNL     1       5.427   4.415  18.498  0.00  0.00    +0.000 C 
BRANCH   3   4
ATOM      4  O   UNL     1       5.672   4.208  17.102  0.00  0.00    +0.000 OA
BRANCH   4   5
ATOM      5  C   UNL     1       6.292   5.312  16.407  0.00  0.00    +0.000 C 
ATOM      6  C   UNL     1       7.029   4.856  15.141  0.00  0.00    +0.000 C 
ATOM      7  C   UNL     1       5.153   6.255  15.987  0.00  0.00    +0.000 C 
ATOM      8  C   UNL     1       7.239   6.093  17.332  0.00  0.00    +0.000 C 
ENDBRANCH   4   5
ENDBRANCH   3   4
ENDBRANCH   2   3
BRANCH   2   9
ATOM      9  O   UNL     1       3.338   4.445  19.748  0.00  0.00    +0.000 OA
BRANCH   9  10
ATOM     10  C   UNL     1       1.993   4.391  19.271  0.00  0.00    +0.000 C 
BRANCH  10  11
ATOM     11  C   UNL     1       1.049   4.160  20.437  0.00  0.00    +0.000 C 
BRANCH  11  12
ATOM     12  C   UNL     1       1.335   2.853  21.159  0.00  0.00    +0.000 C 
BRANCH  12  13
ATOM     13  O   UNL     1       2.276   3.085  22.204  0.00  0.00    +0.000 OA
ATOM     14  H   UNL     1       3.145   3.197  21.781  0.00  0.00    +0.000 HD
ENDBRANCH  12  13
ENDBRANCH  11  12
ENDBRANCH  10  11
ENDBRANCH   9  10
ENDBRANCH   2   9
TORSDOF 8
ENDMDL
MODEL 5
REMARK VINA RESULT:      -4.8      1.022      1.100
REMARK  Name = 
REMARK  12 active torsions:
REMARK  status: ('A' for Active; 'I' for Inactive)
REMARK    1  A    between atoms: C_1  and  C_2
REMARK    2  A    between atoms: C_2  and  C_3
REMARK    3  A    between atoms: C_2  and  O_9
REMARK    4  A    between atoms: C_3  and  O_4
REMARK    5  A    between atoms: O_4  and  C_5
REMARK    6  A    between atoms: C_5  and  C_6
REMARK    7  A    between atoms: C_5  and  C_7
REMARK    8  A    between atoms: C_5  and  C_8
REMARK    9  A    between atoms: O_9  and  C_10
REMARK   10  A    between atoms: C_10  and  C_11
REMARK   11  A    between atoms: C_11  and  C_12
REMARK   12  A    between atoms: C_12  and  O_13
REMARK                            x       y       z     vdW  Elec       q    Type
REMARK                         _______ _______ _______ _____ _____    ______ ____
ROOT
ATOM      1  C   UNL     1       3.522   1.894  18.474  0.00  0.00    +0.000 C 
ATOM      2  C   UNL     1       4.284   3.134  18.953  0.00  0.00    +0.000 C 
ENDROOT
BRANCH   2   3
ATOM      3  C   UNL     1       4.745   3.912  17.703  0.00  0.00    +0.000 C 
BRANCH   3   4
ATOM      4  O   UNL     1       5.445   5.121  18.023  0.00  0.00    +0.000 OA
BRANCH   4   5
ATOM      5  C   UNL     1       6.182   5.721  16.935  0.00  0.00    +0.000 C 
ATOM      6  C   UNL     1       7.210   6.746  17.431  0.00  0.00    +0.000 C 
ATOM      7  C   UNL     1       6.938   4.578  16.240  0.00  0.00    +0.000 C 
ATOM      8  C   UNL     1       5.236   6.360  15.906  0.00  0.00    +0.000 C 
ENDBRANCH   4   5
ENDBRANCH   3   4
ENDBRANCH   2   3
BRANCH   2   9
ATOM      9  O   UNL     1       3.427   3.972  19.748  0.00  0.00    +0.000 OA
BRANCH   9  10
ATOM     10  C   UNL     1       2.068   3.983  19.310  0.00  0.00    +0.000 C 
BRANCH  10  11
ATOM     11  C   UNL     1       1.144   3.982  20.515  0.00  0.00    +0.000 C 
BRANCH  11  12
ATOM     12  C   UNL     1       1.325   2.745  21.378  0.00  0.00    +0.000 C 
BRANCH  12  13
ATOM     13  O   UNL     1       2.486   2.898  22.190  0.00  0.00    +0.000 OA
ATOM     14  H   UNL     1       2.280   2.501  23.054  0.00  0.00    +0.000 HD
ENDBRANCH  12  13
ENDBRANCH  11  12
ENDBRANCH  10  11
ENDBRANCH   9  10
ENDBRANCH   2   9
TORSDOF 8
ENDMDL
MODEL 6
REMARK VINA RESULT:      -4.7      1.948      5.590
REMARK  Name = 
REMARK  12 active torsions:
REMARK  status: ('A' for Active; 'I' for Inactive)
REMARK    1  A    between atoms: C_1  and  C_2
REMARK    2  A    between atoms: C_2  and  C_3
REMARK    3  A    between atoms: C_2  and  O_9
REMARK    4  A    between atoms: C_3  and  O_4
REMARK    5  A    between atoms: O_4  and  C_5
REMARK    6  A    between atoms: C_5  and  C_6
REMARK    7  A    between atoms: C_5  and  C_7
REMARK    8  A    between atoms: C_5  and  C_8
REMARK    9  A    between atoms: O_9  and  C_10
REMARK   10  A    between atoms: C_10  and  C_11
REMARK   11  A    between atoms: C_11  and  C_12
REMARK   12  A    between atoms: C_12  and  O_13
REMARK                            x       y       z     vdW  Elec       q    Type
REMARK                         _______ _______ _______ _____ _____    ______ ____
ROOT
ATOM      1  C   UNL     1       4.383   4.045  16.915  0.00  0.00    +0.000 C 
ATOM      2  C   UNL     1       3.992   5.403  17.505  0.00  0.00    +0.000 C 
ENDROOT
BRANCH   2   3
ATOM      3  C   UNL     1       2.947   5.149  18.613  0.00  0.00    +0.000 C 
BRANCH   3   4
ATOM      4  O   UNL     1       3.159   3.914  19.308  0.00  0.00    +0.000 OA
BRANCH   4   5
ATOM      5  C   UNL     1       2.010   3.387  20.006  0.00  0.00    +0.000 C 
ATOM      6  C   UNL     1       1.253   2.348  19.167  0.00  0.00    +0.000 C 
ATOM      7  C   UNL     1       2.548   2.689  21.265  0.00  0.00    +0.000 C 
ATOM      8  C   UNL     1       1.064   4.512  20.453  0.00  0.00    +0.000 C 
ENDBRANCH   4   5
ENDBRANCH   3   4
ENDBRANCH   2   3
BRANCH   2   9
ATOM      9  O   UNL     1       5.143   6.052  18.075  0.00  0.00    +0.000 OA
BRANCH   9  10
ATOM     10  C   UNL     1       5.996   6.662  17.106  0.00  0.00    +0.000 C 
BRANCH  10  11
ATOM     11  C   UNL     1       7.432   6.627  17.598  0.00  0.00    +0.000 C 
BRANCH  11  12
ATOM     12  C   UNL     1       7.643   5.586  18.685  0.00  0.00    +0.000 C 
BRANCH  12  13
ATOM     13  O   UNL     1       7.730   4.294  18.093  0.00  0.00    +0.000 OA
ATOM     14  H   UNL     1       7.043   4.251  17.405  0.00  0.00    +0.000 HD
ENDBRANCH  12  13
ENDBRANCH  11  12
ENDBRANCH  10  11
ENDBRANCH   9  10
ENDBRANCH   2   9
TORSDOF 8
ENDMDL
MODEL 7
REMARK VINA RESULT:      -4.7      0.658      1.352
REMARK  Name = 
REMARK  12 active torsions:
REMARK  status: ('A' for Active; 'I' for Inactive)
REMARK    1  A    between atoms: C_1  and  C_2
REMARK    2  A    between atoms: C_2  and  C_3
REMARK    3  A    between atoms: C_2  and  O_9
REMARK    4  A    between atoms: C_3  and  O_4
REMARK    5  A    between atoms: O_4  and  C_5
REMARK    6  A    between atoms: C_5  and  C_6
REMARK    7  A    between atoms: C_5  and  C_7
REMARK    8  A    between atoms: C_5  and  C_8
REMARK    9  A    between atoms: O_9  and  C_10
REMARK   10  A    between atoms: C_10  and  C_11
REMARK   11  A    between atoms: C_11  and  C_12
REMARK   12  A    between atoms: C_12  and  O_13
REMARK                            x       y       z     vdW  Elec       q    Type
REMARK                         _______ _______ _______ _____ _____    ______ ____
ROOT
ATOM      1  C   UNL     1       3.224   2.027  17.895  0.00  0.00    +0.000 C 
ATOM      2  C   UNL     1       3.538   3.338  18.622  0.00  0.00    +0.000 C 
ENDROOT
BRANCH   2   3
ATOM      3  C   UNL     1       4.800   3.944  17.971  0.00  0.00    +0.000 C 
BRANCH   3   4
ATOM      4  O   UNL     1       4.836   3.763  16.549  0.00  0.00    +0.000 OA
BRANCH   4   5
ATOM      5  C   UNL     1       5.793   4.582  15.842  0.00  0.00    +0.000 C 
ATOM      6  C   UNL     1       5.326   6.038  15.718  0.00  0.00    +0.000 C 
ATOM      7  C   UNL     1       7.084   4.560  16.676  0.00  0.00    +0.000 C 
ATOM      8  C   UNL     1       6.112   3.997  14.458  0.00  0.00    +0.000 C 
ENDBRANCH   4   5
ENDBRANCH   3   4
ENDBRANCH   2   3
BRANCH   2   9
ATOM      9  O   UNL     1       2.442   4.260  18.489  0.00  0.00    +0.000 OA
BRANCH   9  10
ATOM     10  C   UNL     1       1.209   3.765  19.012  0.00  0.00    +0.000 C 
BRANCH  10  11
ATOM     11  C   UNL     1       1.152   4.019  20.508  0.00  0.00    +0.000 C 
BRANCH  11  12
ATOM     12  C   UNL     1       1.370   2.750  21.315  0.00  0.00    +0.000 C 
BRANCH  12  13
ATOM     13  O   UNL     1       2.511   2.912  22.154  0.00  0.00    +0.000 OA
ATOM     14  H   UNL     1       2.180   3.028  23.061  0.00  0.00    +0.000 HD
ENDBRANCH  12  13
ENDBRANCH  11  12
ENDBRANCH  10  11
ENDBRANCH   9  10
ENDBRANCH   2   9
TORSDOF 8
ENDMDL
MODEL 8
REMARK VINA RESULT:      -4.7      0.953      1.741
REMARK  Name = 
REMARK  12 active torsions:
REMARK  status: ('A' for Active; 'I' for Inactive)
REMARK    1  A    between atoms: C_1  and  C_2
REMARK    2  A    between atoms: C_2  and  C_3
REMARK    3  A    between atoms: C_2  and  O_9
REMARK    4  A    between atoms: C_3  and  O_4
REMARK    5  A    between atoms: O_4  and  C_5
REMARK    6  A    between atoms: C_5  and  C_6
REMARK    7  A    between atoms: C_5  and  C_7
REMARK    8  A    between atoms: C_5  and  C_8
REMARK    9  A    between atoms: O_9  and  C_10
REMARK   10  A    between atoms: C_10  and  C_11
REMARK   11  A    between atoms: C_11  and  C_12
REMARK   12  A    between atoms: C_12  and  O_13
REMARK                            x       y       z     vdW  Elec       q    Type
REMARK                         _______ _______ _______ _____ _____    ______ ____
ROOT
ATOM      1  C   UNL     1       3.369   1.797  18.227  0.00  0.00    +0.000 C 
ATOM      2  C   UNL     1       4.184   3.022  18.655  0.00  0.00    +0.000 C 
ENDROOT
BRANCH   2   3
ATOM      3  C   UNL     1       4.190   4.016  17.475  0.00  0.00    +0.000 C 
BRANCH   3   4
ATOM      4  O   UNL     1       5.033   3.596  16.395  0.00  0.00    +0.000 OA
BRANCH   4   5
ATOM      5  C   UNL     1       5.937   4.600  15.884  0.00  0.00    +0.000 C 
ATOM      6  C   UNL     1       5.316   6.002  15.910  0.00  0.00    +0.000 C 
ATOM      7  C   UNL     1       7.159   4.597  16.816  0.00  0.00    +0.000 C 
ATOM      8  C   UNL     1       6.419   4.249  14.468  0.00  0.00    +0.000 C 
ENDBRANCH   4   5
ENDBRANCH   3   4
ENDBRANCH   2   3
BRANCH   2   9
ATOM      9  O   UNL     1       3.582   3.647  19.803  0.00  0.00    +0.000 OA
BRANCH   9  10
ATOM     10  C   UNL     1       2.932   2.728  20.682  0.00  0.00    +0.000 C 
BRANCH  10  11
ATOM     11  C   UNL     1       1.620   3.323  21.161  0.00  0.00    +0.000 C 
BRANCH  11  12
ATOM     12  C   UNL     1       1.331   4.671  20.520  0.00  0.00    +0.000 C 
BRANCH  12  13
ATOM     13  O   UNL     1       2.188   5.658  21.085  0.00  0.00    +0.000 OA
ATOM     14  H   UNL     1       1.685   6.097  21.793  0.00  0.00    +0.000 HD
ENDBRANCH  12  13
ENDBRANCH  11  12
ENDBRANCH  10  11
ENDBRANCH   9  10
ENDBRANCH   2   9
TORSDOF 8
ENDMDL
MODEL 9
REMARK VINA RESULT:      -4.7      1.610      5.878
REMARK  Name = 
REMARK  12 active torsions:
REMARK  status: ('A' for Active; 'I' for Inactive)
REMARK    1  A    between atoms: C_1  and  C_2
REMARK    2  A    between atoms: C_2  and  C_3
REMARK    3  A    between atoms: C_2  and  O_9
REMARK    4  A    between atoms: C_3  and  O_4
REMARK    5  A    between atoms: O_4  and  C_5
REMARK    6  A    between atoms: C_5  and  C_6
REMARK    7  A    between atoms: C_5  and  C_7
REMARK    8  A    between atoms: C_5  and  C_8
REMARK    9  A    between atoms: O_9  and  C_10
REMARK   10  A    between atoms: C_10  and  C_11
REMARK   11  A    between atoms: C_11  and  C_12
REMARK   12  A    between atoms: C_12  and  O_13
REMARK                            x       y       z     vdW  Elec       q    Type
REMARK                         _______ _______ _______ _____ _____    ______ ____
ROOT
ATOM      1  C   UNL     1       3.448   6.770  17.868  0.00  0.00    +0.000 C 
ATOM      2  C   UNL     1       4.280   5.553  18.287  0.00  0.00    +0.000 C 
ENDROOT
BRANCH   2   3
ATOM      3  C   UNL     1       3.333   4.336  18.342  0.00  0.00    +0.000 C 
BRANCH   3   4
ATOM      4  O   UNL     1       3.320   3.695  19.624  0.00  0.00    +0.000 OA
BRANCH   4   5
ATOM      5  C   UNL     1       2.030   3.621  20.270  0.00  0.00    +0.000 C 
ATOM      6  C   UNL     1       1.465   5.012  20.590  0.00  0.00    +0.000 C 
ATOM      7  C   UNL     1       1.083   2.936  19.273  0.00  0.00    +0.000 C 
ATOM      8  C   UNL     1       2.090   2.758  21.539  0.00  0.00    +0.000 C 
ENDBRANCH   4   5
ENDBRANCH   3   4
ENDBRANCH   2   3
BRANCH   2   9
ATOM      9  O   UNL     1       5.321   5.304  17.326  0.00  0.00    +0.000 OA
BRANCH   9  10
ATOM     10  C   UNL     1       5.191   4.053  16.650  0.00  0.00    +0.000 C 
BRANCH  10  11
ATOM     11  C   UNL     1       5.654   4.201  15.212  0.00  0.00    +0.000 C 
BRANCH  11  12
ATOM     12  C   UNL     1       7.036   4.826  15.113  0.00  0.00    +0.000 C 
BRANCH  12  13
ATOM     13  O   UNL     1       7.811   4.443  16.246  0.00  0.00    +0.000 OA
ATOM     14  H   UNL     1       8.032   3.503  16.132  0.00  0.00    +0.000 HD
ENDBRANCH  12  13
ENDBRANCH  11  12
ENDBRANCH  10  11
ENDBRANCH   9  10
ENDBRANCH   2   9
TORSDOF 8
ENDMDL
