MODEL 1
REMARK VINA RESULT:      -7.7      0.000      0.000
REMARK  Name = 
REMARK  6 active torsions:
REMARK  status: ('A' for Active; 'I' for Inactive)
REMARK    1  A    between atoms: C_1  and  C_2
REMARK    2  A    between atoms: C_6  and  C_7
REMARK    3  A    between atoms: C_7  and  O_9
REMARK    4  A    between atoms: C_10  and  O_11
REMARK    5  A    between atoms: C_12  and  C_13
REMARK    6  A    between atoms: C_22  and  C_23
REMARK                            x       y       z     vdW  Elec       q    Type
REMARK                         _______ _______ _______ _____ _____    ______ ____
ROOT
ATOM      1  C   UNL     1       6.204   4.373  14.640  0.00  0.00    +0.000 C 
ATOM      2  C   UNL     1       5.319   4.349  15.859  0.00  0.00    +0.000 A 
ATOM      3  C   UNL     1       4.979   3.122  16.419  0.00  0.00    +0.000 A 
ATOM      4  C   UNL     1       4.158   3.071  17.542  0.00  0.00    +0.000 A 
ATOM      5  C   UNL     1       3.618   4.244  18.120  0.00  0.00    +0.000 A 
ATOM      6  C   UNL     1       2.750   4.253  19.243  0.00  0.00    +0.000 A 
ATOM      7  C   UNL     1       2.220   5.455  19.730  0.00  0.00    +0.000 A 
ATOM      8  C   UNL     1       2.561   6.640  19.087  0.00  0.00    +0.000 A 
ATOM      9  N   UNL     1       3.443   6.641  18.051  0.00  0.00    +0.000 NA
ATOM     10  C   UNL     1       3.958   5.493  17.561  0.00  0.00    +0.000 A 
ATOM     11  C   UNL     1       4.830   5.537  16.453  0.00  0.00    +0.000 A 
ATOM     12  C   UNL     1       5.257   6.870  15.877  0.00  0.00    +0.000 C 
ENDROOT
BRANCH   8  13
ATOM     13  C   UNL     1       1.947   7.963  19.370  0.00  0.00    +0.000 A 
ATOM     14  C   UNL     1       1.728   8.901  18.342  0.00  0.00    +0.000 A 
ATOM     15  C   UNL     1       1.075  10.118  18.584  0.00  0.00    +0.000 A 
ATOM     16  C   UNL     1       0.629  10.420  19.867  0.00  0.00    +0.000 A 
ATOM     17 BR   UNL     1      -0.289  12.039  20.194  0.00  0.00    +0.000 Br
ATOM     18  C   UNL     1       0.833   9.523  20.907  0.00  0.00    +0.000 A 
ATOM     19  C   UNL     1       1.479   8.308  20.655  0.00  0.00    +0.000 A 
ENDBRANCH   8  13
BRANCH   6  20
ATOM     20  C   UNL     1       2.328   2.979  19.880  0.00  0.00    +0.000 C 
ATOM     21  O   UNL     1       1.507   2.220  19.400  0.00  0.00    +0.000 OA
BRANCH  20  22
ATOM     22  O   UNL     1       2.889   2.776  21.093  0.00  0.00    +0.000 OA
ATOM     23  H   UNL     1       3.466   1.985  21.160  0.00  0.00    +0.000 HD
ENDBRANCH  20  22
ENDBRANCH   6  20
BRANCH   7  24
ATOM     24  O   UNL     1       1.391   5.479  20.825  0.00  0.00    +0.000 OA
ATOM     25  H   UNL     1       0.550   5.031  20.616  0.00  0.00    +0.000 HD
ENDBRANCH   7  24
TORSDOF 4
ENDMDL
MODEL 2
REMARK VINA RESULT:      -7.7      3.005      6.077
REMARK  Name = 
REMARK  6 active torsions:
REMARK  status: ('A' for Active; 'I' for Inactive)
REMARK    1  A    between atoms: C_1  and  C_2
REMARK    2  A    between atoms: C_6  and  C_7
REMARK    3  A    between atoms: C_7  and  O_9
REMARK    4  A    between atoms: C_10  and  O_11
REMARK    5  A    between atoms: C_12  and  C_13
REMARK    6  A    between atoms: C_22  and  C_23
REMARK                            x       y       z     vdW  Elec       q    Type
REMARK                         _______ _______ _______ _____ _____    ______ ____
ROOT
ATOM      1  C   UNL     1       0.983   9.248  20.501  0.00  0.00    +0.000 C 
ATOM      2  C   UNL     1       1.493   7.859  20.216  0.00  0.00    +0.000 A 
ATOM      3  C   UNL     1       1.215   6.841  21.122  0.00  0.00    +0.000 A 
ATOM      4  C   UNL     1       1.679   5.550  20.887  0.00  0.00    +0.000 A 
ATOM      5  C   UNL     1       2.470   5.242  19.755  0.00  0.00    +0.000 A 
ATOM      6  C   UNL     1       2.998   3.954  19.479  0.00  0.00    +0.000 A 
ATOM      7  C   UNL     1       3.812   3.738  18.359  0.00  0.00    +0.000 A 
ATOM      8  C   UNL     1       4.092   4.814  17.523  0.00  0.00    +0.000 A 
ATOM      9  N   UNL     1       3.534   6.034  17.750  0.00  0.00    +0.000 NA
ATOM     10  C   UNL     1       2.756   6.266  18.828  0.00  0.00    +0.000 A 
ATOM     11  C   UNL     1       2.239   7.559  19.051  0.00  0.00    +0.000 A 
ATOM     12  C   UNL     1       2.482   8.657  18.037  0.00  0.00    +0.000 C 
ENDROOT
BRANCH   8  13
ATOM     13  C   UNL     1       5.071   4.786  16.407  0.00  0.00    +0.000 A 
ATOM     14  C   UNL     1       4.738   4.227  15.157  0.00  0.00    +0.000 A 
ATOM     15  C   UNL     1       5.626   4.268  14.073  0.00  0.00    +0.000 A 
ATOM     16  C   UNL     1       6.870   4.872  14.221  0.00  0.00    +0.000 A 
ATOM     17 BR   UNL     1       8.057   4.970  12.753  0.00  0.00    +0.000 Br
ATOM     18  C   UNL     1       7.237   5.428  15.439  0.00  0.00    +0.000 A 
ATOM     19  C   UNL     1       6.343   5.388  16.514  0.00  0.00    +0.000 A 
ENDBRANCH   8  13
BRANCH   6  20
ATOM     20  C   UNL     1       2.760   2.825  20.413  0.00  0.00    +0.000 C 
ATOM     21  O   UNL     1       1.675   2.299  20.580  0.00  0.00    +0.000 OA
BRANCH  20  22
ATOM     22  O   UNL     1       3.855   2.481  21.128  0.00  0.00    +0.000 OA
ATOM     23  H   UNL     1       3.911   2.875  22.025  0.00  0.00    +0.000 HD
ENDBRANCH  20  22
ENDBRANCH   6  20
BRANCH   7  24
ATOM     24  O   UNL     1       4.317   2.493  18.072  0.00  0.00    +0.000 OA
ATOM     25  H   UNL     1       5.164   2.362  18.538  0.00  0.00    +0.000 HD
ENDBRANCH   7  24
TORSDOF 4
ENDMDL
MODEL 3
REMARK VINA RESULT:      -7.6      0.939      1.564
REMARK  Name = 
REMARK  6 active torsions:
REMARK  status: ('A' for Active; 'I' for Inactive)
REMARK    1  A    between atoms: C_1  and  C_2
REMARK    2  A    between atoms: C_6  and  C_7
REMARK    3  A    between atoms: C_7  and  O_9
REMARK    4  A    between atoms: C_10  and  O_11
REMARK    5  A    between atoms: C_12  and  C_13
REMARK    6  A    between atoms: C_22  and  C_23
REMARK                            x       y       z     vdW  Elec       q    Type
REMARK                         _______ _______ _______ _____ _____    ______ ____
ROOT
ATOM      1  C   UNL     1       5.794   3.856  15.433  0.00  0.00    +0.000 C 
ATOM      2  C   UNL     1       4.901   4.152  16.609  0.00  0.00    +0.000 A 
ATOM      3  C   UNL     1       4.469   3.099  17.409  0.00  0.00    +0.000 A 
ATOM      4  C   UNL     1       3.638   3.343  18.498  0.00  0.00    +0.000 A 
ATOM      5  C   UNL     1       3.181   4.648  18.803  0.00  0.00    +0.000 A 
ATOM      6  C   UNL     1       2.308   4.954  19.880  0.00  0.00    +0.000 A 
ATOM      7  C   UNL     1       1.862   6.266  20.090  0.00  0.00    +0.000 A 
ATOM      8  C   UNL     1       2.293   7.261  19.218  0.00  0.00    +0.000 A 
ATOM      9  N   UNL     1       3.180   6.981  18.226  0.00  0.00    +0.000 NA
ATOM     10  C   UNL     1       3.614   5.723  18.001  0.00  0.00    +0.000 A 
ATOM     11  C   UNL     1       4.495   5.470  16.929  0.00  0.00    +0.000 A 
ATOM     12  C   UNL     1       5.021   6.618  16.094  0.00  0.00    +0.000 C 
ENDROOT
BRANCH   8  13
ATOM     13  C   UNL     1       1.774   8.653  19.203  0.00  0.00    +0.000 A 
ATOM     14  C   UNL     1       1.122   9.202  20.324  0.00  0.00    +0.000 A 
ATOM     15  C   UNL     1       0.701  10.539  20.349  0.00  0.00    +0.000 A 
ATOM     16  C   UNL     1       0.927  11.356  19.246  0.00  0.00    +0.000 A 
ATOM     17 BR   UNL     1       0.402  13.170  19.286  0.00  0.00    +0.000 Br
ATOM     18  C   UNL     1       1.562  10.849  18.120  0.00  0.00    +0.000 A 
ATOM     19  C   UNL     1       1.984   9.515  18.105  0.00  0.00    +0.000 A 
ENDBRANCH   8  13
BRANCH   6  20
ATOM     20  C   UNL     1       1.790   3.877  20.761  0.00  0.00    +0.000 C 
ATOM     21  O   UNL     1       2.442   3.349  21.643  0.00  0.00    +0.000 OA
BRANCH  20  22
ATOM     22  O   UNL     1       0.539   3.477  20.439  0.00  0.00    +0.000 OA
ATOM     23  H   UNL     1       0.224   3.758  19.554  0.00  0.00    +0.000 HD
ENDBRANCH  20  22
ENDBRANCH   6  20
BRANCH   7  24
ATOM     24  O   UNL     1       1.029   6.579  21.136  0.00  0.00    +0.000 OA
ATOM     25  H   UNL     1       1.224   6.005  21.900  0.00  0.00    +0.000 HD
ENDBRANCH   7  24
TORSDOF 4
ENDMDL
MODEL 4
REMARK VINA RESULT:      -7.6      0.931      1.110
REMARK  Name = 
REMARK  6 active torsions:
REMARK  status: ('A' for Active; 'I' for Inactive)
REMARK    1  A    between atoms: C_1  and  C_2
REMARK    2  A    between atoms: C_6  and  C_7
REMARK    3  A    between atoms: C_7  and  O_9
REMARK    4  A    between atoms: C_10  and  O_11
REMARK    5  A    between atoms: C_12  and  C_13
REMARK    6  A    between atoms: C_22  and  C_23
REMARK                            x       y       z     vdW  Elec       q    Type
REMARK                         _______ _______ _______ _____ _____    ______ ____
ROOT
ATOM      1  C   UNL     1       7.090   4.974  15.037  0.00  0.00    +0.000 C 
ATOM      2  C   UNL     1       5.943   4.709  15.976  0.00  0.00    +0.000 A 
ATOM      3  C   UNL     1       5.421   3.421  16.056  0.00  0.00    +0.000 A 
ATOM      4  C   UNL     1       4.357   3.150  16.910  0.00  0.00    +0.000 A 
ATOM      5  C   UNL     1       3.752   4.167  17.687  0.00  0.00    +0.000 A 
ATOM      6  C   UNL     1       2.646   3.958  18.551  0.00  0.00    +0.000 A 
ATOM      7  C   UNL     1       2.074   5.027  19.254  0.00  0.00    +0.000 A 
ATOM      8  C   UNL     1       2.614   6.298  19.085  0.00  0.00    +0.000 A 
ATOM      9  N   UNL     1       3.714   6.488  18.309  0.00  0.00    +0.000 NA
ATOM     10  C   UNL     1       4.274   5.475  17.616  0.00  0.00    +0.000 A 
ATOM     11  C   UNL     1       5.385   5.728  16.784  0.00  0.00    +0.000 A 
ATOM     12  C   UNL     1       5.999   7.112  16.741  0.00  0.00    +0.000 C 
ENDROOT
BRANCH   8  13
ATOM     13  C   UNL     1       2.014   7.548  19.618  0.00  0.00    +0.000 A 
ATOM     14  C   UNL     1       1.710   8.631  18.769  0.00  0.00    +0.000 A 
ATOM     15  C   UNL     1       1.070   9.783  19.248  0.00  0.00    +0.000 A 
ATOM     16  C   UNL     1       0.721   9.873  20.591  0.00  0.00    +0.000 A 
ATOM     17 BR   UNL     1      -0.179  11.403  21.237  0.00  0.00    +0.000 Br
ATOM     18  C   UNL     1       1.010   8.828  21.460  0.00  0.00    +0.000 A 
ATOM     19  C   UNL     1       1.643   7.680  20.973  0.00  0.00    +0.000 A 
ENDBRANCH   8  13
BRANCH   6  20
ATOM     20  C   UNL     1       2.024   2.615  18.669  0.00  0.00    +0.000 C 
ATOM     21  O   UNL     1       2.598   1.638  19.114  0.00  0.00    +0.000 OA
BRANCH  20  22
ATOM     22  O   UNL     1       0.773   2.557  18.159  0.00  0.00    +0.000 OA
ATOM     23  H   UNL     1       0.113   3.129  18.604  0.00  0.00    +0.000 HD
ENDBRANCH  20  22
ENDBRANCH   6  20
BRANCH   7  24
ATOM     24  O   UNL     1       1.011   4.836  20.103  0.00  0.00    +0.000 OA
ATOM     25  H   UNL     1       1.080   5.443  20.864  0.00  0.00    +0.000 HD
ENDBRANCH   7  24
TORSDOF 4
ENDMDL
MODEL 5
REMARK VINA RESULT:      -7.6      0.891      1.176
REMARK  Name = 
REMARK  6 active torsions:
REMARK  status: ('A' for Active; 'I' for Inactive)
REMARK    1  A    between atoms: C_1  and  C_2
REMARK    2  A    between atoms: C_6  and  C_7
REMARK    3  A    between atoms: C_7  and  O_9
REMARK    4  A    between atoms: C_10  and  O_11
REMARK    5  A    between atoms: C_12  and  C_13
REMARK    6  A    between atoms: C_22  and  C_23
REMARK                            x       y       z     vdW  Elec       q    Type
REMARK                         _______ _______ _______ _____ _____    ______ ____
ROOT
ATOM      1  C   UNL     1       5.851   3.757  15.537  0.00  0.00    +0.000 C 
ATOM      2  C   UNL     1       4.938   4.049  16.699  0.00  0.00    +0.000 A 
ATOM      3  C   UNL     1       4.473   2.991  17.473  0.00  0.00    +0.000 A 
ATOM      4  C   UNL     1       3.623   3.233  18.548  0.00  0.00    +0.000 A 
ATOM      5  C   UNL     1       3.178   4.539  18.863  0.00  0.00    +0.000 A 
ATOM      6  C   UNL     1       2.287   4.843  19.925  0.00  0.00    +0.000 A 
ATOM      7  C   UNL     1       1.856   6.158  20.144  0.00  0.00    +0.000 A 
ATOM      8  C   UNL     1       2.320   7.160  19.297  0.00  0.00    +0.000 A 
ATOM      9  N   UNL     1       3.224   6.880  18.320  0.00  0.00    +0.000 NA
ATOM     10  C   UNL     1       3.644   5.619  18.085  0.00  0.00    +0.000 A 
ATOM     11  C   UNL     1       4.545   5.369  17.029  0.00  0.00    +0.000 A 
ATOM     12  C   UNL     1       5.105   6.520  16.222  0.00  0.00    +0.000 C 
ENDROOT
BRANCH   8  13
ATOM     13  C   UNL     1       1.822   8.559  19.290  0.00  0.00    +0.000 A 
ATOM     14  C   UNL     1       1.868   9.344  18.121  0.00  0.00    +0.000 A 
ATOM     15  C   UNL     1       1.327  10.637  18.082  0.00  0.00    +0.000 A 
ATOM     16  C   UNL     1       0.728  11.171  19.219  0.00  0.00    +0.000 A 
ATOM     17 BR   UNL     1      -0.042  12.896  19.165  0.00  0.00    +0.000 Br
ATOM     18  C   UNL     1       0.670  10.429  20.392  0.00  0.00    +0.000 A 
ATOM     19  C   UNL     1       1.206   9.138  20.420  0.00  0.00    +0.000 A 
ENDBRANCH   8  13
BRANCH   6  20
ATOM     20  C   UNL     1       1.735   3.762  20.779  0.00  0.00    +0.000 C 
ATOM     21  O   UNL     1       2.341   3.247  21.700  0.00  0.00    +0.000 OA
BRANCH  20  22
ATOM     22  O   UNL     1       0.511   3.342  20.386  0.00  0.00    +0.000 OA
ATOM     23  H   UNL     1       0.370   3.311  19.416  0.00  0.00    +0.000 HD
ENDBRANCH  20  22
ENDBRANCH   6  20
BRANCH   7  24
ATOM     24  O   UNL     1       1.006   6.469  21.177  0.00  0.00    +0.000 OA
ATOM     25  H   UNL     1       0.878   7.435  21.225  0.00  0.00    +0.000 HD
ENDBRANCH   7  24
TORSDOF 4
ENDMDL
MODEL 6
REMARK VINA RESULT:      -7.5      0.205      1.024
REMARK  Name = 
REMARK  6 active torsions:
REMARK  status: ('A' for Active; 'I' for Inactive)
REMARK    1  A    between atoms: C_1  and  C_2
REMARK    2  A    between atoms: C_6  and  C_7
REMARK    3  A    between atoms: C_7  and  O_9
REMARK    4  A    between atoms: C_10  and  O_11
REMARK    5  A    between atoms: C_12  and  C_13
REMARK    6  A    between atoms: C_22  and  C_23
REMARK                            x       y       z     vdW  Elec       q    Type
REMARK                         _______ _______ _______ _____ _____    ______ ____
ROOT
ATOM      1  C   UNL     1       6.252   4.581  14.598  0.00  0.00    +0.000 C 
ATOM      2  C   UNL     1       5.377   4.491  15.820  0.00  0.00    +0.000 A 
ATOM      3  C   UNL     1       5.100   3.239  16.359  0.00  0.00    +0.000 A 
ATOM      4  C   UNL     1       4.289   3.127  17.485  0.00  0.00    +0.000 A 
ATOM      5  C   UNL     1       3.695   4.262  18.087  0.00  0.00    +0.000 A 
ATOM      6  C   UNL     1       2.834   4.207  19.214  0.00  0.00    +0.000 A 
ATOM      7  C   UNL     1       2.248   5.372  19.726  0.00  0.00    +0.000 A 
ATOM      8  C   UNL     1       2.528   6.584  19.103  0.00  0.00    +0.000 A 
ATOM      9  N   UNL     1       3.403   6.647  18.064  0.00  0.00    +0.000 NA
ATOM     10  C   UNL     1       3.970   5.536  17.550  0.00  0.00    +0.000 A 
ATOM     11  C   UNL     1       4.833   5.643  16.439  0.00  0.00    +0.000 A 
ATOM     12  C   UNL     1       5.191   7.006  15.886  0.00  0.00    +0.000 C 
ENDROOT
BRANCH   8  13
ATOM     13  C   UNL     1       1.851   7.870  19.414  0.00  0.00    +0.000 A 
ATOM     14  C   UNL     1       1.458   8.188  20.729  0.00  0.00    +0.000 A 
ATOM     15  C   UNL     1       0.894   9.431  21.048  0.00  0.00    +0.000 A 
ATOM     16  C   UNL     1       0.710  10.384  20.050  0.00  0.00    +0.000 A 
ATOM     17 BR   UNL     1      -0.011  12.077  20.476  0.00  0.00    +0.000 Br
ATOM     18  C   UNL     1       1.080  10.103  18.741  0.00  0.00    +0.000 A 
ATOM     19  C   UNL     1       1.648   8.863  18.433  0.00  0.00    +0.000 A 
ENDBRANCH   8  13
BRANCH   6  20
ATOM     20  C   UNL     1       2.479   2.902  19.829  0.00  0.00    +0.000 C 
ATOM     21  O   UNL     1       1.470   2.277  19.559  0.00  0.00    +0.000 OA
BRANCH  20  22
ATOM     22  O   UNL     1       3.349   2.506  20.784  0.00  0.00    +0.000 OA
ATOM     23  H   UNL     1       3.023   2.581  21.706  0.00  0.00    +0.000 HD
ENDBRANCH  20  22
ENDBRANCH   6  20
BRANCH   7  24
ATOM     24  O   UNL     1       1.425   5.335  20.825  0.00  0.00    +0.000 OA
ATOM     25  H   UNL     1       1.398   6.212  21.250  0.00  0.00    +0.000 HD
ENDBRANCH   7  24
TORSDOF 4
ENDMDL
MODEL 7
REMARK VINA RESULT:      -7.5      2.864      6.103
REMARK  Name = 
REMARK  6 active torsions:
REMARK  status: ('A' for Active; 'I' for Inactive)
REMARK    1  A    between atoms: C_1  and  C_2
REMARK    2  A    between atoms: C_6  and  C_7
REMARK    3  A    between atoms: C_7  and  O_9
REMARK    4  A    between atoms: C_10  and  O_11
REMARK    5  A    between atoms: C_12  and  C_13
REMARK    6  A    between atoms: C_22  and  C_23
REMARK                            x       y       z     vdW  Elec       q    Type
REMARK                         _______ _______ _______ _____ _____    ______ ____
ROOT
ATOM      1  C   UNL     1       0.717  10.534  20.437  0.00  0.00    +0.000 C 
ATOM      2  C   UNL     1       1.078   9.077  20.315  0.00  0.00    +0.000 A 
ATOM      3  C   UNL     1       0.679   8.198  21.317  0.00  0.00    +0.000 A 
ATOM      4  C   UNL     1       1.005   6.847  21.233  0.00  0.00    +0.000 A 
ATOM      5  C   UNL     1       1.775   6.336  20.160  0.00  0.00    +0.000 A 
ATOM      6  C   UNL     1       2.165   4.977  20.037  0.00  0.00    +0.000 A 
ATOM      7  C   UNL     1       2.967   4.556  18.968  0.00  0.00    +0.000 A 
ATOM      8  C   UNL     1       3.373   5.500  18.030  0.00  0.00    +0.000 A 
ATOM      9  N   UNL     1       2.947   6.789  18.111  0.00  0.00    +0.000 NA
ATOM     10  C   UNL     1       2.183   7.217  19.138  0.00  0.00    +0.000 A 
ATOM     11  C   UNL     1       1.805   8.575  19.209  0.00  0.00    +0.000 A 
ATOM     12  C   UNL     1       2.180   9.525  18.091  0.00  0.00    +0.000 C 
ENDROOT
BRANCH   8  13
ATOM     13  C   UNL     1       4.361   5.248  16.949  0.00  0.00    +0.000 A 
ATOM     14  C   UNL     1       4.676   3.937  16.540  0.00  0.00    +0.000 A 
ATOM     15  C   UNL     1       5.543   3.689  15.468  0.00  0.00    +0.000 A 
ATOM     16  C   UNL     1       6.116   4.756  14.781  0.00  0.00    +0.000 A 
ATOM     17 BR   UNL     1       7.253   4.434  13.307  0.00  0.00    +0.000 Br
ATOM     18  C   UNL     1       5.834   6.062  15.159  0.00  0.00    +0.000 A 
ATOM     19  C   UNL     1       4.961   6.300  16.227  0.00  0.00    +0.000 A 
ENDBRANCH   8  13
BRANCH   6  20
ATOM     20  C   UNL     1       1.793   3.988  21.079  0.00  0.00    +0.000 C 
ATOM     21  O   UNL     1       2.429   3.806  22.101  0.00  0.00    +0.000 OA
BRANCH  20  22
ATOM     22  O   UNL     1       0.713   3.244  20.750  0.00  0.00    +0.000 OA
ATOM     23  H   UNL     1      -0.009   3.236  21.414  0.00  0.00    +0.000 HD
ENDBRANCH  20  22
ENDBRANCH   6  20
BRANCH   7  24
ATOM     24  O   UNL     1       3.340   3.242  18.828  0.00  0.00    +0.000 OA
ATOM     25  H   UNL     1       3.212   2.955  17.905  0.00  0.00    +0.000 HD
ENDBRANCH   7  24
TORSDOF 4
ENDMDL
MODEL 8
REMARK VINA RESULT:      -7.2      3.032      6.157
REMARK  Name = 
REMARK  6 active torsions:
REMARK  status: ('A' for Active; 'I' for Inactive)
REMARK    1  A    between atoms: C_1  and  C_2
REMARK    2  A    between atoms: C_6  and  C_7
REMARK    3  A    between atoms: C_7  and  O_9
REMARK    4  A    between atoms: C_10  and  O_11
REMARK    5  A    between atoms: C_12  and  C_13
REMARK    6  A    between atoms: C_22  and  C_23
REMARK                            x       y       z     vdW  Elec       q    Type
REMARK                         _______ _______ _______ _____ _____    ______ ____
ROOT
ATOM      1  C   UNL     1       0.950   9.107  20.705  0.00  0.00    +0.000 C 
ATOM      2  C   UNL     1       1.459   7.743  20.320  0.00  0.00    +0.000 A 
ATOM      3  C   UNL     1       1.193   6.664  21.156  0.00  0.00    +0.000 A 
ATOM      4  C   UNL     1       1.657   5.394  20.828  0.00  0.00    +0.000 A 
ATOM      5  C   UNL     1       2.438   5.167  19.669  0.00  0.00    +0.000 A 
ATOM      6  C   UNL     1       2.966   3.902  19.300  0.00  0.00    +0.000 A 
ATOM      7  C   UNL     1       3.769   3.766  18.160  0.00  0.00    +0.000 A 
ATOM      8  C   UNL     1       4.038   4.899  17.399  0.00  0.00    +0.000 A 
ATOM      9  N   UNL     1       3.480   6.098  17.714  0.00  0.00    +0.000 NA
ATOM     10  C   UNL     1       2.712   6.253  18.813  0.00  0.00    +0.000 A 
ATOM     11  C   UNL     1       2.195   7.526  19.130  0.00  0.00    +0.000 A 
ATOM     12  C   UNL     1       2.426   8.692  18.192  0.00  0.00    +0.000 C 
ENDROOT
BRANCH   8  13
ATOM     13  C   UNL     1       5.007   4.950  16.274  0.00  0.00    +0.000 A 
ATOM     14  C   UNL     1       6.284   5.524  16.436  0.00  0.00    +0.000 A 
ATOM     15  C   UNL     1       7.235   5.505  15.406  0.00  0.00    +0.000 A 
ATOM     16  C   UNL     1       6.924   4.908  14.188  0.00  0.00    +0.000 A 
ATOM     17 BR   UNL     1       8.213   4.839  12.809  0.00  0.00    +0.000 Br
ATOM     18  C   UNL     1       5.674   4.337  13.989  0.00  0.00    +0.000 A 
ATOM     19  C   UNL     1       4.733   4.355  15.024  0.00  0.00    +0.000 A 
ENDBRANCH   8  13
BRANCH   6  20
ATOM     20  C   UNL     1       2.739   2.711  20.157  0.00  0.00    +0.000 C 
ATOM     21  O   UNL     1       3.351   2.486  21.185  0.00  0.00    +0.000 OA
BRANCH  20  22
ATOM     22  O   UNL     1       1.833   1.848  19.645  0.00  0.00    +0.000 OA
ATOM     23  H   UNL     1       1.251   1.411  20.303  0.00  0.00    +0.000 HD
ENDBRANCH  20  22
ENDBRANCH   6  20
BRANCH   7  24
ATOM     24  O   UNL     1       4.274   2.546  17.783  0.00  0.00    +0.000 OA
ATOM     25  H   UNL     1       4.977   2.667  17.119  0.00  0.00    +0.000 HD
ENDBRANCH   7  24
TORSDOF 4
ENDMDL
MODEL 9
REMARK VINA RESULT:      -7.0      2.659      3.760
REMARK  Name = 
REMARK  6 active torsions:
REMARK  status: ('A' for Active; 'I' for Inactive)
REMARK    1  A    between atoms: C_1  and  C_2
REMARK    2  A    between atoms: C_6  and  C_7
REMARK    3  A    between atoms: C_7  and  O_9
REMARK    4  A    between atoms: C_10  and  O_11
REMARK    5  A    between atoms: C_12  and  C_13
REMARK    6  A    between atoms: C_22  and  C_23
REMARK                            x       y       z     vdW  Elec       q    Type
REMARK                         _______ _______ _______ _____ _____    ______ ____
ROOT
ATOM      1  C   UNL     1       2.617   1.293  18.939  0.00  0.00    +0.000 C 
ATOM      2  C   UNL     1       2.944   2.697  18.500  0.00  0.00    +0.000 A 
ATOM      3  C   UNL     1       3.982   2.895  17.594  0.00  0.00    +0.000 A 
ATOM      4  C   UNL     1       4.309   4.181  17.177  0.00  0.00    +0.000 A 
ATOM      5  C   UNL     1       3.633   5.319  17.681  0.00  0.00    +0.000 A 
ATOM      6  C   UNL     1       3.944   6.655  17.318  0.00  0.00    +0.000 A 
ATOM      7  C   UNL     1       3.258   7.732  17.896  0.00  0.00    +0.000 A 
ATOM      8  C   UNL     1       2.268   7.462  18.835  0.00  0.00    +0.000 A 
ATOM      9  N   UNL     1       1.925   6.180  19.135  0.00  0.00    +0.000 NA
ATOM     10  C   UNL     1       2.579   5.129  18.598  0.00  0.00    +0.000 A 
ATOM     11  C   UNL     1       2.223   3.818  18.976  0.00  0.00    +0.000 A 
ATOM     12  C   UNL     1       1.054   3.590  19.911  0.00  0.00    +0.000 C 
ENDROOT
BRANCH   8  13
ATOM     13  C   UNL     1       1.581   8.490  19.659  0.00  0.00    +0.000 A 
ATOM     14  C   UNL     1       0.956   9.604  19.064  0.00  0.00    +0.000 A 
ATOM     15  C   UNL     1       0.236  10.536  19.824  0.00  0.00    +0.000 A 
ATOM     16  C   UNL     1       0.128  10.369  21.201  0.00  0.00    +0.000 A 
ATOM     17 BR   UNL     1      -0.876  11.597  22.229  0.00  0.00    +0.000 Br
ATOM     18  C   UNL     1       0.735   9.287  21.824  0.00  0.00    +0.000 A 
ATOM     19  C   UNL     1       1.447   8.358  21.057  0.00  0.00    +0.000 A 
ENDBRANCH   8  13
BRANCH   6  20
ATOM     20  C   UNL     1       5.052   6.942  16.373  0.00  0.00    +0.000 C 
ATOM     21  O   UNL     1       4.953   6.858  15.163  0.00  0.00    +0.000 OA
BRANCH  20  22
ATOM     22  O   UNL     1       6.220   7.234  16.991  0.00  0.00    +0.000 OA
ATOM     23  H   UNL     1       6.141   7.494  17.933  0.00  0.00    +0.000 HD
ENDBRANCH  20  22
ENDBRANCH   6  20
BRANCH   7  24
ATOM     24  O   UNL     1       3.538   9.029  17.544  0.00  0.00    +0.000 OA
ATOM     25  H   UNL     1       2.933   9.638  18.006  0.00  0.00    +0.000 HD
ENDBRANCH   7  24
TORSDOF 4
ENDMDL
