MODEL 1
REMARK VINA RESULT:      -8.2      0.000      0.000
REMARK  Name = 
REMARK  5 active torsions:
REMARK  status: ('A' for Active; 'I' for Inactive)
REMARK    1  A    between atoms: C_1  and  O_2
REMARK    2  A    between atoms: O_2  and  C_3
REMARK    3  A    between atoms: C_6  and  C_7
REMARK    4  A    between atoms: C_17  and  O_18
REMARK    5  A    between atoms: O_18  and  C_19
REMARK                            x       y       z     vdW  Elec       q    Type
REMARK                         _______ _______ _______ _____ _____    ______ ____
ROOT
ATOM      1  C   UNL     1       2.489   6.380  18.108  0.00  0.00    +0.000 C 
ATOM      2  O   UNL     1       1.885   5.374  18.934  0.00  0.00    +0.000 OA
ATOM      3  C   UNL     1       2.276   4.089  18.637  0.00  0.00    +0.000 A 
ATOM      4  C   UNL     1       1.445   3.078  19.134  0.00  0.00    +0.000 A 
ATOM      5  C   UNL     1       1.834   1.746  19.034  0.00  0.00    +0.000 A 
ATOM      6  C   UNL     1       3.054   1.425  18.449  0.00  0.00    +0.000 A 
ATOM      7  C   UNL     1       3.860   2.436  17.908  0.00  0.00    +0.000 A 
ATOM      8  C   UNL     1       3.475   3.788  17.955  0.00  0.00    +0.000 A 
ATOM      9  C   UNL     1       4.336   4.879  17.483  0.00  0.00    +0.000 A 
ATOM     10  C   UNL     1       5.461   4.722  16.667  0.00  0.00    +0.000 A 
ATOM     11  C   UNL     1       6.301   5.802  16.386  0.00  0.00    +0.000 A 
ATOM     12  C   UNL     1       6.084   7.020  17.022  0.00  0.00    +0.000 A 
ATOM     13  C   UNL     1       4.904   7.223  17.736  0.00  0.00    +0.000 A 
ATOM     14  C   UNL     1       3.977   6.180  17.859  0.00  0.00    +0.000 A 
ENDROOT
BRANCH   1  18
ATOM     15  C   UNL     1       1.208  10.281  19.489  0.00  0.00    +0.000 A 
ATOM     16  C   UNL     1       1.566  10.100  18.146  0.00  0.00    +0.000 A 
ATOM     17  C   UNL     1       1.993   8.852  17.684  0.00  0.00    +0.000 A 
ATOM     18  C   UNL     1       2.076   7.765  18.563  0.00  0.00    +0.000 A 
ATOM     19  C   UNL     1       1.728   7.967  19.915  0.00  0.00    +0.000 A 
ATOM     20  C   UNL     1       1.298   9.216  20.374  0.00  0.00    +0.000 A 
BRANCH  15  22
ATOM     21  C   UNL     1       1.255  12.588  18.969  0.00  0.00    +0.000 C 
ATOM     22  O   UNL     1       0.809  11.549  19.832  0.00  0.00    +0.000 OA
ENDBRANCH  15  22
ENDBRANCH   1  18
BRANCH  11  23
ATOM     23  O   UNL     1       7.287   5.545  15.471  0.00  0.00    +0.000 OA
ATOM     24  C   UNL     1       6.915   4.771  14.337  0.00  0.00    +0.000 C 
ENDBRANCH  11  23
TORSDOF 3
ENDMDL
MODEL 2
REMARK VINA RESULT:      -8.1      1.769      6.130
REMARK  Name = 
REMARK  5 active torsions:
REMARK  status: ('A' for Active; 'I' for Inactive)
REMARK    1  A    between atoms: C_1  and  O_2
REMARK    2  A    between atoms: O_2  and  C_3
REMARK    3  A    between atoms: C_6  and  C_7
REMARK    4  A    between atoms: C_17  and  O_18
REMARK    5  A    between atoms: O_18  and  C_19
REMARK                            x       y       z     vdW  Elec       q    Type
REMARK                         _______ _______ _______ _____ _____    ______ ____
ROOT
ATOM      1  C   UNL     1       4.599   5.242  18.346  0.00  0.00    +0.000 C 
ATOM      2  O   UNL     1       4.280   3.885  18.685  0.00  0.00    +0.000 OA
ATOM      3  C   UNL     1       3.426   3.757  19.756  0.00  0.00    +0.000 A 
ATOM      4  C   UNL     1       3.399   2.491  20.355  0.00  0.00    +0.000 A 
ATOM      5  C   UNL     1       2.454   2.206  21.336  0.00  0.00    +0.000 A 
ATOM      6  C   UNL     1       1.533   3.178  21.712  0.00  0.00    +0.000 A 
ATOM      7  C   UNL     1       1.596   4.459  21.147  0.00  0.00    +0.000 A 
ATOM      8  C   UNL     1       2.566   4.791  20.184  0.00  0.00    +0.000 A 
ATOM      9  C   UNL     1       2.602   6.093  19.505  0.00  0.00    +0.000 A 
ATOM     10  C   UNL     1       1.919   7.239  19.924  0.00  0.00    +0.000 A 
ATOM     11  C   UNL     1       1.899   8.392  19.135  0.00  0.00    +0.000 A 
ATOM     12  C   UNL     1       2.463   8.359  17.863  0.00  0.00    +0.000 A 
ATOM     13  C   UNL     1       3.248   7.271  17.486  0.00  0.00    +0.000 A 
ATOM     14  C   UNL     1       3.411   6.192  18.365  0.00  0.00    +0.000 A 
ENDROOT
BRANCH   1  18
ATOM     15  C   UNL     1       7.061   5.248  14.782  0.00  0.00    +0.000 A 
ATOM     16  C   UNL     1       7.407   6.062  15.868  0.00  0.00    +0.000 A 
ATOM     17  C   UNL     1       6.619   6.082  17.024  0.00  0.00    +0.000 A 
ATOM     18  C   UNL     1       5.465   5.292  17.104  0.00  0.00    +0.000 A 
ATOM     19  C   UNL     1       5.121   4.492  15.995  0.00  0.00    +0.000 A 
ATOM     20  C   UNL     1       5.913   4.471  14.843  0.00  0.00    +0.000 A 
BRANCH  15  22
ATOM     21  C   UNL     1       7.410   4.727  12.501  0.00  0.00    +0.000 C 
ATOM     22  O   UNL     1       7.904   5.311  13.700  0.00  0.00    +0.000 OA
ENDBRANCH  15  22
ENDBRANCH   1  18
BRANCH  11  23
ATOM     23  O   UNL     1       1.310   9.482  19.719  0.00  0.00    +0.000 OA
ATOM     24  C   UNL     1       0.758   9.287  21.015  0.00  0.00    +0.000 C 
ENDBRANCH  11  23
TORSDOF 3
ENDMDL
MODEL 3
REMARK VINA RESULT:      -8.0      1.790      6.154
REMARK  Name = 
REMARK  5 active torsions:
REMARK  status: ('A' for Active; 'I' for Inactive)
REMARK    1  A    between atoms: C_1  and  O_2
REMARK    2  A    between atoms: O_2  and  C_3
REMARK    3  A    between atoms: C_6  and  C_7
REMARK    4  A    between atoms: C_17  and  O_18
REMARK    5  A    between atoms: O_18  and  C_19
REMARK                            x       y       z     vdW  Elec       q    Type
REMARK                         _______ _______ _______ _____ _____    ______ ____
ROOT
ATOM      1  C   UNL     1       4.660   5.073  18.195  0.00  0.00    +0.000 C 
ATOM      2  O   UNL     1       4.345   3.739  18.617  0.00  0.00    +0.000 OA
ATOM      3  C   UNL     1       3.553   3.673  19.740  0.00  0.00    +0.000 A 
ATOM      4  C   UNL     1       3.546   2.438  20.399  0.00  0.00    +0.000 A 
ATOM      5  C   UNL     1       2.657   2.213  21.445  0.00  0.00    +0.000 A 
ATOM      6  C   UNL     1       1.769   3.214  21.826  0.00  0.00    +0.000 A 
ATOM      7  C   UNL     1       1.814   4.466  21.197  0.00  0.00    +0.000 A 
ATOM      8  C   UNL     1       2.731   4.739  20.165  0.00  0.00    +0.000 A 
ATOM      9  C   UNL     1       2.742   6.006  19.423  0.00  0.00    +0.000 A 
ATOM     10  C   UNL     1       2.097   7.181  19.825  0.00  0.00    +0.000 A 
ATOM     11  C   UNL     1       2.044   8.295  18.984  0.00  0.00    +0.000 A 
ATOM     12  C   UNL     1       2.534   8.194  17.685  0.00  0.00    +0.000 A 
ATOM     13  C   UNL     1       3.284   7.079  17.317  0.00  0.00    +0.000 A 
ATOM     14  C   UNL     1       3.485   6.040  18.236  0.00  0.00    +0.000 A 
ENDROOT
BRANCH   1  18
ATOM     15  C   UNL     1       6.951   5.155  14.520  0.00  0.00    +0.000 A 
ATOM     16  C   UNL     1       5.794   4.367  14.602  0.00  0.00    +0.000 A 
ATOM     17  C   UNL     1       5.048   4.319  15.784  0.00  0.00    +0.000 A 
ATOM     18  C   UNL     1       5.453   5.053  16.905  0.00  0.00    +0.000 A 
ATOM     19  C   UNL     1       6.629   5.828  16.811  0.00  0.00    +0.000 A 
ATOM     20  C   UNL     1       7.371   5.877  15.627  0.00  0.00    +0.000 A 
BRANCH  15  22
ATOM     21  C   UNL     1       7.063   4.237  12.343  0.00  0.00    +0.000 C 
ATOM     22  O   UNL     1       7.607   5.122  13.314  0.00  0.00    +0.000 OA
ENDBRANCH  15  22
ENDBRANCH   1  18
BRANCH  11  23
ATOM     23  O   UNL     1       1.503   9.419  19.548  0.00  0.00    +0.000 OA
ATOM     24  C   UNL     1       0.819   9.245  20.783  0.00  0.00    +0.000 C 
ENDBRANCH  11  23
TORSDOF 3
ENDMDL
MODEL 4
REMARK VINA RESULT:      -8.0      0.471      1.095
REMARK  Name = 
REMARK  5 active torsions:
REMARK  status: ('A' for Active; 'I' for Inactive)
REMARK    1  A    between atoms: C_1  and  O_2
REMARK    2  A    between atoms: O_2  and  C_3
REMARK    3  A    between atoms: C_6  and  C_7
REMARK    4  A    between atoms: C_17  and  O_18
REMARK    5  A    between atoms: O_18  and  C_19
REMARK                            x       y       z     vdW  Elec       q    Type
REMARK                         _______ _______ _______ _____ _____    ______ ____
ROOT
ATOM      1  C   UNL     1       2.469   6.351  18.123  0.00  0.00    +0.000 C 
ATOM      2  O   UNL     1       1.879   5.336  18.947  0.00  0.00    +0.000 OA
ATOM      3  C   UNL     1       2.285   4.056  18.646  0.00  0.00    +0.000 A 
ATOM      4  C   UNL     1       1.466   3.034  19.140  0.00  0.00    +0.000 A 
ATOM      5  C   UNL     1       1.871   1.707  19.036  0.00  0.00    +0.000 A 
ATOM      6  C   UNL     1       3.094   1.402  18.448  0.00  0.00    +0.000 A 
ATOM      7  C   UNL     1       3.888   2.424  17.910  0.00  0.00    +0.000 A 
ATOM      8  C   UNL     1       3.486   3.771  17.962  0.00  0.00    +0.000 A 
ATOM      9  C   UNL     1       4.334   4.874  17.492  0.00  0.00    +0.000 A 
ATOM     10  C   UNL     1       5.460   4.733  16.674  0.00  0.00    +0.000 A 
ATOM     11  C   UNL     1       6.287   5.824  16.396  0.00  0.00    +0.000 A 
ATOM     12  C   UNL     1       6.056   7.038  17.036  0.00  0.00    +0.000 A 
ATOM     13  C   UNL     1       4.874   7.224  17.751  0.00  0.00    +0.000 A 
ATOM     14  C   UNL     1       3.959   6.170  17.872  0.00  0.00    +0.000 A 
ENDROOT
BRANCH   1  18
ATOM     15  C   UNL     1       1.343  10.348  19.355  0.00  0.00    +0.000 A 
ATOM     16  C   UNL     1       1.353   9.307  20.293  0.00  0.00    +0.000 A 
ATOM     17  C   UNL     1       1.703   8.007  19.913  0.00  0.00    +0.000 A 
ATOM     18  C   UNL     1       2.040   7.729  18.582  0.00  0.00    +0.000 A 
ATOM     19  C   UNL     1       2.008   8.784  17.647  0.00  0.00    +0.000 A 
ATOM     20  C   UNL     1       1.661  10.083  18.031  0.00  0.00    +0.000 A 
BRANCH  15  22
ATOM     21  C   UNL     1      -0.330  11.663  20.387  0.00  0.00    +0.000 C 
ATOM     22  O   UNL     1       0.979  11.580  19.839  0.00  0.00    +0.000 OA
ENDBRANCH  15  22
ENDBRANCH   1  18
BRANCH  11  23
ATOM     23  O   UNL     1       7.275   5.581  15.479  0.00  0.00    +0.000 OA
ATOM     24  C   UNL     1       6.903   4.833  14.327  0.00  0.00    +0.000 C 
ENDBRANCH  11  23
TORSDOF 3
ENDMDL
MODEL 5
REMARK VINA RESULT:      -8.0      3.589      5.812
REMARK  Name = 
REMARK  5 active torsions:
REMARK  status: ('A' for Active; 'I' for Inactive)
REMARK    1  A    between atoms: C_1  and  O_2
REMARK    2  A    between atoms: O_2  and  C_3
REMARK    3  A    between atoms: C_6  and  C_7
REMARK    4  A    between atoms: C_17  and  O_18
REMARK    5  A    between atoms: O_18  and  C_19
REMARK                            x       y       z     vdW  Elec       q    Type
REMARK                         _______ _______ _______ _____ _____    ______ ____
ROOT
ATOM      1  C   UNL     1       4.541   4.583  16.718  0.00  0.00    +0.000 C 
ATOM      2  O   UNL     1       4.681   3.772  15.543  0.00  0.00    +0.000 OA
ATOM      3  C   UNL     1       5.612   4.237  14.643  0.00  0.00    +0.000 A 
ATOM      4  C   UNL     1       5.506   3.718  13.347  0.00  0.00    +0.000 A 
ATOM      5  C   UNL     1       6.493   3.993  12.405  0.00  0.00    +0.000 A 
ATOM      6  C   UNL     1       7.588   4.775  12.759  0.00  0.00    +0.000 A 
ATOM      7  C   UNL     1       7.665   5.334  14.043  0.00  0.00    +0.000 A 
ATOM      8  C   UNL     1       6.662   5.109  15.003  0.00  0.00    +0.000 A 
ATOM      9  C   UNL     1       6.756   5.602  16.384  0.00  0.00    +0.000 A 
ATOM     10  C   UNL     1       7.648   6.582  16.830  0.00  0.00    +0.000 A 
ATOM     11  C   UNL     1       7.763   6.883  18.189  0.00  0.00    +0.000 A 
ATOM     12  C   UNL     1       7.070   6.115  19.121  0.00  0.00    +0.000 A 
ATOM     13  C   UNL     1       6.091   5.223  18.685  0.00  0.00    +0.000 A 
ATOM     14  C   UNL     1       5.858   5.062  17.313  0.00  0.00    +0.000 A 
ENDROOT
BRANCH   1  18
ATOM     15  C   UNL     1       1.765   2.892  19.581  0.00  0.00    +0.000 A 
ATOM     16  C   UNL     1       2.750   2.080  19.003  0.00  0.00    +0.000 A 
ATOM     17  C   UNL     1       3.648   2.605  18.068  0.00  0.00    +0.000 A 
ATOM     18  C   UNL     1       3.568   3.951  17.691  0.00  0.00    +0.000 A 
ATOM     19  C   UNL     1       2.560   4.751  18.270  0.00  0.00    +0.000 A 
ATOM     20  C   UNL     1       1.665   4.224  19.207  0.00  0.00    +0.000 A 
BRANCH  15  22
ATOM     21  C   UNL     1       1.250   2.480  21.852  0.00  0.00    +0.000 C 
ATOM     22  O   UNL     1       0.936   2.270  20.481  0.00  0.00    +0.000 OA
ENDBRANCH  15  22
ENDBRANCH   1  18
BRANCH  11  23
ATOM     23  O   UNL     1       8.571   7.951  18.479  0.00  0.00    +0.000 OA
ATOM     24  C   UNL     1       8.185   9.206  17.933  0.00  0.00    +0.000 C 
ENDBRANCH  11  23
TORSDOF 3
ENDMDL
MODEL 6
REMARK VINA RESULT:      -7.8      1.323      1.371
REMARK  Name = 
REMARK  5 active torsions:
REMARK  status: ('A' for Active; 'I' for Inactive)
REMARK    1  A    between atoms: C_1  and  O_2
REMARK    2  A    between atoms: O_2  and  C_3
REMARK    3  A    between atoms: C_6  and  C_7
REMARK    4  A    between atoms: C_17  and  O_18
REMARK    5  A    between atoms: O_18  and  C_19
REMARK                            x       y       z     vdW  Elec       q    Type
REMARK                         _______ _______ _______ _____ _____    ______ ____
ROOT
ATOM      1  C   UNL     1       2.275   6.637  18.876  0.00  0.00    +0.000 C 
ATOM      2  O   UNL     1       2.161   6.052  20.181  0.00  0.00    +0.000 OA
ATOM      3  C   UNL     1       2.538   4.730  20.243  0.00  0.00    +0.000 A 
ATOM      4  C   UNL     1       2.085   4.029  21.367  0.00  0.00    +0.000 A 
ATOM      5  C   UNL     1       2.544   2.738  21.612  0.00  0.00    +0.000 A 
ATOM      6  C   UNL     1       3.459   2.153  20.743  0.00  0.00    +0.000 A 
ATOM      7  C   UNL     1       3.871   2.839  19.592  0.00  0.00    +0.000 A 
ATOM      8  C   UNL     1       3.392   4.128  19.295  0.00  0.00    +0.000 A 
ATOM      9  C   UNL     1       3.873   4.912  18.149  0.00  0.00    +0.000 A 
ATOM     10  C   UNL     1       4.593   4.396  17.066  0.00  0.00    +0.000 A 
ATOM     11  C   UNL     1       5.131   5.243  16.094  0.00  0.00    +0.000 A 
ATOM     12  C   UNL     1       5.054   6.621  16.269  0.00  0.00    +0.000 A 
ATOM     13  C   UNL     1       4.239   7.143  17.272  0.00  0.00    +0.000 A 
ATOM     14  C   UNL     1       3.555   6.276  18.135  0.00  0.00    +0.000 A 
ENDROOT
BRANCH   1  18
ATOM     15  C   UNL     1       1.172  10.821  19.071  0.00  0.00    +0.000 A 
ATOM     16  C   UNL     1       1.705  10.296  17.886  0.00  0.00    +0.000 A 
ATOM     17  C   UNL     1       2.078   8.950  17.807  0.00  0.00    +0.000 A 
ATOM     18  C   UNL     1       1.930   8.111  18.918  0.00  0.00    +0.000 A 
ATOM     19  C   UNL     1       1.408   8.659  20.109  0.00  0.00    +0.000 A 
ATOM     20  C   UNL     1       1.033  10.004  20.184  0.00  0.00    +0.000 A 
BRANCH  15  22
ATOM     21  C   UNL     1       1.947  13.055  19.019  0.00  0.00    +0.000 C 
ATOM     22  O   UNL     1       0.846  12.154  19.036  0.00  0.00    +0.000 OA
ENDBRANCH  15  22
ENDBRANCH   1  18
BRANCH  11  23
ATOM     23  O   UNL     1       5.695   4.606  15.020  0.00  0.00    +0.000 OA
ATOM     24  C   UNL     1       7.085   4.819  14.812  0.00  0.00    +0.000 C 
ENDBRANCH  11  23
TORSDOF 3
ENDMDL
MODEL 7
REMARK VINA RESULT:      -7.7      1.813      4.108
REMARK  Name = 
REMARK  5 active torsions:
REMARK  status: ('A' for Active; 'I' for Inactive)
REMARK    1  A    between atoms: C_1  and  O_2
REMARK    2  A    between atoms: O_2  and  C_3
REMARK    3  A    between atoms: C_6  and  C_7
REMARK    4  A    between atoms: C_17  and  O_18
REMARK    5  A    between atoms: O_18  and  C_19
REMARK                            x       y       z     vdW  Elec       q    Type
REMARK                         _______ _______ _______ _____ _____    ______ ____
ROOT
ATOM      1  C   UNL     1       3.237   6.905  18.599  0.00  0.00    +0.000 C 
ATOM      2  O   UNL     1       3.621   7.016  17.221  0.00  0.00    +0.000 OA
ATOM      3  C   UNL     1       4.507   6.051  16.801  0.00  0.00    +0.000 A 
ATOM      4  C   UNL     1       5.194   6.341  15.616  0.00  0.00    +0.000 A 
ATOM      5  C   UNL     1       5.988   5.368  15.017  0.00  0.00    +0.000 A 
ATOM      6  C   UNL     1       6.087   4.106  15.593  0.00  0.00    +0.000 A 
ATOM      7  C   UNL     1       5.439   3.836  16.807  0.00  0.00    +0.000 A 
ATOM      8  C   UNL     1       4.664   4.812  17.459  0.00  0.00    +0.000 A 
ATOM      9  C   UNL     1       3.896   4.535  18.680  0.00  0.00    +0.000 A 
ATOM     10  C   UNL     1       4.071   3.420  19.505  0.00  0.00    +0.000 A 
ATOM     11  C   UNL     1       3.198   3.168  20.567  0.00  0.00    +0.000 A 
ATOM     12  C   UNL     1       2.072   3.969  20.730  0.00  0.00    +0.000 A 
ATOM     13  C   UNL     1       1.954   5.148  19.996  0.00  0.00    +0.000 A 
ATOM     14  C   UNL     1       2.936   5.484  19.055  0.00  0.00    +0.000 A 
ENDROOT
BRANCH   1  18
ATOM     15  C   UNL     1       0.314   9.969  19.510  0.00  0.00    +0.000 A 
ATOM     16  C   UNL     1       0.822   9.163  20.538  0.00  0.00    +0.000 A 
ATOM     17  C   UNL     1       1.758   8.161  20.262  0.00  0.00    +0.000 A 
ATOM     18  C   UNL     1       2.193   7.945  18.949  0.00  0.00    +0.000 A 
ATOM     19  C   UNL     1       1.660   8.753  17.923  0.00  0.00    +0.000 A 
ATOM     20  C   UNL     1       0.727   9.757  18.203  0.00  0.00    +0.000 A 
BRANCH  15  22
ATOM     21  C   UNL     1      -1.606  11.225  18.938  0.00  0.00    +0.000 C 
ATOM     22  O   UNL     1      -0.602  10.916  19.896  0.00  0.00    +0.000 OA
ENDBRANCH  15  22
ENDBRANCH   1  18
BRANCH  11  23
ATOM     23  O   UNL     1       3.558   2.123  21.375  0.00  0.00    +0.000 OA
ATOM     24  C   UNL     1       4.778   1.463  21.057  0.00  0.00    +0.000 C 
ENDBRANCH  11  23
TORSDOF 3
ENDMDL
MODEL 8
REMARK VINA RESULT:      -7.5      1.345      1.688
REMARK  Name = 
REMARK  5 active torsions:
REMARK  status: ('A' for Active; 'I' for Inactive)
REMARK    1  A    between atoms: C_1  and  O_2
REMARK    2  A    between atoms: O_2  and  C_3
REMARK    3  A    between atoms: C_6  and  C_7
REMARK    4  A    between atoms: C_17  and  O_18
REMARK    5  A    between atoms: O_18  and  C_19
REMARK                            x       y       z     vdW  Elec       q    Type
REMARK                         _______ _______ _______ _____ _____    ______ ____
ROOT
ATOM      1  C   UNL     1       2.223   6.590  18.918  0.00  0.00    +0.000 C 
ATOM      2  O   UNL     1       2.121   5.986  20.215  0.00  0.00    +0.000 OA
ATOM      3  C   UNL     1       2.521   4.671  20.261  0.00  0.00    +0.000 A 
ATOM      4  C   UNL     1       2.082   3.947  21.376  0.00  0.00    +0.000 A 
ATOM      5  C   UNL     1       2.564   2.662  21.604  0.00  0.00    +0.000 A 
ATOM      6  C   UNL     1       3.488   2.104  20.727  0.00  0.00    +0.000 A 
ATOM      7  C   UNL     1       3.887   2.812  19.585  0.00  0.00    +0.000 A 
ATOM      8  C   UNL     1       3.385   4.096  19.304  0.00  0.00    +0.000 A 
ATOM      9  C   UNL     1       3.851   4.902  18.168  0.00  0.00    +0.000 A 
ATOM     10  C   UNL     1       4.578   4.414  17.078  0.00  0.00    +0.000 A 
ATOM     11  C   UNL     1       5.101   5.282  16.116  0.00  0.00    +0.000 A 
ATOM     12  C   UNL     1       4.999   6.657  16.309  0.00  0.00    +0.000 A 
ATOM     13  C   UNL     1       4.176   7.151  17.320  0.00  0.00    +0.000 A 
ATOM     14  C   UNL     1       3.509   6.261  18.171  0.00  0.00    +0.000 A 
ENDROOT
BRANCH   1  18
ATOM     15  C   UNL     1       1.276  10.815  19.017  0.00  0.00    +0.000 A 
ATOM     16  C   UNL     1       1.083  10.031  20.162  0.00  0.00    +0.000 A 
ATOM     17  C   UNL     1       1.372   8.663  20.147  0.00  0.00    +0.000 A 
ATOM     18  C   UNL     1       1.852   8.056  18.979  0.00  0.00    +0.000 A 
ATOM     19  C   UNL     1       2.025   8.856  17.830  0.00  0.00    +0.000 A 
ATOM     20  C   UNL     1       1.738  10.225  17.849  0.00  0.00    +0.000 A 
BRANCH  15  22
ATOM     21  C   UNL     1       1.189  12.711  20.428  0.00  0.00    +0.000 C 
ATOM     22  O   UNL     1       0.955  12.144  19.145  0.00  0.00    +0.000 OA
ENDBRANCH  15  22
ENDBRANCH   1  18
BRANCH  11  23
ATOM     23  O   UNL     1       5.675   4.668  15.034  0.00  0.00    +0.000 OA
ATOM     24  C   UNL     1       7.074   4.860  14.862  0.00  0.00    +0.000 C 
ENDBRANCH  11  23
TORSDOF 3
ENDMDL
MODEL 9
REMARK VINA RESULT:      -7.3      3.381      6.125
REMARK  Name = 
REMARK  5 active torsions:
REMARK  status: ('A' for Active; 'I' for Inactive)
REMARK    1  A    between atoms: C_1  and  O_2
REMARK    2  A    between atoms: O_2  and  C_3
REMARK    3  A    between atoms: C_6  and  C_7
REMARK    4  A    between atoms: C_17  and  O_18
REMARK    5  A    between atoms: O_18  and  C_19
REMARK                            x       y       z     vdW  Elec       q    Type
REMARK                         _______ _______ _______ _____ _____    ______ ____
ROOT
ATOM      1  C   UNL     1       6.968   5.742  16.602  0.00  0.00    +0.000 C 
ATOM      2  O   UNL     1       7.402   5.863  15.240  0.00  0.00    +0.000 OA
ATOM      3  C   UNL     1       6.862   4.928  14.389  0.00  0.00    +0.000 A 
ATOM      4  C   UNL     1       7.536   4.762  13.172  0.00  0.00    +0.000 A 
ATOM      5  C   UNL     1       6.984   3.965  12.174  0.00  0.00    +0.000 A 
ATOM      6  C   UNL     1       5.758   3.343  12.386  0.00  0.00    +0.000 A 
ATOM      7  C   UNL     1       5.111   3.471  13.623  0.00  0.00    +0.000 A 
ATOM      8  C   UNL     1       5.665   4.235  14.667  0.00  0.00    +0.000 A 
ATOM      9  C   UNL     1       4.970   4.465  15.940  0.00  0.00    +0.000 A 
ATOM     10  C   UNL     1       3.869   3.736  16.401  0.00  0.00    +0.000 A 
ATOM     11  C   UNL     1       3.187   4.120  17.558  0.00  0.00    +0.000 A 
ATOM     12  C   UNL     1       3.532   5.310  18.192  0.00  0.00    +0.000 A 
ATOM     13  C   UNL     1       4.698   5.976  17.817  0.00  0.00    +0.000 A 
ATOM     14  C   UNL     1       5.478   5.477  16.766  0.00  0.00    +0.000 A 
ENDROOT
BRANCH   1  18
ATOM     15  C   UNL     1       8.644   9.007  18.901  0.00  0.00    +0.000 A 
ATOM     16  C   UNL     1       8.698   7.701  19.406  0.00  0.00    +0.000 A 
ATOM     17  C   UNL     1       8.152   6.635  18.683  0.00  0.00    +0.000 A 
ATOM     18  C   UNL     1       7.536   6.863  17.447  0.00  0.00    +0.000 A 
ATOM     19  C   UNL     1       7.474   8.186  16.961  0.00  0.00    +0.000 A 
ATOM     20  C   UNL     1       8.024   9.250  17.684  0.00  0.00    +0.000 A 
BRANCH  15  22
ATOM     21  C   UNL     1       9.849  11.039  19.008  0.00  0.00    +0.000 C 
ATOM     22  O   UNL     1       9.206   9.975  19.697  0.00  0.00    +0.000 OA
ENDBRANCH  15  22
ENDBRANCH   1  18
BRANCH  11  23
ATOM     23  O   UNL     1       2.215   3.248  17.972  0.00  0.00    +0.000 OA
ATOM     24  C   UNL     1       2.587   2.311  18.976  0.00  0.00    +0.000 C 
ENDBRANCH  11  23
TORSDOF 3
ENDMDL
