MODEL 1
REMARK VINA RESULT:      -7.9      0.000      0.000
REMARK  Name = 
REMARK  9 active torsions:
REMARK  status: ('A' for Active; 'I' for Inactive)
REMARK    1  A    between atoms: C_1  and  O_2
REMARK    2  A    between atoms: O_2  and  C_3
REMARK    3  A    between atoms: C_5  and  C_6
REMARK    4  A    between atoms: N_7  and  N_8
REMARK    5  A    between atoms: C_21  and  O_22
REMARK    6  A    between atoms: O_22  and  C_23
REMARK    7  A    between atoms: C_23  and  C_24
REMARK    8  A    between atoms: N_26  and  C_27
REMARK    9  A    between atoms: N_26  and  C_28
REMARK                            x       y       z     vdW  Elec       q    Type
REMARK                         _______ _______ _______ _____ _____    ______ ____
ROOT
ATOM      1  C   UNL     1       5.241   6.766  16.980  0.00  0.00    +0.000 A 
ATOM      2  C   UNL     1       4.271   7.686  17.386  0.00  0.00    +0.000 A 
ATOM      3  C   UNL     1       3.029   7.259  17.862  0.00  0.00    +0.000 A 
ATOM      4  C   UNL     1       2.735   5.900  17.926  0.00  0.00    +0.000 A 
ATOM      5  C   UNL     1       3.712   4.969  17.536  0.00  0.00    +0.000 A 
ATOM      6 BR   UNL     1       3.250   3.128  17.659  0.00  0.00    +0.000 Br
ATOM      7  C   UNL     1       4.990   5.384  17.098  0.00  0.00    +0.000 A 
ENDROOT
BRANCH   1   9
ATOM      8  C   UNL     1       7.438   7.429  17.590  0.00  0.00    +0.000 C 
ATOM      9  O   UNL     1       6.471   7.210  16.567  0.00  0.00    +0.000 OA
ENDBRANCH   1   9
BRANCH   3  10
ATOM     10  C   UNL     1       2.067   8.269  18.352  0.00  0.00    +0.000 C 
ATOM     11  N   UNL     1       1.726   9.262  17.592  0.00  0.00    +0.000 NA
BRANCH  11  12
ATOM     12  N   UNL     1       0.938  10.214  18.167  0.00  0.00    +0.000 N 
ATOM     13  C   UNL     1       1.436  11.429  18.490  0.00  0.00    +0.000 A 
ATOM     14  N   UNL     1       1.023  12.271  19.409  0.00  0.00    +0.000 NA
ATOM     15  C   UNL     1       1.890  13.338  19.333  0.00  0.00    +0.000 A 
ATOM     16  C   UNL     1       1.938  14.512  20.099  0.00  0.00    +0.000 A 
ATOM     17  C   UNL     1       2.916  15.472  19.802  0.00  0.00    +0.000 A 
ATOM     18  C   UNL     1       3.828  15.267  18.763  0.00  0.00    +0.000 A 
ATOM     19  C   UNL     1       3.808  14.095  17.997  0.00  0.00    +0.000 A 
ATOM     20  C   UNL     1       2.827  13.154  18.322  0.00  0.00    +0.000 A 
ATOM     21  N   UNL     1       2.523  11.919  17.818  0.00  0.00    +0.000 N 
ATOM     22  H   UNL     1       0.159   9.916  18.756  0.00  0.00    +0.000 HD
ATOM     23  H   UNL     1       2.989  11.415  17.082  0.00  0.00    +0.000 HD
ENDBRANCH  11  12
ENDBRANCH   3  10
BRANCH   7  24
ATOM     24  O   UNL     1       5.894   4.376  16.816  0.00  0.00    +0.000 OA
BRANCH  24  25
ATOM     25  C   UNL     1       5.874   3.877  15.489  0.00  0.00    +0.000 C 
BRANCH  25  26
ATOM     26  C   UNL     1       6.846   4.499  14.477  0.00  0.00    +0.000 C 
ATOM     27  O   UNL     1       7.766   5.232  14.828  0.00  0.00    +0.000 OA
ATOM     28  N   UNL     1       6.612   4.171  13.134  0.00  0.00    +0.000 N 
ATOM     29  C   UNL     1       5.540   3.310  12.647  0.00  0.00    +0.000 C 
ATOM     30  C   UNL     1       7.471   4.740  12.107  0.00  0.00    +0.000 C 
ENDBRANCH  25  26
ENDBRANCH  24  25
ENDBRANCH   7  24
TORSDOF 6
ENDMDL
MODEL 2
REMARK VINA RESULT:      -7.7      2.595      3.513
REMARK  Name = 
REMARK  9 active torsions:
REMARK  status: ('A' for Active; 'I' for Inactive)
REMARK    1  A    between atoms: C_1  and  O_2
REMARK    2  A    between atoms: O_2  and  C_3
REMARK    3  A    between atoms: C_5  and  C_6
REMARK    4  A    between atoms: N_7  and  N_8
REMARK    5  A    between atoms: C_21  and  O_22
REMARK    6  A    between atoms: O_22  and  C_23
REMARK    7  A    between atoms: C_23  and  C_24
REMARK    8  A    between atoms: N_26  and  C_27
REMARK    9  A    between atoms: N_26  and  C_28
REMARK                            x       y       z     vdW  Elec       q    Type
REMARK                         _______ _______ _______ _____ _____    ______ ____
ROOT
ATOM      1  C   UNL     1       5.007   6.576  17.075  0.00  0.00    +0.000 A 
ATOM      2  C   UNL     1       4.123   7.428  17.743  0.00  0.00    +0.000 A 
ATOM      3  C   UNL     1       2.963   6.933  18.343  0.00  0.00    +0.000 A 
ATOM      4  C   UNL     1       2.663   5.576  18.270  0.00  0.00    +0.000 A 
ATOM      5  C   UNL     1       3.556   4.712  17.616  0.00  0.00    +0.000 A 
ATOM      6 BR   UNL     1       3.092   2.868  17.562  0.00  0.00    +0.000 Br
ATOM      7  C   UNL     1       4.758   5.189  17.046  0.00  0.00    +0.000 A 
ENDROOT
BRANCH   1   9
ATOM      8  C   UNL     1       7.251   7.259  17.447  0.00  0.00    +0.000 C 
ATOM      9  O   UNL     1       6.166   7.079  16.542  0.00  0.00    +0.000 OA
ENDBRANCH   1   9
BRANCH   3  10
ATOM     10  C   UNL     1       2.101   7.863  19.104  0.00  0.00    +0.000 C 
ATOM     11  N   UNL     1       1.765   9.004  18.589  0.00  0.00    +0.000 NA
BRANCH  11  12
ATOM     12  N   UNL     1       1.078   9.851  19.406  0.00  0.00    +0.000 N 
ATOM     13  C   UNL     1      -0.171  10.264  19.092  0.00  0.00    +0.000 A 
ATOM     14  N   UNL     1      -0.793  11.361  19.456  0.00  0.00    +0.000 NA
ATOM     15  C   UNL     1      -2.025  11.296  18.843  0.00  0.00    +0.000 A 
ATOM     16  C   UNL     1      -3.086  12.213  18.861  0.00  0.00    +0.000 A 
ATOM     17  C   UNL     1      -4.262  11.896  18.166  0.00  0.00    +0.000 A 
ATOM     18  C   UNL     1      -4.380  10.691  17.469  0.00  0.00    +0.000 A 
ATOM     19  C   UNL     1      -3.326   9.769  17.426  0.00  0.00    +0.000 A 
ATOM     20  C   UNL     1      -2.164  10.115  18.120  0.00  0.00    +0.000 A 
ATOM     21  N   UNL     1      -0.958   9.490  18.282  0.00  0.00    +0.000 N 
ATOM     22  H   UNL     1       1.603  10.518  19.974  0.00  0.00    +0.000 HD
ATOM     23  H   UNL     1      -0.655   8.613  17.893  0.00  0.00    +0.000 HD
ENDBRANCH  11  12
ENDBRANCH   3  10
BRANCH   7  24
ATOM     24  O   UNL     1       5.594   4.234  16.498  0.00  0.00    +0.000 OA
BRANCH  24  25
ATOM     25  C   UNL     1       5.452   4.010  15.105  0.00  0.00    +0.000 C 
BRANCH  25  26
ATOM     26  C   UNL     1       6.595   4.463  14.188  0.00  0.00    +0.000 C 
ATOM     27  O   UNL     1       7.526   5.150  14.602  0.00  0.00    +0.000 OA
ATOM     28  N   UNL     1       6.505   4.039  12.854  0.00  0.00    +0.000 N 
ATOM     29  C   UNL     1       5.431   3.226  12.295  0.00  0.00    +0.000 C 
ATOM     30  C   UNL     1       7.536   4.448  11.911  0.00  0.00    +0.000 C 
ENDBRANCH  25  26
ENDBRANCH  24  25
ENDBRANCH   7  24
TORSDOF 6
ENDMDL
MODEL 3
REMARK VINA RESULT:      -7.6      2.824      3.026
REMARK  Name = 
REMARK  9 active torsions:
REMARK  status: ('A' for Active; 'I' for Inactive)
REMARK    1  A    between atoms: C_1  and  O_2
REMARK    2  A    between atoms: O_2  and  C_3
REMARK    3  A    between atoms: C_5  and  C_6
REMARK    4  A    between atoms: N_7  and  N_8
REMARK    5  A    between atoms: C_21  and  O_22
REMARK    6  A    between atoms: O_22  and  C_23
REMARK    7  A    between atoms: C_23  and  C_24
REMARK    8  A    between atoms: N_26  and  C_27
REMARK    9  A    between atoms: N_26  and  C_28
REMARK                            x       y       z     vdW  Elec       q    Type
REMARK                         _______ _______ _______ _____ _____    ______ ____
ROOT
ATOM      1  C   UNL     1       4.551   6.025  17.504  0.00  0.00    +0.000 A 
ATOM      2  C   UNL     1       3.704   6.591  18.462  0.00  0.00    +0.000 A 
ATOM      3  C   UNL     1       2.857   5.792  19.233  0.00  0.00    +0.000 A 
ATOM      4  C   UNL     1       2.835   4.413  19.046  0.00  0.00    +0.000 A 
ATOM      5  C   UNL     1       3.697   3.837  18.099  0.00  0.00    +0.000 A 
ATOM      6 BR   UNL     1       3.625   1.946  17.902  0.00  0.00    +0.000 Br
ATOM      7  C   UNL     1       4.594   4.625  17.345  0.00  0.00    +0.000 A 
ENDROOT
BRANCH   1   9
ATOM      8  C   UNL     1       6.666   7.102  17.415  0.00  0.00    +0.000 C 
ATOM      9  O   UNL     1       5.412   6.826  16.798  0.00  0.00    +0.000 OA
ENDBRANCH   1   9
BRANCH   3  10
ATOM     10  C   UNL     1       2.038   6.430  20.286  0.00  0.00    +0.000 C 
ATOM     11  N   UNL     1       2.054   7.718  20.428  0.00  0.00    +0.000 NA
BRANCH  11  12
ATOM     12  N   UNL     1       1.374   8.211  21.501  0.00  0.00    +0.000 N 
ATOM     13  C   UNL     1       0.625   9.333  21.397  0.00  0.00    +0.000 A 
ATOM     14  N   UNL     1       0.291  10.191  22.332  0.00  0.00    +0.000 NA
ATOM     15  C   UNL     1      -0.455  11.153  21.687  0.00  0.00    +0.000 A 
ATOM     16  C   UNL     1      -1.045  12.320  22.193  0.00  0.00    +0.000 A 
ATOM     17  C   UNL     1      -1.787  13.132  21.322  0.00  0.00    +0.000 A 
ATOM     18  C   UNL     1      -1.939  12.788  19.977  0.00  0.00    +0.000 A 
ATOM     19  C   UNL     1      -1.345  11.636  19.448  0.00  0.00    +0.000 A 
ATOM     20  C   UNL     1      -0.605  10.850  20.337  0.00  0.00    +0.000 A 
ATOM     21  N   UNL     1       0.112   9.696  20.180  0.00  0.00    +0.000 N 
ATOM     22  H   UNL     1       1.751   8.052  22.437  0.00  0.00    +0.000 HD
ATOM     23  H   UNL     1       0.267   9.169  19.337  0.00  0.00    +0.000 HD
ENDBRANCH  11  12
ENDBRANCH   3  10
BRANCH   7  24
ATOM     24  O   UNL     1       5.447   3.940  16.500  0.00  0.00    +0.000 OA
BRANCH  24  25
ATOM     25  C   UNL     1       5.225   4.122  15.111  0.00  0.00    +0.000 C 
BRANCH  25  26
ATOM     26  C   UNL     1       6.433   4.479  14.235  0.00  0.00    +0.000 C 
ATOM     27  O   UNL     1       7.389   5.111  14.676  0.00  0.00    +0.000 OA
ATOM     28  N   UNL     1       6.369   4.034  12.907  0.00  0.00    +0.000 N 
ATOM     29  C   UNL     1       5.267   3.281  12.318  0.00  0.00    +0.000 C 
ATOM     30  C   UNL     1       7.462   4.353  12.001  0.00  0.00    +0.000 C 
ENDBRANCH  25  26
ENDBRANCH  24  25
ENDBRANCH   7  24
TORSDOF 6
ENDMDL
MODEL 4
REMARK VINA RESULT:      -7.6      5.851     10.592
REMARK  Name = 
REMARK  9 active torsions:
REMARK  status: ('A' for Active; 'I' for Inactive)
REMARK    1  A    between atoms: C_1  and  O_2
REMARK    2  A    between atoms: O_2  and  C_3
REMARK    3  A    between atoms: C_5  and  C_6
REMARK    4  A    between atoms: N_7  and  N_8
REMARK    5  A    between atoms: C_21  and  O_22
REMARK    6  A    between atoms: O_22  and  C_23
REMARK    7  A    between atoms: C_23  and  C_24
REMARK    8  A    between atoms: N_26  and  C_27
REMARK    9  A    between atoms: N_26  and  C_28
REMARK                            x       y       z     vdW  Elec       q    Type
REMARK                         _______ _______ _______ _____ _____    ______ ____
ROOT
ATOM      1  C   UNL     1      -1.055  11.055  19.134  0.00  0.00    +0.000 A 
ATOM      2  C   UNL     1      -0.180   9.982  19.335  0.00  0.00    +0.000 A 
ATOM      3  C   UNL     1       0.288   9.667  20.612  0.00  0.00    +0.000 A 
ATOM      4  C   UNL     1      -0.102  10.430  21.708  0.00  0.00    +0.000 A 
ATOM      5  C   UNL     1      -0.995  11.497  21.516  0.00  0.00    +0.000 A 
ATOM      6 BR   UNL     1      -1.497  12.493  23.058  0.00  0.00    +0.000 Br
ATOM      7  C   UNL     1      -1.515  11.800  20.238  0.00  0.00    +0.000 A 
ENDROOT
BRANCH   1   9
ATOM      8  C   UNL     1      -1.971  10.179  17.126  0.00  0.00    +0.000 C 
ATOM      9  O   UNL     1      -1.542  11.310  17.878  0.00  0.00    +0.000 OA
ENDBRANCH   1   9
BRANCH   3  10
ATOM     10  C   UNL     1       1.149   8.476  20.782  0.00  0.00    +0.000 C 
ATOM     11  N   UNL     1       1.829   8.019  19.778  0.00  0.00    +0.000 NA
BRANCH  11  12
ATOM     12  N   UNL     1       2.492   6.847  19.986  0.00  0.00    +0.000 N 
ATOM     13  C   UNL     1       3.205   6.264  18.995  0.00  0.00    +0.000 A 
ATOM     14  N   UNL     1       3.511   4.997  18.837  0.00  0.00    +0.000 NA
ATOM     15  C   UNL     1       4.226   4.946  17.660  0.00  0.00    +0.000 A 
ATOM     16  C   UNL     1       4.778   3.843  16.993  0.00  0.00    +0.000 A 
ATOM     17  C   UNL     1       5.494   4.062  15.807  0.00  0.00    +0.000 A 
ATOM     18  C   UNL     1       5.657   5.352  15.297  0.00  0.00    +0.000 A 
ATOM     19  C   UNL     1       5.100   6.465  15.939  0.00  0.00    +0.000 A 
ATOM     20  C   UNL     1       4.386   6.215  17.114  0.00  0.00    +0.000 A 
ATOM     21  N   UNL     1       3.706   7.030  17.978  0.00  0.00    +0.000 N 
ATOM     22  H   UNL     1       2.120   6.188  20.671  0.00  0.00    +0.000 HD
ATOM     23  H   UNL     1       3.569   8.025  17.917  0.00  0.00    +0.000 HD
ENDBRANCH  11  12
ENDBRANCH   3  10
BRANCH   7  24
ATOM     24  O   UNL     1      -2.445  12.822  20.185  0.00  0.00    +0.000 OA
BRANCH  24  25
ATOM     25  C   UNL     1      -3.776  12.436  19.882  0.00  0.00    +0.000 C 
BRANCH  25  26
ATOM     26  C   UNL     1      -4.863  12.744  20.919  0.00  0.00    +0.000 C 
ATOM     27  O   UNL     1      -4.657  13.490  21.873  0.00  0.00    +0.000 OA
ATOM     28  N   UNL     1      -6.100  12.120  20.702  0.00  0.00    +0.000 N 
ATOM     29  C   UNL     1      -6.414  11.224  19.594  0.00  0.00    +0.000 C 
ATOM     30  C   UNL     1      -7.179  12.337  21.654  0.00  0.00    +0.000 C 
ENDBRANCH  25  26
ENDBRANCH  24  25
ENDBRANCH   7  24
TORSDOF 6
ENDMDL
MODEL 5
REMARK VINA RESULT:      -7.5      3.610      4.940
REMARK  Name = 
REMARK  9 active torsions:
REMARK  status: ('A' for Active; 'I' for Inactive)
REMARK    1  A    between atoms: C_1  and  O_2
REMARK    2  A    between atoms: O_2  and  C_3
REMARK    3  A    between atoms: C_5  and  C_6
REMARK    4  A    between atoms: N_7  and  N_8
REMARK    5  A    between atoms: C_21  and  O_22
REMARK    6  A    between atoms: O_22  and  C_23
REMARK    7  A    between atoms: C_23  and  C_24
REMARK    8  A    between atoms: N_26  and  C_27
REMARK    9  A    between atoms: N_26  and  C_28
REMARK                            x       y       z     vdW  Elec       q    Type
REMARK                         _______ _______ _______ _____ _____    ______ ____
ROOT
ATOM      1  C   UNL     1       3.333   5.960  19.248  0.00  0.00    +0.000 A 
ATOM      2  C   UNL     1       2.681   7.191  19.129  0.00  0.00    +0.000 A 
ATOM      3  C   UNL     1       2.874   8.001  18.007  0.00  0.00    +0.000 A 
ATOM      4  C   UNL     1       3.736   7.596  16.993  0.00  0.00    +0.000 A 
ATOM      5  C   UNL     1       4.381   6.353  17.098  0.00  0.00    +0.000 A 
ATOM      6 BR   UNL     1       5.537   5.855  15.671  0.00  0.00    +0.000 Br
ATOM      7  C   UNL     1       4.159   5.500  18.202  0.00  0.00    +0.000 A 
ENDROOT
BRANCH   1   9
ATOM      8  C   UNL     1       1.757   5.190  20.848  0.00  0.00    +0.000 C 
ATOM      9  O   UNL     1       3.084   5.160  20.333  0.00  0.00    +0.000 OA
ENDBRANCH   1   9
BRANCH   3  10
ATOM     10  C   UNL     1       2.101   9.256  17.893  0.00  0.00    +0.000 C 
ATOM     11  N   UNL     1       1.060   9.447  18.641  0.00  0.00    +0.000 NA
BRANCH  11  12
ATOM     12  N   UNL     1       0.333  10.570  18.381  0.00  0.00    +0.000 N 
ATOM     13  C   UNL     1      -0.480  11.107  19.320  0.00  0.00    +0.000 A 
ATOM     14  N   UNL     1      -1.550  11.850  19.157  0.00  0.00    +0.000 NA
ATOM     15  C   UNL     1      -2.007  12.106  20.431  0.00  0.00    +0.000 A 
ATOM     16  C   UNL     1      -3.133  12.827  20.853  0.00  0.00    +0.000 A 
ATOM     17  C   UNL     1      -3.367  12.968  22.228  0.00  0.00    +0.000 A 
ATOM     18  C   UNL     1      -2.498  12.402  23.164  0.00  0.00    +0.000 A 
ATOM     19  C   UNL     1      -1.377  11.664  22.764  0.00  0.00    +0.000 A 
ATOM     20  C   UNL     1      -1.173  11.534  21.388  0.00  0.00    +0.000 A 
ATOM     21  N   UNL     1      -0.222  10.888  20.647  0.00  0.00    +0.000 N 
ATOM     22  H   UNL     1       0.031  10.748  17.423  0.00  0.00    +0.000 HD
ATOM     23  H   UNL     1       0.552  10.334  20.975  0.00  0.00    +0.000 HD
ENDBRANCH  11  12
ENDBRANCH   3  10
BRANCH   7  24
ATOM     24  O   UNL     1       4.787   4.269  18.157  0.00  0.00    +0.000 OA
BRANCH  24  25
ATOM     25  C   UNL     1       4.104   3.249  17.448  0.00  0.00    +0.000 C 
BRANCH  25  26
ATOM     26  C   UNL     1       3.093   2.393  18.223  0.00  0.00    +0.000 C 
ATOM     27  O   UNL     1       3.436   1.398  18.856  0.00  0.00    +0.000 OA
ATOM     28  N   UNL     1       1.761   2.827  18.161  0.00  0.00    +0.000 N 
ATOM     29  C   UNL     1       1.283   3.996  17.430  0.00  0.00    +0.000 C 
ATOM     30  C   UNL     1       0.734   2.057  18.846  0.00  0.00    +0.000 C 
ENDBRANCH  25  26
ENDBRANCH  24  25
ENDBRANCH   7  24
TORSDOF 6
ENDMDL
MODEL 6
REMARK VINA RESULT:      -7.5      3.489      4.974
REMARK  Name = 
REMARK  9 active torsions:
REMARK  status: ('A' for Active; 'I' for Inactive)
REMARK    1  A    between atoms: C_1  and  O_2
REMARK    2  A    between atoms: O_2  and  C_3
REMARK    3  A    between atoms: C_5  and  C_6
REMARK    4  A    between atoms: N_7  and  N_8
REMARK    5  A    between atoms: C_21  and  O_22
REMARK    6  A    between atoms: O_22  and  C_23
REMARK    7  A    between atoms: C_23  and  C_24
REMARK    8  A    between atoms: N_26  and  C_27
REMARK    9  A    between atoms: N_26  and  C_28
REMARK                            x       y       z     vdW  Elec       q    Type
REMARK                         _______ _______ _______ _____ _____    ______ ____
ROOT
ATOM      1  C   UNL     1       3.029   6.250  19.397  0.00  0.00    +0.000 A 
ATOM      2  C   UNL     1       2.240   7.385  19.184  0.00  0.00    +0.000 A 
ATOM      3  C   UNL     1       2.446   8.204  18.071  0.00  0.00    +0.000 A 
ATOM      4  C   UNL     1       3.455   7.905  17.161  0.00  0.00    +0.000 A 
ATOM      5  C   UNL     1       4.238   6.757  17.360  0.00  0.00    +0.000 A 
ATOM      6 BR   UNL     1       5.593   6.401  16.072  0.00  0.00    +0.000 Br
ATOM      7  C   UNL     1       4.013   5.892  18.453  0.00  0.00    +0.000 A 
ENDROOT
BRANCH   1   9
ATOM      8  C   UNL     1       1.408   5.080  20.679  0.00  0.00    +0.000 C 
ATOM      9  O   UNL     1       2.772   5.433  20.468  0.00  0.00    +0.000 OA
ENDBRANCH   1   9
BRANCH   3  10
ATOM     10  C   UNL     1       1.535   9.347  17.850  0.00  0.00    +0.000 C 
ATOM     11  N   UNL     1       1.697  10.444  18.521  0.00  0.00    +0.000 NA
BRANCH  11  12
ATOM     12  N   UNL     1       0.738  11.398  18.351  0.00  0.00    +0.000 N 
ATOM     13  C   UNL     1      -0.165  11.661  19.323  0.00  0.00    +0.000 A 
ATOM     14  N   UNL     1      -1.373  12.162  19.212  0.00  0.00    +0.000 NA
ATOM     15  C   UNL     1      -1.865  12.200  20.498  0.00  0.00    +0.000 A 
ATOM     16  C   UNL     1      -3.119  12.618  20.968  0.00  0.00    +0.000 A 
ATOM     17  C   UNL     1      -3.368  12.585  22.347  0.00  0.00    +0.000 A 
ATOM     18  C   UNL     1      -2.388  12.145  23.241  0.00  0.00    +0.000 A 
ATOM     19  C   UNL     1      -1.136  11.708  22.792  0.00  0.00    +0.000 A 
ATOM     20  C   UNL     1      -0.919  11.745  21.412  0.00  0.00    +0.000 A 
ATOM     21  N   UNL     1       0.145  11.390  20.629  0.00  0.00    +0.000 N 
ATOM     22  H   UNL     1       0.397  11.588  17.408  0.00  0.00    +0.000 HD
ATOM     23  H   UNL     1       1.024  10.993  20.917  0.00  0.00    +0.000 HD
ENDBRANCH  11  12
ENDBRANCH   3  10
BRANCH   7  24
ATOM     24  O   UNL     1       4.794   4.753  18.501  0.00  0.00    +0.000 OA
BRANCH  24  25
ATOM     25  C   UNL     1       4.418   3.704  17.624  0.00  0.00    +0.000 C 
BRANCH  25  26
ATOM     26  C   UNL     1       3.010   3.113  17.780  0.00  0.00    +0.000 C 
ATOM     27  O   UNL     1       2.132   3.299  16.942  0.00  0.00    +0.000 OA
ATOM     28  N   UNL     1       2.800   2.349  18.937  0.00  0.00    +0.000 N 
ATOM     29  C   UNL     1       3.795   2.089  19.972  0.00  0.00    +0.000 C 
ATOM     30  C   UNL     1       1.485   1.774  19.176  0.00  0.00    +0.000 C 
ENDBRANCH  25  26
ENDBRANCH  24  25
ENDBRANCH   7  24
TORSDOF 6
ENDMDL
MODEL 7
REMARK VINA RESULT:      -7.4      2.800      3.834
REMARK  Name = 
REMARK  9 active torsions:
REMARK  status: ('A' for Active; 'I' for Inactive)
REMARK    1  A    between atoms: C_1  and  O_2
REMARK    2  A    between atoms: O_2  and  C_3
REMARK    3  A    between atoms: C_5  and  C_6
REMARK    4  A    between atoms: N_7  and  N_8
REMARK    5  A    between atoms: C_21  and  O_22
REMARK    6  A    between atoms: O_22  and  C_23
REMARK    7  A    between atoms: C_23  and  C_24
REMARK    8  A    between atoms: N_26  and  C_27
REMARK    9  A    between atoms: N_26  and  C_28
REMARK                            x       y       z     vdW  Elec       q    Type
REMARK                         _______ _______ _______ _____ _____    ______ ____
ROOT
ATOM      1  C   UNL     1       3.282   5.728  19.561  0.00  0.00    +0.000 A 
ATOM      2  C   UNL     1       2.482   6.870  19.670  0.00  0.00    +0.000 A 
ATOM      3  C   UNL     1       2.493   7.852  18.677  0.00  0.00    +0.000 A 
ATOM      4  C   UNL     1       3.316   7.712  17.564  0.00  0.00    +0.000 A 
ATOM      5  C   UNL     1       4.108   6.559  17.440  0.00  0.00    +0.000 A 
ATOM      6 BR   UNL     1       5.202   6.425  15.889  0.00  0.00    +0.000 Br
ATOM      7  C   UNL     1       4.073   5.534  18.411  0.00  0.00    +0.000 A 
ENDROOT
BRANCH   1   9
ATOM      8  C   UNL     1       1.936   4.546  21.120  0.00  0.00    +0.000 C 
ATOM      9  O   UNL     1       3.213   4.754  20.523  0.00  0.00    +0.000 OA
ENDBRANCH   1   9
BRANCH   3  10
ATOM     10  C   UNL     1       1.571   9.002  18.801  0.00  0.00    +0.000 C 
ATOM     11  N   UNL     1       1.633   9.977  17.950  0.00  0.00    +0.000 NA
BRANCH  11  12
ATOM     12  N   UNL     1       0.840  11.054  18.212  0.00  0.00    +0.000 N 
ATOM     13  C   UNL     1       1.371  12.285  18.390  0.00  0.00    +0.000 A 
ATOM     14  N   UNL     1       0.889  13.301  19.066  0.00  0.00    +0.000 NA
ATOM     15  C   UNL     1       1.833  14.296  18.941  0.00  0.00    +0.000 A 
ATOM     16  C   UNL     1       1.851  15.590  19.483  0.00  0.00    +0.000 A 
ATOM     17  C   UNL     1       2.931  16.433  19.179  0.00  0.00    +0.000 A 
ATOM     18  C   UNL     1       3.969  15.997  18.353  0.00  0.00    +0.000 A 
ATOM     19  C   UNL     1       3.978  14.704  17.815  0.00  0.00    +0.000 A 
ATOM     20  C   UNL     1       2.894  13.884  18.141  0.00  0.00    +0.000 A 
ATOM     21  N   UNL     1       2.579  12.592  17.823  0.00  0.00    +0.000 N 
ATOM     22  H   UNL     1      -0.037  10.906  18.713  0.00  0.00    +0.000 HD
ATOM     23  H   UNL     1       3.112  11.938  17.272  0.00  0.00    +0.000 HD
ENDBRANCH  11  12
ENDBRANCH   3  10
BRANCH   7  24
ATOM     24  O   UNL     1       4.836   4.413  18.142  0.00  0.00    +0.000 OA
BRANCH  24  25
ATOM     25  C   UNL     1       4.206   3.404  17.369  0.00  0.00    +0.000 C 
BRANCH  25  26
ATOM     26  C   UNL     1       3.260   2.437  18.093  0.00  0.00    +0.000 C 
ATOM     27  O   UNL     1       3.671   1.425  18.655  0.00  0.00    +0.000 OA
ATOM     28  N   UNL     1       1.902   2.788  18.069  0.00  0.00    +0.000 N 
ATOM     29  C   UNL     1       1.345   3.971  17.421  0.00  0.00    +0.000 C 
ATOM     30  C   UNL     1       0.933   1.911  18.708  0.00  0.00    +0.000 C 
ENDBRANCH  25  26
ENDBRANCH  24  25
ENDBRANCH   7  24
TORSDOF 6
ENDMDL
MODEL 8
REMARK VINA RESULT:      -7.4      2.867      3.591
REMARK  Name = 
REMARK  9 active torsions:
REMARK  status: ('A' for Active; 'I' for Inactive)
REMARK    1  A    between atoms: C_1  and  O_2
REMARK    2  A    between atoms: O_2  and  C_3
REMARK    3  A    between atoms: C_5  and  C_6
REMARK    4  A    between atoms: N_7  and  N_8
REMARK    5  A    between atoms: C_21  and  O_22
REMARK    6  A    between atoms: O_22  and  C_23
REMARK    7  A    between atoms: C_23  and  C_24
REMARK    8  A    between atoms: N_26  and  C_27
REMARK    9  A    between atoms: N_26  and  C_28
REMARK                            x       y       z     vdW  Elec       q    Type
REMARK                         _______ _______ _______ _____ _____    ______ ____
ROOT
ATOM      1  C   UNL     1       3.934   3.678  17.924  0.00  0.00    +0.000 A 
ATOM      2  C   UNL     1       2.998   4.278  18.772  0.00  0.00    +0.000 A 
ATOM      3  C   UNL     1       3.160   5.598  19.202  0.00  0.00    +0.000 A 
ATOM      4  C   UNL     1       4.271   6.332  18.800  0.00  0.00    +0.000 A 
ATOM      5  C   UNL     1       5.206   5.741  17.934  0.00  0.00    +0.000 A 
ATOM      6 BR   UNL     1       6.695   6.804  17.415  0.00  0.00    +0.000 Br
ATOM      7  C   UNL     1       5.032   4.425  17.451  0.00  0.00    +0.000 A 
ENDROOT
BRANCH   1   9
ATOM      8  C   UNL     1       3.603   1.392  18.472  0.00  0.00    +0.000 C 
ATOM      9  O   UNL     1       3.723   2.401  17.474  0.00  0.00    +0.000 OA
ENDBRANCH   1   9
BRANCH   3  10
ATOM     10  C   UNL     1       2.102   6.211  20.034  0.00  0.00    +0.000 C 
ATOM     11  N   UNL     1       2.178   7.464  20.359  0.00  0.00    +0.000 NA
BRANCH  11  12
ATOM     12  N   UNL     1       1.234   7.915  21.232  0.00  0.00    +0.000 N 
ATOM     13  C   UNL     1       0.567   9.070  21.002  0.00  0.00    +0.000 A 
ATOM     14  N   UNL     1       0.001   9.880  21.865  0.00  0.00    +0.000 NA
ATOM     15  C   UNL     1      -0.515  10.908  21.107  0.00  0.00    +0.000 A 
ATOM     16  C   UNL     1      -1.200  12.064  21.509  0.00  0.00    +0.000 A 
ATOM     17  C   UNL     1      -1.651  12.957  20.526  0.00  0.00    +0.000 A 
ATOM     18  C   UNL     1      -1.425  12.704  19.171  0.00  0.00    +0.000 A 
ATOM     19  C   UNL     1      -0.729  11.564  18.749  0.00  0.00    +0.000 A 
ATOM     20  C   UNL     1      -0.284  10.697  19.751  0.00  0.00    +0.000 A 
ATOM     21  N   UNL     1       0.424   9.528  19.719  0.00  0.00    +0.000 N 
ATOM     22  H   UNL     1       1.329   7.683  22.221  0.00  0.00    +0.000 HD
ATOM     23  H   UNL     1       0.799   9.048  18.917  0.00  0.00    +0.000 HD
ENDBRANCH  11  12
ENDBRANCH   3  10
BRANCH   7  24
ATOM     24  O   UNL     1       5.975   3.979  16.544  0.00  0.00    +0.000 OA
BRANCH  24  25
ATOM     25  C   UNL     1       5.608   4.060  15.177  0.00  0.00    +0.000 C 
BRANCH  25  26
ATOM     26  C   UNL     1       6.670   4.543  14.180  0.00  0.00    +0.000 C 
ATOM     27  O   UNL     1       7.596   5.274  14.522  0.00  0.00    +0.000 OA
ATOM     28  N   UNL     1       6.510   4.094  12.861  0.00  0.00    +0.000 N 
ATOM     29  C   UNL     1       5.435   3.229  12.386  0.00  0.00    +0.000 C 
ATOM     30  C   UNL     1       7.458   4.527  11.846  0.00  0.00    +0.000 C 
ENDBRANCH  25  26
ENDBRANCH  24  25
ENDBRANCH   7  24
TORSDOF 6
ENDMDL
MODEL 9
REMARK VINA RESULT:      -7.4      4.253      6.004
REMARK  Name = 
REMARK  9 active torsions:
REMARK  status: ('A' for Active; 'I' for Inactive)
REMARK    1  A    between atoms: C_1  and  O_2
REMARK    2  A    between atoms: O_2  and  C_3
REMARK    3  A    between atoms: C_5  and  C_6
REMARK    4  A    between atoms: N_7  and  N_8
REMARK    5  A    between atoms: C_21  and  O_22
REMARK    6  A    between atoms: O_22  and  C_23
REMARK    7  A    between atoms: C_23  and  C_24
REMARK    8  A    between atoms: N_26  and  C_27
REMARK    9  A    between atoms: N_26  and  C_28
REMARK                            x       y       z     vdW  Elec       q    Type
REMARK                         _______ _______ _______ _____ _____    ______ ____
ROOT
ATOM      1  C   UNL     1       6.404   5.281  16.349  0.00  0.00    +0.000 A 
ATOM      2  C   UNL     1       7.404   6.161  16.774  0.00  0.00    +0.000 A 
ATOM      3  C   UNL     1       7.094   7.280  17.550  0.00  0.00    +0.000 A 
ATOM      4  C   UNL     1       5.774   7.543  17.901  0.00  0.00    +0.000 A 
ATOM      5  C   UNL     1       4.767   6.654  17.493  0.00  0.00    +0.000 A 
ATOM      6 BR   UNL     1       2.985   7.067  18.017  0.00  0.00    +0.000 Br
ATOM      7  C   UNL     1       5.069   5.492  16.749  0.00  0.00    +0.000 A 
ENDROOT
BRANCH   1   9
ATOM      8  C   UNL     1       6.562   4.237  14.223  0.00  0.00    +0.000 C 
ATOM      9  O   UNL     1       6.741   4.161  15.634  0.00  0.00    +0.000 OA
ENDBRANCH   1   9
BRANCH   3  10
ATOM     10  C   UNL     1       8.197   8.136  18.039  0.00  0.00    +0.000 C 
ATOM     11  N   UNL     1       8.131   9.422  17.897  0.00  0.00    +0.000 NA
BRANCH  11  12
ATOM     12  N   UNL     1       9.243  10.123  18.257  0.00  0.00    +0.000 N 
ATOM     13  C   UNL     1       9.290  11.469  18.131  0.00  0.00    +0.000 A 
ATOM     14  N   UNL     1      10.336  12.247  17.979  0.00  0.00    +0.000 NA
ATOM     15  C   UNL     1       9.825  13.522  17.880  0.00  0.00    +0.000 A 
ATOM     16  C   UNL     1      10.487  14.742  17.680  0.00  0.00    +0.000 A 
ATOM     17  C   UNL     1       9.730  15.922  17.642  0.00  0.00    +0.000 A 
ATOM     18  C   UNL     1       8.342  15.887  17.799  0.00  0.00    +0.000 A 
ATOM     19  C   UNL     1       7.660  14.679  17.983  0.00  0.00    +0.000 A 
ATOM     20  C   UNL     1       8.439  13.519  18.009  0.00  0.00    +0.000 A 
ATOM     21  N   UNL     1       8.128  12.194  18.148  0.00  0.00    +0.000 N 
ATOM     22  H   UNL     1      10.154   9.669  18.184  0.00  0.00    +0.000 HD
ATOM     23  H   UNL     1       7.218  11.775  18.246  0.00  0.00    +0.000 HD
ENDBRANCH  11  12
ENDBRANCH   3  10
BRANCH   7  24
ATOM     24  O   UNL     1       4.006   4.653  16.472  0.00  0.00    +0.000 OA
BRANCH  24  25
ATOM     25  C   UNL     1       3.815   3.574  17.373  0.00  0.00    +0.000 C 
BRANCH  25  26
ATOM     26  C   UNL     1       2.435   3.424  18.026  0.00  0.00    +0.000 C 
ATOM     27  O   UNL     1       1.401   3.726  17.435  0.00  0.00    +0.000 OA
ATOM     28  N   UNL     1       2.436   2.920  19.334  0.00  0.00    +0.000 N 
ATOM     29  C   UNL     1       3.623   2.542  20.095  0.00  0.00    +0.000 C 
ATOM     30  C   UNL     1       1.171   2.771  20.037  0.00  0.00    +0.000 C 
ENDBRANCH  25  26
ENDBRANCH  24  25
ENDBRANCH   7  24
TORSDOF 6
ENDMDL
