MODEL 1
REMARK VINA RESULT:      -7.3      0.000      0.000
REMARK  Name = 
REMARK  12 active torsions:
REMARK  status: ('A' for Active; 'I' for Inactive)
REMARK    1  A    between atoms: C_2  and  C_3
REMARK    2  A    between atoms: C_3  and  C_13
REMARK    3  A    between atoms: C_4  and  C_5
REMARK    4  A    between atoms: C_8  and  O_9
REMARK    5  A    between atoms: C_10  and  O_11
REMARK    6  A    between atoms: C_13  and  O_15
REMARK    7  A    between atoms: O_15  and  C_16
REMARK    8  A    between atoms: C_16  and  C_17
REMARK    9  A    between atoms: C_17  and  O_18
REMARK   10  A    between atoms: C_17  and  C_19
REMARK   11  A    between atoms: C_19  and  O_20
REMARK   12  A    between atoms: C_19  and  C_21
REMARK                            x       y       z     vdW  Elec       q    Type
REMARK                         _______ _______ _______ _____ _____    ______ ____
ROOT
ATOM      1  C   UNL     1       6.585   6.967  17.109  0.00  0.00    +0.000 C 
ATOM      2  O   UNL     1       7.083   8.060  17.357  0.00  0.00    +0.000 OA
ENDROOT
BRANCH   1   3
ATOM      3  C   UNL     1       5.562   6.289  17.960  0.00  0.00    +0.000 C 
ATOM      4  C   UNL     1       4.262   6.437  17.640  0.00  0.00    +0.000 C 
BRANCH   4   5
ATOM      5  C   UNL     1       3.179   5.727  18.344  0.00  0.00    +0.000 A 
ATOM      6  C   UNL     1       2.737   6.163  19.603  0.00  0.00    +0.000 A 
ATOM      7  C   UNL     1       1.822   5.398  20.339  0.00  0.00    +0.000 A 
ATOM      8  C   UNL     1       1.340   4.211  19.800  0.00  0.00    +0.000 A 
ATOM      9  C   UNL     1       1.741   3.805  18.530  0.00  0.00    +0.000 A 
ATOM     10  C   UNL     1       2.655   4.550  17.795  0.00  0.00    +0.000 A 
BRANCH   8  11
ATOM     11  O   UNL     1       0.479   3.399  20.484  0.00  0.00    +0.000 OA
ATOM     12  H   UNL     1      -0.309   3.255  19.931  0.00  0.00    +0.000 HD
ENDBRANCH   8  11
BRANCH   9  13
ATOM     13  O   UNL     1       1.253   2.643  18.002  0.00  0.00    +0.000 OA
ATOM     14  H   UNL     1       0.578   2.932  17.355  0.00  0.00    +0.000 HD
ENDBRANCH   9  13
ENDBRANCH   4   5
BRANCH   3  16
ATOM     15  N   UNL     1       6.369   4.777  19.893  0.00  0.00    +0.000 NA
ATOM     16  C   UNL     1       6.003   5.450  19.020  0.00  0.00    +0.000 C 
ENDBRANCH   3  16
ENDBRANCH   1   3
BRANCH   1  17
ATOM     17  O   UNL     1       6.819   6.242  15.983  0.00  0.00    +0.000 OA
BRANCH  17  18
ATOM     18  C   UNL     1       7.460   4.957  16.166  0.00  0.00    +0.000 C 
BRANCH  18  19
ATOM     19  C   UNL     1       6.799   3.962  15.190  0.00  0.00    +0.000 C 
BRANCH  19  20
ATOM     20  O   UNL     1       5.615   3.422  15.797  0.00  0.00    +0.000 OA
ATOM     21  H   UNL     1       5.751   3.408  16.763  0.00  0.00    +0.000 HD
ENDBRANCH  19  20
BRANCH  19  22
ATOM     22  C   UNL     1       6.483   4.584  13.805  0.00  0.00    +0.000 C 
BRANCH  22  23
ATOM     23  C   UNL     1       6.217   3.572  12.694  0.00  0.00    +0.000 A 
ATOM     24  C   UNL     1       4.910   3.391  12.210  0.00  0.00    +0.000 A 
ATOM     25  C   UNL     1       4.630   2.411  11.251  0.00  0.00    +0.000 A 
ATOM     26  C   UNL     1       5.651   1.610  10.748  0.00  0.00    +0.000 A 
ATOM     27  C   UNL     1       6.958   1.809  11.179  0.00  0.00    +0.000 A 
ATOM     28  C   UNL     1       7.240   2.789  12.135  0.00  0.00    +0.000 A 
ENDBRANCH  22  23
BRANCH  22  29
ATOM     29  O   UNL     1       7.557   5.436  13.413  0.00  0.00    +0.000 OA
ATOM     30  H   UNL     1       7.372   5.728  12.502  0.00  0.00    +0.000 HD
ENDBRANCH  22  29
ENDBRANCH  19  22
ENDBRANCH  18  19
ENDBRANCH  17  18
ENDBRANCH   1  17
TORSDOF 12
ENDMDL
MODEL 2
REMARK VINA RESULT:      -7.2      2.996      5.372
REMARK  Name = 
REMARK  12 active torsions:
REMARK  status: ('A' for Active; 'I' for Inactive)
REMARK    1  A    between atoms: C_2  and  C_3
REMARK    2  A    between atoms: C_3  and  C_13
REMARK    3  A    between atoms: C_4  and  C_5
REMARK    4  A    between atoms: C_8  and  O_9
REMARK    5  A    between atoms: C_10  and  O_11
REMARK    6  A    between atoms: C_13  and  O_15
REMARK    7  A    between atoms: O_15  and  C_16
REMARK    8  A    between atoms: C_16  and  C_17
REMARK    9  A    between atoms: C_17  and  O_18
REMARK   10  A    between atoms: C_17  and  C_19
REMARK   11  A    between atoms: C_19  and  O_20
REMARK   12  A    between atoms: C_19  and  C_21
REMARK                            x       y       z     vdW  Elec       q    Type
REMARK                         _______ _______ _______ _____ _____    ______ ____
ROOT
ATOM      1  C   UNL     1       2.289   3.271  21.034  0.00  0.00    +0.000 C 
ATOM      2  O   UNL     1       2.107   3.231  22.247  0.00  0.00    +0.000 OA
ENDROOT
BRANCH   1   3
ATOM      3  C   UNL     1       1.950   4.437  20.165  0.00  0.00    +0.000 C 
ATOM      4  C   UNL     1       2.188   5.677  20.634  0.00  0.00    +0.000 C 
BRANCH   4   5
ATOM      5  C   UNL     1       1.993   6.891  19.822  0.00  0.00    +0.000 A 
ATOM      6  C   UNL     1       2.608   7.020  18.567  0.00  0.00    +0.000 A 
ATOM      7  C   UNL     1       2.552   8.233  17.869  0.00  0.00    +0.000 A 
ATOM      8  C   UNL     1       1.862   9.305  18.423  0.00  0.00    +0.000 A 
ATOM      9  C   UNL     1       1.209   9.161  19.644  0.00  0.00    +0.000 A 
ATOM     10  C   UNL     1       1.266   7.965  20.350  0.00  0.00    +0.000 A 
BRANCH   8  11
ATOM     11  O   UNL     1       1.805  10.527  17.812  0.00  0.00    +0.000 OA
ATOM     12  H   UNL     1       1.063  11.026  18.197  0.00  0.00    +0.000 HD
ENDBRANCH   8  11
BRANCH   9  13
ATOM     13  O   UNL     1       0.522  10.215  20.176  0.00  0.00    +0.000 OA
ATOM     14  H   UNL     1       0.469  10.866  19.449  0.00  0.00    +0.000 HD
ENDBRANCH   9  13
ENDBRANCH   4   5
BRANCH   3  16
ATOM     15  N   UNL     1       1.090   3.991  17.770  0.00  0.00    +0.000 NA
ATOM     16  C   UNL     1       1.469   4.191  18.850  0.00  0.00    +0.000 C 
ENDBRANCH   3  16
ENDBRANCH   1   3
BRANCH   1  17
ATOM     17  O   UNL     1       2.904   2.301  20.307  0.00  0.00    +0.000 OA
BRANCH  17  18
ATOM     18  C   UNL     1       4.351   2.328  20.291  0.00  0.00    +0.000 C 
BRANCH  18  19
ATOM     19  C   UNL     1       4.798   2.632  18.847  0.00  0.00    +0.000 C 
BRANCH  19  20
ATOM     20  O   UNL     1       3.809   2.134  17.933  0.00  0.00    +0.000 OA
ATOM     21  H   UNL     1       3.927   2.594  17.080  0.00  0.00    +0.000 HD
ENDBRANCH  19  20
BRANCH  19  22
ATOM     22  C   UNL     1       5.080   4.137  18.599  0.00  0.00    +0.000 C 
BRANCH  22  23
ATOM     23  C   UNL     1       5.380   4.502  17.148  0.00  0.00    +0.000 A 
ATOM     24  C   UNL     1       5.106   5.798  16.680  0.00  0.00    +0.000 A 
ATOM     25  C   UNL     1       5.295   6.131  15.334  0.00  0.00    +0.000 A 
ATOM     26  C   UNL     1       5.778   5.181  14.438  0.00  0.00    +0.000 A 
ATOM     27  C   UNL     1       6.102   3.907  14.894  0.00  0.00    +0.000 A 
ATOM     28  C   UNL     1       5.915   3.575  16.239  0.00  0.00    +0.000 A 
ENDBRANCH  22  23
BRANCH  22  29
ATOM     29  O   UNL     1       6.167   4.557  19.420  0.00  0.00    +0.000 OA
ATOM     30  H   UNL     1       6.650   5.243  18.926  0.00  0.00    +0.000 HD
ENDBRANCH  22  29
ENDBRANCH  19  22
ENDBRANCH  18  19
ENDBRANCH  17  18
ENDBRANCH   1  17
TORSDOF 12
ENDMDL
MODEL 3
REMARK VINA RESULT:      -7.1      5.179      8.780
REMARK  Name = 
REMARK  12 active torsions:
REMARK  status: ('A' for Active; 'I' for Inactive)
REMARK    1  A    between atoms: C_2  and  C_3
REMARK    2  A    between atoms: C_3  and  C_13
REMARK    3  A    between atoms: C_4  and  C_5
REMARK    4  A    between atoms: C_8  and  O_9
REMARK    5  A    between atoms: C_10  and  O_11
REMARK    6  A    between atoms: C_13  and  O_15
REMARK    7  A    between atoms: O_15  and  C_16
REMARK    8  A    between atoms: C_16  and  C_17
REMARK    9  A    between atoms: C_17  and  O_18
REMARK   10  A    between atoms: C_17  and  C_19
REMARK   11  A    between atoms: C_19  and  O_20
REMARK   12  A    between atoms: C_19  and  C_21
REMARK                            x       y       z     vdW  Elec       q    Type
REMARK                         _______ _______ _______ _____ _____    ______ ____
ROOT
ATOM      1  C   UNL     1       1.380   8.425  20.937  0.00  0.00    +0.000 C 
ATOM      2  O   UNL     1       1.634   8.643  22.117  0.00  0.00    +0.000 OA
ENDROOT
BRANCH   1   3
ATOM      3  C   UNL     1       1.904   7.262  20.159  0.00  0.00    +0.000 C 
ATOM      4  C   UNL     1       1.795   6.031  20.695  0.00  0.00    +0.000 C 
BRANCH   4   5
ATOM      5  C   UNL     1       2.179   4.806  19.970  0.00  0.00    +0.000 A 
ATOM      6  C   UNL     1       1.201   3.959  19.428  0.00  0.00    +0.000 A 
ATOM      7  C   UNL     1       1.558   2.719  18.881  0.00  0.00    +0.000 A 
ATOM      8  C   UNL     1       2.897   2.346  18.861  0.00  0.00    +0.000 A 
ATOM      9  C   UNL     1       3.872   3.210  19.353  0.00  0.00    +0.000 A 
ATOM     10  C   UNL     1       3.527   4.437  19.907  0.00  0.00    +0.000 A 
BRANCH   8  11
ATOM     11  O   UNL     1       3.306   1.134  18.380  0.00  0.00    +0.000 OA
ATOM     12  H   UNL     1       2.776   0.440  18.809  0.00  0.00    +0.000 HD
ENDBRANCH   8  11
BRANCH   9  13
ATOM     13  O   UNL     1       5.187   2.841  19.319  0.00  0.00    +0.000 OA
ATOM     14  H   UNL     1       5.405   2.624  20.248  0.00  0.00    +0.000 HD
ENDBRANCH   9  13
ENDBRANCH   4   5
BRANCH   3  16
ATOM     15  N   UNL     1       2.828   7.676  17.782  0.00  0.00    +0.000 NA
ATOM     16  C   UNL     1       2.420   7.491  18.855  0.00  0.00    +0.000 C 
ENDBRANCH   3  16
ENDBRANCH   1   3
BRANCH   1  17
ATOM     17  O   UNL     1       0.517   9.151  20.179  0.00  0.00    +0.000 OA
BRANCH  17  18
ATOM     18  C   UNL     1      -0.405  10.008  20.894  0.00  0.00    +0.000 C 
BRANCH  18  19
ATOM     19  C   UNL     1      -0.047  11.469  20.554  0.00  0.00    +0.000 C 
BRANCH  19  20
ATOM     20  O   UNL     1       1.289  11.743  21.004  0.00  0.00    +0.000 OA
ATOM     21  H   UNL     1       1.824  10.938  20.869  0.00  0.00    +0.000 HD
ENDBRANCH  19  20
BRANCH  19  22
ATOM     22  C   UNL     1      -0.208  11.802  19.048  0.00  0.00    +0.000 C 
BRANCH  22  23
ATOM     23  C   UNL     1      -1.526  11.347  18.428  0.00  0.00    +0.000 A 
ATOM     24  C   UNL     1      -2.728  11.971  18.801  0.00  0.00    +0.000 A 
ATOM     25  C   UNL     1      -3.956  11.515  18.309  0.00  0.00    +0.000 A 
ATOM     26  C   UNL     1      -4.002  10.442  17.424  0.00  0.00    +0.000 A 
ATOM     27  C   UNL     1      -2.818   9.845  17.004  0.00  0.00    +0.000 A 
ATOM     28  C   UNL     1      -1.590  10.301  17.493  0.00  0.00    +0.000 A 
ENDBRANCH  22  23
BRANCH  22  29
ATOM     29  O   UNL     1       0.874  11.228  18.318  0.00  0.00    +0.000 OA
ATOM     30  H   UNL     1       1.087  11.841  17.592  0.00  0.00    +0.000 HD
ENDBRANCH  22  29
ENDBRANCH  19  22
ENDBRANCH  18  19
ENDBRANCH  17  18
ENDBRANCH   1  17
TORSDOF 12
ENDMDL
MODEL 4
REMARK VINA RESULT:      -6.9      4.500      6.350
REMARK  Name = 
REMARK  12 active torsions:
REMARK  status: ('A' for Active; 'I' for Inactive)
REMARK    1  A    between atoms: C_2  and  C_3
REMARK    2  A    between atoms: C_3  and  C_13
REMARK    3  A    between atoms: C_4  and  C_5
REMARK    4  A    between atoms: C_8  and  O_9
REMARK    5  A    between atoms: C_10  and  O_11
REMARK    6  A    between atoms: C_13  and  O_15
REMARK    7  A    between atoms: O_15  and  C_16
REMARK    8  A    between atoms: C_16  and  C_17
REMARK    9  A    between atoms: C_17  and  O_18
REMARK   10  A    between atoms: C_17  and  C_19
REMARK   11  A    between atoms: C_19  and  O_20
REMARK   12  A    between atoms: C_19  and  C_21
REMARK                            x       y       z     vdW  Elec       q    Type
REMARK                         _______ _______ _______ _____ _____    ______ ____
ROOT
ATOM      1  C   UNL     1       2.776   6.885  18.952  0.00  0.00    +0.000 C 
ATOM      2  O   UNL     1       2.947   5.989  19.771  0.00  0.00    +0.000 OA
ENDROOT
BRANCH   1   3
ATOM      3  C   UNL     1       1.992   8.130  19.209  0.00  0.00    +0.000 C 
ATOM      4  C   UNL     1       1.733   8.950  18.172  0.00  0.00    +0.000 C 
BRANCH   4   5
ATOM      5  C   UNL     1       0.879  10.145  18.291  0.00  0.00    +0.000 A 
ATOM      6  C   UNL     1       1.422  11.377  18.688  0.00  0.00    +0.000 A 
ATOM      7  C   UNL     1       0.586  12.470  18.953  0.00  0.00    +0.000 A 
ATOM      8  C   UNL     1      -0.788  12.327  18.799  0.00  0.00    +0.000 A 
ATOM      9  C   UNL     1      -1.322  11.120  18.357  0.00  0.00    +0.000 A 
ATOM     10  C   UNL     1      -0.503  10.027  18.100  0.00  0.00    +0.000 A 
BRANCH   8  11
ATOM     11  O   UNL     1      -1.660  13.342  19.082  0.00  0.00    +0.000 OA
ATOM     12  H   UNL     1      -2.532  12.952  19.265  0.00  0.00    +0.000 HD
ENDBRANCH   8  11
BRANCH   9  13
ATOM     13  O   UNL     1      -2.672  10.992  18.196  0.00  0.00    +0.000 OA
ATOM     14  H   UNL     1      -2.775  10.246  17.572  0.00  0.00    +0.000 HD
ENDBRANCH   9  13
ENDBRANCH   4   5
BRANCH   3  16
ATOM     15  N   UNL     1       1.062   8.557  21.581  0.00  0.00    +0.000 NA
ATOM     16  C   UNL     1       1.480   8.356  20.515  0.00  0.00    +0.000 C 
ENDBRANCH   3  16
ENDBRANCH   1   3
BRANCH   1  17
ATOM     17  O   UNL     1       3.341   6.929  17.716  0.00  0.00    +0.000 OA
BRANCH  17  18
ATOM     18  C   UNL     1       4.720   6.497  17.623  0.00  0.00    +0.000 C 
BRANCH  18  19
ATOM     19  C   UNL     1       4.834   5.554  16.408  0.00  0.00    +0.000 C 
BRANCH  19  20
ATOM     20  O   UNL     1       5.865   6.036  15.533  0.00  0.00    +0.000 OA
ATOM     21  H   UNL     1       6.413   5.274  15.264  0.00  0.00    +0.000 HD
ENDBRANCH  19  20
BRANCH  19  22
ATOM     22  C   UNL     1       5.083   4.075  16.803  0.00  0.00    +0.000 C 
BRANCH  22  23
ATOM     23  C   UNL     1       4.016   3.464  17.707  0.00  0.00    +0.000 A 
ATOM     24  C   UNL     1       2.675   3.438  17.288  0.00  0.00    +0.000 A 
ATOM     25  C   UNL     1       1.668   2.959  18.134  0.00  0.00    +0.000 A 
ATOM     26  C   UNL     1       1.986   2.483  19.403  0.00  0.00    +0.000 A 
ATOM     27  C   UNL     1       3.315   2.456  19.815  0.00  0.00    +0.000 A 
ATOM     28  C   UNL     1       4.321   2.932  18.970  0.00  0.00    +0.000 A 
ENDBRANCH  22  23
BRANCH  22  29
ATOM     29  O   UNL     1       6.354   3.964  17.442  0.00  0.00    +0.000 OA
ATOM     30  H   UNL     1       6.942   4.617  17.023  0.00  0.00    +0.000 HD
ENDBRANCH  22  29
ENDBRANCH  19  22
ENDBRANCH  18  19
ENDBRANCH  17  18
ENDBRANCH   1  17
TORSDOF 12
ENDMDL
MODEL 5
REMARK VINA RESULT:      -6.9      6.141     11.019
REMARK  Name = 
REMARK  12 active torsions:
REMARK  status: ('A' for Active; 'I' for Inactive)
REMARK    1  A    between atoms: C_2  and  C_3
REMARK    2  A    between atoms: C_3  and  C_13
REMARK    3  A    between atoms: C_4  and  C_5
REMARK    4  A    between atoms: C_8  and  O_9
REMARK    5  A    between atoms: C_10  and  O_11
REMARK    6  A    between atoms: C_13  and  O_15
REMARK    7  A    between atoms: O_15  and  C_16
REMARK    8  A    between atoms: C_16  and  C_17
REMARK    9  A    between atoms: C_17  and  O_18
REMARK   10  A    between atoms: C_17  and  C_19
REMARK   11  A    between atoms: C_19  and  O_20
REMARK   12  A    between atoms: C_19  and  C_21
REMARK                            x       y       z     vdW  Elec       q    Type
REMARK                         _______ _______ _______ _____ _____    ______ ____
ROOT
ATOM      1  C   UNL     1       1.098   8.681  20.702  0.00  0.00    +0.000 C 
ATOM      2  O   UNL     1       0.703   8.336  21.811  0.00  0.00    +0.000 OA
ENDROOT
BRANCH   1   3
ATOM      3  C   UNL     1       1.864   7.804  19.765  0.00  0.00    +0.000 C 
ATOM      4  C   UNL     1       2.154   6.548  20.156  0.00  0.00    +0.000 C 
BRANCH   4   5
ATOM      5  C   UNL     1       2.808   5.566  19.273  0.00  0.00    +0.000 A 
ATOM      6  C   UNL     1       2.055   4.808  18.364  0.00  0.00    +0.000 A 
ATOM      7  C   UNL     1       2.653   3.767  17.640  0.00  0.00    +0.000 A 
ATOM      8  C   UNL     1       4.006   3.506  17.817  0.00  0.00    +0.000 A 
ATOM      9  C   UNL     1       4.764   4.292  18.681  0.00  0.00    +0.000 A 
ATOM     10  C   UNL     1       4.180   5.320  19.411  0.00  0.00    +0.000 A 
BRANCH   8  11
ATOM     11  O   UNL     1       4.639   2.479  17.173  0.00  0.00    +0.000 OA
ATOM     12  H   UNL     1       5.511   2.795  16.879  0.00  0.00    +0.000 HD
ENDBRANCH   8  11
BRANCH   9  13
ATOM     13  O   UNL     1       6.097   4.037  18.840  0.00  0.00    +0.000 OA
ATOM     14  H   UNL     1       6.231   4.030  19.809  0.00  0.00    +0.000 HD
ENDBRANCH   9  13
ENDBRANCH   4   5
BRANCH   3  16
ATOM     15  N   UNL     1       2.451   8.694  17.412  0.00  0.00    +0.000 NA
ATOM     16  C   UNL     1       2.182   8.300  18.472  0.00  0.00    +0.000 C 
ENDBRANCH   3  16
ENDBRANCH   1   3
BRANCH   1  17
ATOM     17  O   UNL     1       0.829   9.877  20.116  0.00  0.00    +0.000 OA
BRANCH  17  18
ATOM     18  C   UNL     1       0.956  11.049  20.958  0.00  0.00    +0.000 C 
BRANCH  18  19
ATOM     19  C   UNL     1      -0.446  11.672  21.107  0.00  0.00    +0.000 C 
BRANCH  19  20
ATOM     20  O   UNL     1      -1.229  11.352  19.946  0.00  0.00    +0.000 OA
ATOM     21  H   UNL     1      -1.844  10.634  20.186  0.00  0.00    +0.000 HD
ENDBRANCH  19  20
BRANCH  19  22
ATOM     22  C   UNL     1      -1.173  11.239  22.407  0.00  0.00    +0.000 C 
BRANCH  22  23
ATOM     23  C   UNL     1      -1.910  12.361  23.133  0.00  0.00    +0.000 A 
ATOM     24  C   UNL     1      -1.277  13.598  23.338  0.00  0.00    +0.000 A 
ATOM     25  C   UNL     1      -1.902  14.611  24.074  0.00  0.00    +0.000 A 
ATOM     26  C   UNL     1      -3.174  14.411  24.601  0.00  0.00    +0.000 A 
ATOM     27  C   UNL     1      -3.836  13.211  24.365  0.00  0.00    +0.000 A 
ATOM     28  C   UNL     1      -3.214  12.199  23.629  0.00  0.00    +0.000 A 
ENDBRANCH  22  23
BRANCH  22  29
ATOM     29  O   UNL     1      -0.232  10.645  23.299  0.00  0.00    +0.000 OA
ATOM     30  H   UNL     1      -0.730  10.346  24.081  0.00  0.00    +0.000 HD
ENDBRANCH  22  29
ENDBRANCH  19  22
ENDBRANCH  18  19
ENDBRANCH  17  18
ENDBRANCH   1  17
TORSDOF 12
ENDMDL
MODEL 6
REMARK VINA RESULT:      -6.8      3.529      5.850
REMARK  Name = 
REMARK  12 active torsions:
REMARK  status: ('A' for Active; 'I' for Inactive)
REMARK    1  A    between atoms: C_2  and  C_3
REMARK    2  A    between atoms: C_3  and  C_13
REMARK    3  A    between atoms: C_4  and  C_5
REMARK    4  A    between atoms: C_8  and  O_9
REMARK    5  A    between atoms: C_10  and  O_11
REMARK    6  A    between atoms: C_13  and  O_15
REMARK    7  A    between atoms: O_15  and  C_16
REMARK    8  A    between atoms: C_16  and  C_17
REMARK    9  A    between atoms: C_17  and  O_18
REMARK   10  A    between atoms: C_17  and  C_19
REMARK   11  A    between atoms: C_19  and  O_20
REMARK   12  A    between atoms: C_19  and  C_21
REMARK                            x       y       z     vdW  Elec       q    Type
REMARK                         _______ _______ _______ _____ _____    ______ ____
ROOT
ATOM      1  C   UNL     1       1.830   3.420  20.894  0.00  0.00    +0.000 C 
ATOM      2  O   UNL     1       2.089   3.349  22.092  0.00  0.00    +0.000 OA
ENDROOT
BRANCH   1   3
ATOM      3  C   UNL     1       1.652   4.697  20.141  0.00  0.00    +0.000 C 
ATOM      4  C   UNL     1       1.846   5.859  20.794  0.00  0.00    +0.000 C 
BRANCH   4   5
ATOM      5  C   UNL     1       1.803   7.171  20.124  0.00  0.00    +0.000 A 
ATOM      6  C   UNL     1       1.049   8.225  20.662  0.00  0.00    +0.000 A 
ATOM      7  C   UNL     1       0.880   9.417  19.944  0.00  0.00    +0.000 A 
ATOM      8  C   UNL     1       1.486   9.553  18.701  0.00  0.00    +0.000 A 
ATOM      9  C   UNL     1       2.276   8.526  18.190  0.00  0.00    +0.000 A 
ATOM     10  C   UNL     1       2.441   7.336  18.889  0.00  0.00    +0.000 A 
BRANCH   8  11
ATOM     11  O   UNL     1       1.327  10.672  17.932  0.00  0.00    +0.000 OA
ATOM     12  H   UNL     1       0.630  11.221  18.334  0.00  0.00    +0.000 HD
ENDBRANCH   8  11
BRANCH   9  13
ATOM     13  O   UNL     1       2.878   8.671  16.972  0.00  0.00    +0.000 OA
ATOM     14  H   UNL     1       3.561   9.357  17.117  0.00  0.00    +0.000 HD
ENDBRANCH   9  13
ENDBRANCH   4   5
BRANCH   3  16
ATOM     15  N   UNL     1       1.134   4.570  17.613  0.00  0.00    +0.000 NA
ATOM     16  C   UNL     1       1.366   4.635  18.750  0.00  0.00    +0.000 C 
ENDBRANCH   3  16
ENDBRANCH   1   3
BRANCH   1  17
ATOM     17  O   UNL     1       1.751   2.358  20.050  0.00  0.00    +0.000 OA
BRANCH  17  18
ATOM     18  C   UNL     1       2.889   1.462  20.033  0.00  0.00    +0.000 C 
BRANCH  18  19
ATOM     19  C   UNL     1       4.120   2.279  19.591  0.00  0.00    +0.000 C 
BRANCH  19  20
ATOM     20  O   UNL     1       5.305   1.674  20.132  0.00  0.00    +0.000 OA
ATOM     21  H   UNL     1       5.781   1.237  19.401  0.00  0.00    +0.000 HD
ENDBRANCH  19  20
BRANCH  19  22
ATOM     22  C   UNL     1       4.227   2.438  18.052  0.00  0.00    +0.000 C 
BRANCH  22  23
ATOM     23  C   UNL     1       4.736   3.798  17.582  0.00  0.00    +0.000 A 
ATOM     24  C   UNL     1       5.154   4.753  18.523  0.00  0.00    +0.000 A 
ATOM     25  C   UNL     1       5.545   6.034  18.120  0.00  0.00    +0.000 A 
ATOM     26  C   UNL     1       5.542   6.376  16.770  0.00  0.00    +0.000 A 
ATOM     27  C   UNL     1       5.179   5.427  15.821  0.00  0.00    +0.000 A 
ATOM     28  C   UNL     1       4.790   4.146  16.222  0.00  0.00    +0.000 A 
ENDBRANCH  22  23
BRANCH  22  29
ATOM     29  O   UNL     1       2.954   2.187  17.461  0.00  0.00    +0.000 OA
ATOM     30  H   UNL     1       2.986   2.537  16.553  0.00  0.00    +0.000 HD
ENDBRANCH  22  29
ENDBRANCH  19  22
ENDBRANCH  18  19
ENDBRANCH  17  18
ENDBRANCH   1  17
TORSDOF 12
ENDMDL
MODEL 7
REMARK VINA RESULT:      -6.8      5.398      9.005
REMARK  Name = 
REMARK  12 active torsions:
REMARK  status: ('A' for Active; 'I' for Inactive)
REMARK    1  A    between atoms: C_2  and  C_3
REMARK    2  A    between atoms: C_3  and  C_13
REMARK    3  A    between atoms: C_4  and  C_5
REMARK    4  A    between atoms: C_8  and  O_9
REMARK    5  A    between atoms: C_10  and  O_11
REMARK    6  A    between atoms: C_13  and  O_15
REMARK    7  A    between atoms: O_15  and  C_16
REMARK    8  A    between atoms: C_16  and  C_17
REMARK    9  A    between atoms: C_17  and  O_18
REMARK   10  A    between atoms: C_17  and  C_19
REMARK   11  A    between atoms: C_19  and  O_20
REMARK   12  A    between atoms: C_19  and  C_21
REMARK                            x       y       z     vdW  Elec       q    Type
REMARK                         _______ _______ _______ _____ _____    ______ ____
ROOT
ATOM      1  C   UNL     1       1.182   8.631  20.819  0.00  0.00    +0.000 C 
ATOM      2  O   UNL     1       1.052   8.366  22.009  0.00  0.00    +0.000 OA
ENDROOT
BRANCH   1   3
ATOM      3  C   UNL     1       1.918   7.780  19.836  0.00  0.00    +0.000 C 
ATOM      4  C   UNL     1       2.246   6.524  20.197  0.00  0.00    +0.000 C 
BRANCH   4   5
ATOM      5  C   UNL     1       2.875   5.564  19.272  0.00  0.00    +0.000 A 
ATOM      6  C   UNL     1       2.099   4.847  18.349  0.00  0.00    +0.000 A 
ATOM      7  C   UNL     1       2.672   3.823  17.582  0.00  0.00    +0.000 A 
ATOM      8  C   UNL     1       4.024   3.540  17.730  0.00  0.00    +0.000 A 
ATOM      9  C   UNL     1       4.805   4.286  18.609  0.00  0.00    +0.000 A 
ATOM     10  C   UNL     1       4.244   5.296  19.382  0.00  0.00    +0.000 A 
BRANCH   8  11
ATOM     11  O   UNL     1       4.634   2.527  17.043  0.00  0.00    +0.000 OA
ATOM     12  H   UNL     1       4.483   1.696  17.526  0.00  0.00    +0.000 HD
ENDBRANCH   8  11
BRANCH   9  13
ATOM     13  O   UNL     1       6.136   4.009  18.740  0.00  0.00    +0.000 OA
ATOM     14  H   UNL     1       6.582   4.864  18.577  0.00  0.00    +0.000 HD
ENDBRANCH   9  13
ENDBRANCH   4   5
BRANCH   3  16
ATOM     15  N   UNL     1       2.374   8.733  17.479  0.00  0.00    +0.000 NA
ATOM     16  C   UNL     1       2.167   8.297  18.537  0.00  0.00    +0.000 C 
ENDBRANCH   3  16
ENDBRANCH   1   3
BRANCH   1  17
ATOM     17  O   UNL     1       0.607   9.690  20.189  0.00  0.00    +0.000 OA
BRANCH  17  18
ATOM     18  C   UNL     1       0.984  11.004  20.666  0.00  0.00    +0.000 C 
BRANCH  18  19
ATOM     19  C   UNL     1      -0.134  11.987  20.263  0.00  0.00    +0.000 C 
BRANCH  19  20
ATOM     20  O   UNL     1       0.173  13.289  20.784  0.00  0.00    +0.000 OA
ATOM     21  H   UNL     1       0.108  13.930  20.051  0.00  0.00    +0.000 HD
ENDBRANCH  19  20
BRANCH  19  22
ATOM     22  C   UNL     1      -0.378  12.041  18.732  0.00  0.00    +0.000 C 
BRANCH  22  23
ATOM     23  C   UNL     1      -1.711  11.456  18.274  0.00  0.00    +0.000 A 
ATOM     24  C   UNL     1      -2.916  12.034  18.708  0.00  0.00    +0.000 A 
ATOM     25  C   UNL     1      -4.148  11.464  18.368  0.00  0.00    +0.000 A 
ATOM     26  C   UNL     1      -4.197  10.320  17.577  0.00  0.00    +0.000 A 
ATOM     27  C   UNL     1      -3.016   9.763  17.098  0.00  0.00    +0.000 A 
ATOM     28  C   UNL     1      -1.785  10.332  17.434  0.00  0.00    +0.000 A 
ENDBRANCH  22  23
BRANCH  22  29
ATOM     29  O   UNL     1       0.683  11.365  18.060  0.00  0.00    +0.000 OA
ATOM     30  H   UNL     1       1.452  11.963  18.066  0.00  0.00    +0.000 HD
ENDBRANCH  22  29
ENDBRANCH  19  22
ENDBRANCH  18  19
ENDBRANCH  17  18
ENDBRANCH   1  17
TORSDOF 12
ENDMDL
MODEL 8
REMARK VINA RESULT:      -6.8      4.464      7.044
REMARK  Name = 
REMARK  12 active torsions:
REMARK  status: ('A' for Active; 'I' for Inactive)
REMARK    1  A    between atoms: C_2  and  C_3
REMARK    2  A    between atoms: C_3  and  C_13
REMARK    3  A    between atoms: C_4  and  C_5
REMARK    4  A    between atoms: C_8  and  O_9
REMARK    5  A    between atoms: C_10  and  O_11
REMARK    6  A    between atoms: C_13  and  O_15
REMARK    7  A    between atoms: O_15  and  C_16
REMARK    8  A    between atoms: C_16  and  C_17
REMARK    9  A    between atoms: C_17  and  O_18
REMARK   10  A    between atoms: C_17  and  C_19
REMARK   11  A    between atoms: C_19  and  O_20
REMARK   12  A    between atoms: C_19  and  C_21
REMARK                            x       y       z     vdW  Elec       q    Type
REMARK                         _______ _______ _______ _____ _____    ______ ____
ROOT
ATOM      1  C   UNL     1       3.372   7.248  17.916  0.00  0.00    +0.000 C 
ATOM      2  O   UNL     1       4.140   7.568  17.013  0.00  0.00    +0.000 OA
ENDROOT
BRANCH   1   3
ATOM      3  C   UNL     1       2.338   8.150  18.506  0.00  0.00    +0.000 C 
ATOM      4  C   UNL     1       1.843   9.143  17.743  0.00  0.00    +0.000 C 
BRANCH   4   5
ATOM      5  C   UNL     1       0.745  10.021  18.186  0.00  0.00    +0.000 A 
ATOM      6  C   UNL     1      -0.586   9.725  17.854  0.00  0.00    +0.000 A 
ATOM      7  C   UNL     1      -1.610  10.640  18.138  0.00  0.00    +0.000 A 
ATOM      8  C   UNL     1      -1.295  11.836  18.771  0.00  0.00    +0.000 A 
ATOM      9  C   UNL     1       0.018  12.107  19.145  0.00  0.00    +0.000 A 
ATOM     10  C   UNL     1       1.042  11.211  18.859  0.00  0.00    +0.000 A 
BRANCH   8  11
ATOM     11  O   UNL     1      -2.240  12.788  19.037  0.00  0.00    +0.000 OA
ATOM     12  H   UNL     1      -2.370  13.322  18.234  0.00  0.00    +0.000 HD
ENDBRANCH   8  11
BRANCH   9  13
ATOM     13  O   UNL     1       0.318  13.280  19.778  0.00  0.00    +0.000 OA
ATOM     14  H   UNL     1      -0.081  13.972  19.213  0.00  0.00    +0.000 HD
ENDBRANCH   9  13
ENDBRANCH   4   5
BRANCH   3  16
ATOM     15  N   UNL     1       1.473   7.634  20.885  0.00  0.00    +0.000 NA
ATOM     16  C   UNL     1       1.859   7.874  19.815  0.00  0.00    +0.000 C 
ENDBRANCH   3  16
ENDBRANCH   1   3
BRANCH   1  17
ATOM     17  O   UNL     1       3.283   6.006  18.460  0.00  0.00    +0.000 OA
BRANCH  17  18
ATOM     18  C   UNL     1       4.496   5.470  19.043  0.00  0.00    +0.000 C 
BRANCH  18  19
ATOM     19  C   UNL     1       4.912   4.241  18.209  0.00  0.00    +0.000 C 
BRANCH  19  20
ATOM     20  O   UNL     1       6.068   3.635  18.808  0.00  0.00    +0.000 OA
ATOM     21  H   UNL     1       6.341   4.189  19.564  0.00  0.00    +0.000 HD
ENDBRANCH  19  20
BRANCH  19  22
ATOM     22  C   UNL     1       3.769   3.208  18.031  0.00  0.00    +0.000 C 
BRANCH  22  23
ATOM     23  C   UNL     1       2.884   3.014  19.259  0.00  0.00    +0.000 A 
ATOM     24  C   UNL     1       1.503   3.256  19.172  0.00  0.00    +0.000 A 
ATOM     25  C   UNL     1       0.686   3.165  20.304  0.00  0.00    +0.000 A 
ATOM     26  C   UNL     1       1.231   2.814  21.536  0.00  0.00    +0.000 A 
ATOM     27  C   UNL     1       2.588   2.521  21.629  0.00  0.00    +0.000 A 
ATOM     28  C   UNL     1       3.404   2.610  20.499  0.00  0.00    +0.000 A 
ENDBRANCH  22  23
BRANCH  22  29
ATOM     29  O   UNL     1       4.323   1.950  17.651  0.00  0.00    +0.000 OA
ATOM     30  H   UNL     1       5.085   2.136  17.073  0.00  0.00    +0.000 HD
ENDBRANCH  22  29
ENDBRANCH  19  22
ENDBRANCH  18  19
ENDBRANCH  17  18
ENDBRANCH   1  17
TORSDOF 12
ENDMDL
MODEL 9
REMARK VINA RESULT:      -6.8      1.256      1.406
REMARK  Name = 
REMARK  12 active torsions:
REMARK  status: ('A' for Active; 'I' for Inactive)
REMARK    1  A    between atoms: C_2  and  C_3
REMARK    2  A    between atoms: C_3  and  C_13
REMARK    3  A    between atoms: C_4  and  C_5
REMARK    4  A    between atoms: C_8  and  O_9
REMARK    5  A    between atoms: C_10  and  O_11
REMARK    6  A    between atoms: C_13  and  O_15
REMARK    7  A    between atoms: O_15  and  C_16
REMARK    8  A    between atoms: C_16  and  C_17
REMARK    9  A    between atoms: C_17  and  O_18
REMARK   10  A    between atoms: C_17  and  C_19
REMARK   11  A    between atoms: C_19  and  O_20
REMARK   12  A    between atoms: C_19  and  C_21
REMARK                            x       y       z     vdW  Elec       q    Type
REMARK                         _______ _______ _______ _____ _____    ______ ____
ROOT
ATOM      1  C   UNL     1       6.043   7.061  16.985  0.00  0.00    +0.000 C 
ATOM      2  O   UNL     1       6.628   8.069  17.370  0.00  0.00    +0.000 OA
ENDROOT
BRANCH   1   3
ATOM      3  C   UNL     1       4.742   6.576  17.535  0.00  0.00    +0.000 C 
ATOM      4  C   UNL     1       4.685   5.327  18.038  0.00  0.00    +0.000 C 
BRANCH   4   5
ATOM      5  C   UNL     1       3.486   4.786  18.702  0.00  0.00    +0.000 A 
ATOM      6  C   UNL     1       3.102   5.244  19.971  0.00  0.00    +0.000 A 
ATOM      7  C   UNL     1       2.058   4.620  20.667  0.00  0.00    +0.000 A 
ATOM      8  C   UNL     1       1.392   3.552  20.077  0.00  0.00    +0.000 A 
ATOM      9  C   UNL     1       1.741   3.130  18.797  0.00  0.00    +0.000 A 
ATOM     10  C   UNL     1       2.781   3.736  18.102  0.00  0.00    +0.000 A 
BRANCH   8  11
ATOM     11  O   UNL     1       0.395   2.873  20.720  0.00  0.00    +0.000 OA
ATOM     12  H   UNL     1       0.689   2.687  21.629  0.00  0.00    +0.000 HD
ENDBRANCH   8  11
BRANCH   9  13
ATOM     13  O   UNL     1       1.073   2.087  18.219  0.00  0.00    +0.000 OA
ATOM     14  H   UNL     1       0.866   1.487  18.963  0.00  0.00    +0.000 HD
ENDBRANCH   9  13
ENDBRANCH   4   5
BRANCH   3  16
ATOM     15  N   UNL     1       2.752   8.221  17.623  0.00  0.00    +0.000 NA
ATOM     16  C   UNL     1       3.642   7.474  17.582  0.00  0.00    +0.000 C 
ENDBRANCH   3  16
ENDBRANCH   1   3
BRANCH   1  17
ATOM     17  O   UNL     1       6.439   6.280  15.946  0.00  0.00    +0.000 OA
BRANCH  17  18
ATOM     18  C   UNL     1       7.227   5.112  16.281  0.00  0.00    +0.000 C 
BRANCH  18  19
ATOM     19  C   UNL     1       7.020   4.071  15.162  0.00  0.00    +0.000 C 
BRANCH  19  20
ATOM     20  O   UNL     1       6.030   3.120  15.582  0.00  0.00    +0.000 OA
ATOM     21  H   UNL     1       5.350   3.597  16.093  0.00  0.00    +0.000 HD
ENDBRANCH  19  20
BRANCH  19  22
ATOM     22  C   UNL     1       6.641   4.706  13.800  0.00  0.00    +0.000 C 
BRANCH  22  23
ATOM     23  C   UNL     1       6.248   3.708  12.714  0.00  0.00    +0.000 A 
ATOM     24  C   UNL     1       4.907   3.608  12.307  0.00  0.00    +0.000 A 
ATOM     25  C   UNL     1       4.510   2.643  11.374  0.00  0.00    +0.000 A 
ATOM     26  C   UNL     1       5.448   1.775  10.822  0.00  0.00    +0.000 A 
ATOM     27  C   UNL     1       6.788   1.893  11.176  0.00  0.00    +0.000 A 
ATOM     28  C   UNL     1       7.185   2.858  12.106  0.00  0.00    +0.000 A 
ENDBRANCH  22  23
BRANCH  22  29
ATOM     29  O   UNL     1       7.727   5.502  13.330  0.00  0.00    +0.000 OA
ATOM     30  H   UNL     1       7.459   6.434  13.418  0.00  0.00    +0.000 HD
ENDBRANCH  22  29
ENDBRANCH  19  22
ENDBRANCH  18  19
ENDBRANCH  17  18
ENDBRANCH   1  17
TORSDOF 12
ENDMDL
