MODEL 1
REMARK VINA RESULT:      -7.6      0.000      0.000
REMARK  Name = 
REMARK  7 active torsions:
REMARK  status: ('A' for Active; 'I' for Inactive)
REMARK    1  A    between atoms: C_3  and  O_4
REMARK    2  A    between atoms: C_5  and  C_6
REMARK    3  A    between atoms: C_8  and  O_9
REMARK    4  A    between atoms: C_10  and  O_11
REMARK    5  A    between atoms: C_12  and  O_13
REMARK    6  A    between atoms: C_17  and  O_18
REMARK    7  A    between atoms: C_19  and  C_20
REMARK                            x       y       z     vdW  Elec       q    Type
REMARK                         _______ _______ _______ _____ _____    ______ ____
ROOT
ATOM      1  O   UNL     1       0.594   8.849  21.742  0.00  0.00    +0.000 OA
ATOM      2  C   UNL     1       1.100   8.729  20.628  0.00  0.00    +0.000 C 
ATOM      3  C   UNL     1       1.670   7.400  20.261  0.00  0.00    +0.000 C 
ATOM      4  C   UNL     1       2.259   7.180  19.076  0.00  0.00    +0.000 C 
ATOM      5  C   UNL     1       2.336   8.290  18.092  0.00  0.00    +0.000 C 
ATOM      6  O   UNL     1       2.843   8.165  16.979  0.00  0.00    +0.000 OA
ATOM      7  C   UNL     1       1.760   9.615  18.455  0.00  0.00    +0.000 C 
ATOM      8  C   UNL     1       1.170   9.836  19.641  0.00  0.00    +0.000 C 
ENDROOT
BRANCH   4   9
ATOM      9  C   UNL     1       2.853   5.867  18.752  0.00  0.00    +0.000 A 
ATOM     10  C   UNL     1       4.215   5.610  19.000  0.00  0.00    +0.000 A 
ATOM     11  C   UNL     1       4.751   4.363  18.677  0.00  0.00    +0.000 A 
ATOM     12  C   UNL     1       3.948   3.379  18.112  0.00  0.00    +0.000 A 
ATOM     13  C   UNL     1       2.607   3.631  17.865  0.00  0.00    +0.000 A 
ATOM     14  C   UNL     1       2.051   4.865  18.179  0.00  0.00    +0.000 A 
BRANCH  11  15
ATOM     15  O   UNL     1       6.066   4.054  18.892  0.00  0.00    +0.000 OA
ATOM     16  H   UNL     1       6.412   3.612  18.097  0.00  0.00    +0.000 HD
ENDBRANCH  11  15
BRANCH  12  17
ATOM     17  O   UNL     1       4.466   2.153  17.790  0.00  0.00    +0.000 OA
ATOM     18  H   UNL     1       4.578   2.187  16.818  0.00  0.00    +0.000 HD
ENDBRANCH  12  17
BRANCH  13  19
ATOM     19  O   UNL     1       1.821   2.662  17.308  0.00  0.00    +0.000 OA
ATOM     20  H   UNL     1       1.351   3.117  16.581  0.00  0.00    +0.000 HD
ENDBRANCH  13  19
ENDBRANCH   4   9
BRANCH   8  21
ATOM     21  C   UNL     1       0.590  11.154  19.965  0.00  0.00    +0.000 A 
ATOM     22  C   UNL     1      -0.757  11.423  19.683  0.00  0.00    +0.000 A 
ATOM     23  C   UNL     1      -1.303  12.677  19.968  0.00  0.00    +0.000 A 
ATOM     24  C   UNL     1      -0.510  13.673  20.537  0.00  0.00    +0.000 A 
ATOM     25  C   UNL     1       0.830  13.413  20.824  0.00  0.00    +0.000 A 
ATOM     26  C   UNL     1       1.379  12.160  20.540  0.00  0.00    +0.000 A 
ENDBRANCH   8  21
BRANCH   3  27
ATOM     27  O   UNL     1       1.563   6.409  21.227  0.00  0.00    +0.000 OA
ATOM     28  H   UNL     1       1.692   5.560  20.748  0.00  0.00    +0.000 HD
ENDBRANCH   3  27
BRANCH   7  29
ATOM     29  O   UNL     1       1.866  10.606  17.487  0.00  0.00    +0.000 OA
ATOM     30  H   UNL     1       1.218  11.297  17.745  0.00  0.00    +0.000 HD
ENDBRANCH   7  29
TORSDOF 7
ENDMDL
MODEL 2
REMARK VINA RESULT:      -7.5      0.066      1.915
REMARK  Name = 
REMARK  7 active torsions:
REMARK  status: ('A' for Active; 'I' for Inactive)
REMARK    1  A    between atoms: C_3  and  O_4
REMARK    2  A    between atoms: C_5  and  C_6
REMARK    3  A    between atoms: C_8  and  O_9
REMARK    4  A    between atoms: C_10  and  O_11
REMARK    5  A    between atoms: C_12  and  O_13
REMARK    6  A    between atoms: C_17  and  O_18
REMARK    7  A    between atoms: C_19  and  C_20
REMARK                            x       y       z     vdW  Elec       q    Type
REMARK                         _______ _______ _______ _____ _____    ______ ____
ROOT
ATOM      1  O   UNL     1       0.613   8.818  21.734  0.00  0.00    +0.000 OA
ATOM      2  C   UNL     1       1.110   8.707  20.615  0.00  0.00    +0.000 C 
ATOM      3  C   UNL     1       1.670   7.379  20.231  0.00  0.00    +0.000 C 
ATOM      4  C   UNL     1       2.249   7.167  19.040  0.00  0.00    +0.000 C 
ATOM      5  C   UNL     1       2.326   8.286  18.067  0.00  0.00    +0.000 C 
ATOM      6  O   UNL     1       2.824   8.169  16.949  0.00  0.00    +0.000 OA
ATOM      7  C   UNL     1       1.760   9.611  18.446  0.00  0.00    +0.000 C 
ATOM      8  C   UNL     1       1.180   9.823  19.638  0.00  0.00    +0.000 C 
ENDROOT
BRANCH   4   9
ATOM      9  C   UNL     1       2.834   5.854  18.699  0.00  0.00    +0.000 A 
ATOM     10  C   UNL     1       2.045   4.840  18.122  0.00  0.00    +0.000 A 
ATOM     11  C   UNL     1       2.623   3.607  17.818  0.00  0.00    +0.000 A 
ATOM     12  C   UNL     1       3.968   3.378  18.081  0.00  0.00    +0.000 A 
ATOM     13  C   UNL     1       4.746   4.374  18.650  0.00  0.00    +0.000 A 
ATOM     14  C   UNL     1       4.193   5.610  18.962  0.00  0.00    +0.000 A 
BRANCH  11  15
ATOM     15  O   UNL     1       1.908   2.582  17.259  0.00  0.00    +0.000 OA
ATOM     16  H   UNL     1       2.488   1.804  17.192  0.00  0.00    +0.000 HD
ENDBRANCH  11  15
BRANCH  12  17
ATOM     17  O   UNL     1       4.543   2.170  17.787  0.00  0.00    +0.000 OA
ATOM     18  H   UNL     1       4.795   2.247  16.844  0.00  0.00    +0.000 HD
ENDBRANCH  12  17
BRANCH  13  19
ATOM     19  O   UNL     1       6.067   4.145  18.910  0.00  0.00    +0.000 OA
ATOM     20  H   UNL     1       6.159   4.303  19.871  0.00  0.00    +0.000 HD
ENDBRANCH  13  19
ENDBRANCH   4   9
BRANCH   8  21
ATOM     21  C   UNL     1       0.610  11.141  19.980  0.00  0.00    +0.000 A 
ATOM     22  C   UNL     1       1.407  12.122  20.585  0.00  0.00    +0.000 A 
ATOM     23  C   UNL     1       0.863  13.362  20.930  0.00  0.00    +0.000 A 
ATOM     24  C   UNL     1      -0.480  13.634  20.674  0.00  0.00    +0.000 A 
ATOM     25  C   UNL     1      -1.280  12.665  20.070  0.00  0.00    +0.000 A 
ATOM     26  C   UNL     1      -0.739  11.423  19.724  0.00  0.00    +0.000 A 
ENDBRANCH   8  21
BRANCH   3  27
ATOM     27  O   UNL     1       1.564   6.378  21.188  0.00  0.00    +0.000 OA
ATOM     28  H   UNL     1       0.948   6.731  21.868  0.00  0.00    +0.000 HD
ENDBRANCH   3  27
BRANCH   7  29
ATOM     29  O   UNL     1       1.866  10.611  17.487  0.00  0.00    +0.000 OA
ATOM     30  H   UNL     1       2.587  11.200  17.799  0.00  0.00    +0.000 HD
ENDBRANCH   7  29
TORSDOF 7
ENDMDL
MODEL 3
REMARK VINA RESULT:      -7.2      1.931      8.093
REMARK  Name = 
REMARK  7 active torsions:
REMARK  status: ('A' for Active; 'I' for Inactive)
REMARK    1  A    between atoms: C_3  and  O_4
REMARK    2  A    between atoms: C_5  and  C_6
REMARK    3  A    between atoms: C_8  and  O_9
REMARK    4  A    between atoms: C_10  and  O_11
REMARK    5  A    between atoms: C_12  and  O_13
REMARK    6  A    between atoms: C_17  and  O_18
REMARK    7  A    between atoms: C_19  and  C_20
REMARK                            x       y       z     vdW  Elec       q    Type
REMARK                         _______ _______ _______ _____ _____    ______ ____
ROOT
ATOM      1  O   UNL     1       3.098   8.124  16.940  0.00  0.00    +0.000 OA
ATOM      2  C   UNL     1       2.518   8.172  18.023  0.00  0.00    +0.000 C 
ATOM      3  C   UNL     1       1.798   9.432  18.372  0.00  0.00    +0.000 C 
ATOM      4  C   UNL     1       1.154   9.585  19.538  0.00  0.00    +0.000 C 
ATOM      5  C   UNL     1       1.146   8.462  20.509  0.00  0.00    +0.000 C 
ATOM      6  O   UNL     1       0.564   8.515  21.591  0.00  0.00    +0.000 OA
ATOM      7  C   UNL     1       1.858   7.201  20.159  0.00  0.00    +0.000 C 
ATOM      8  C   UNL     1       2.503   7.047  18.991  0.00  0.00    +0.000 C 
ENDROOT
BRANCH   4   9
ATOM      9  C   UNL     1       0.483  10.856  19.878  0.00  0.00    +0.000 A 
ATOM     10  C   UNL     1      -0.805  11.146  19.391  0.00  0.00    +0.000 A 
ATOM     11  C   UNL     1      -1.410  12.359  19.722  0.00  0.00    +0.000 A 
ATOM     12  C   UNL     1      -0.748  13.276  20.527  0.00  0.00    +0.000 A 
ATOM     13  C   UNL     1       0.522  12.994  21.008  0.00  0.00    +0.000 A 
ATOM     14  C   UNL     1       1.145  11.793  20.691  0.00  0.00    +0.000 A 
BRANCH  11  15
ATOM     15  O   UNL     1      -2.659  12.699  19.277  0.00  0.00    +0.000 OA
ATOM     16  H   UNL     1      -3.182  11.885  19.179  0.00  0.00    +0.000 HD
ENDBRANCH  11  15
BRANCH  12  17
ATOM     17  O   UNL     1      -1.334  14.470  20.857  0.00  0.00    +0.000 OA
ATOM     18  H   UNL     1      -2.234  14.409  20.477  0.00  0.00    +0.000 HD
ENDBRANCH  12  17
BRANCH  13  19
ATOM     19  O   UNL     1       1.171  13.899  21.797  0.00  0.00    +0.000 OA
ATOM     20  H   UNL     1       1.252  13.454  22.664  0.00  0.00    +0.000 HD
ENDBRANCH  13  19
ENDBRANCH   4   9
BRANCH   8  21
ATOM     21  C   UNL     1       3.183   5.779  18.662  0.00  0.00    +0.000 A 
ATOM     22  C   UNL     1       2.521   4.794  17.917  0.00  0.00    +0.000 A 
ATOM     23  C   UNL     1       3.154   3.583  17.623  0.00  0.00    +0.000 A 
ATOM     24  C   UNL     1       4.453   3.346  18.071  0.00  0.00    +0.000 A 
ATOM     25  C   UNL     1       5.120   4.322  18.811  0.00  0.00    +0.000 A 
ATOM     26  C   UNL     1       4.490   5.533  19.106  0.00  0.00    +0.000 A 
ENDBRANCH   8  21
BRANCH   3  27
ATOM     27  O   UNL     1       1.846  10.440  17.417  0.00  0.00    +0.000 OA
ATOM     28  H   UNL     1       2.476  11.106  17.772  0.00  0.00    +0.000 HD
ENDBRANCH   3  27
BRANCH   7  29
ATOM     29  O   UNL     1       1.808   6.192  21.114  0.00  0.00    +0.000 OA
ATOM     30  H   UNL     1       1.552   5.380  20.625  0.00  0.00    +0.000 HD
ENDBRANCH   7  29
TORSDOF 7
ENDMDL
MODEL 4
REMARK VINA RESULT:      -7.2      1.925      7.928
REMARK  Name = 
REMARK  7 active torsions:
REMARK  status: ('A' for Active; 'I' for Inactive)
REMARK    1  A    between atoms: C_3  and  O_4
REMARK    2  A    between atoms: C_5  and  C_6
REMARK    3  A    between atoms: C_8  and  O_9
REMARK    4  A    between atoms: C_10  and  O_11
REMARK    5  A    between atoms: C_12  and  O_13
REMARK    6  A    between atoms: C_17  and  O_18
REMARK    7  A    between atoms: C_19  and  C_20
REMARK                            x       y       z     vdW  Elec       q    Type
REMARK                         _______ _______ _______ _____ _____    ______ ____
ROOT
ATOM      1  O   UNL     1       3.090   8.117  16.932  0.00  0.00    +0.000 OA
ATOM      2  C   UNL     1       2.516   8.171  18.019  0.00  0.00    +0.000 C 
ATOM      3  C   UNL     1       1.808   9.437  18.370  0.00  0.00    +0.000 C 
ATOM      4  C   UNL     1       1.170   9.596  19.539  0.00  0.00    +0.000 C 
ATOM      5  C   UNL     1       1.158   8.474  20.511  0.00  0.00    +0.000 C 
ATOM      6  O   UNL     1       0.582   8.533  21.596  0.00  0.00    +0.000 OA
ATOM      7  C   UNL     1       1.859   7.207  20.159  0.00  0.00    +0.000 C 
ATOM      8  C   UNL     1       2.497   7.047  18.988  0.00  0.00    +0.000 C 
ENDROOT
BRANCH   4   9
ATOM      9  C   UNL     1       0.511  10.873  19.881  0.00  0.00    +0.000 A 
ATOM     10  C   UNL     1       1.141  11.806  20.726  0.00  0.00    +0.000 A 
ATOM     11  C   UNL     1       0.492  13.001  21.038  0.00  0.00    +0.000 A 
ATOM     12  C   UNL     1      -0.769  13.270  20.520  0.00  0.00    +0.000 A 
ATOM     13  C   UNL     1      -1.392  12.352  19.688  0.00  0.00    +0.000 A 
ATOM     14  C   UNL     1      -0.764  11.155  19.364  0.00  0.00    +0.000 A 
BRANCH  11  15
ATOM     15  O   UNL     1       1.050  13.945  21.856  0.00  0.00    +0.000 OA
ATOM     16  H   UNL     1       0.926  14.819  21.446  0.00  0.00    +0.000 HD
ENDBRANCH  11  15
BRANCH  12  17
ATOM     17  O   UNL     1      -1.415  14.440  20.822  0.00  0.00    +0.000 OA
ATOM     18  H   UNL     1      -1.148  14.630  21.744  0.00  0.00    +0.000 HD
ENDBRANCH  12  17
BRANCH  13  19
ATOM     19  O   UNL     1      -2.631  12.620  19.182  0.00  0.00    +0.000 OA
ATOM     20  H   UNL     1      -2.988  13.319  19.766  0.00  0.00    +0.000 HD
ENDBRANCH  13  19
ENDBRANCH   4   9
BRANCH   8  21
ATOM     21  C   UNL     1       3.165   5.773  18.656  0.00  0.00    +0.000 A 
ATOM     22  C   UNL     1       2.493   4.794  17.911  0.00  0.00    +0.000 A 
ATOM     23  C   UNL     1       3.115   3.579  17.616  0.00  0.00    +0.000 A 
ATOM     24  C   UNL     1       4.413   3.330  18.061  0.00  0.00    +0.000 A 
ATOM     25  C   UNL     1       5.090   4.299  18.800  0.00  0.00    +0.000 A 
ATOM     26  C   UNL     1       4.470   5.516  19.098  0.00  0.00    +0.000 A 
ENDBRANCH   8  21
BRANCH   3  27
ATOM     27  O   UNL     1       1.859  10.443  17.414  0.00  0.00    +0.000 OA
ATOM     28  H   UNL     1       1.033  10.962  17.535  0.00  0.00    +0.000 HD
ENDBRANCH   3  27
BRANCH   7  29
ATOM     29  O   UNL     1       1.806   6.200  21.115  0.00  0.00    +0.000 OA
ATOM     30  H   UNL     1       0.944   5.750  20.975  0.00  0.00    +0.000 HD
ENDBRANCH   7  29
TORSDOF 7
ENDMDL
MODEL 5
REMARK VINA RESULT:      -7.2      0.646      1.768
REMARK  Name = 
REMARK  7 active torsions:
REMARK  status: ('A' for Active; 'I' for Inactive)
REMARK    1  A    between atoms: C_3  and  O_4
REMARK    2  A    between atoms: C_5  and  C_6
REMARK    3  A    between atoms: C_8  and  O_9
REMARK    4  A    between atoms: C_10  and  O_11
REMARK    5  A    between atoms: C_12  and  O_13
REMARK    6  A    between atoms: C_17  and  O_18
REMARK    7  A    between atoms: C_19  and  C_20
REMARK                            x       y       z     vdW  Elec       q    Type
REMARK                         _______ _______ _______ _____ _____    ______ ____
ROOT
ATOM      1  O   UNL     1       0.750   8.742  21.992  0.00  0.00    +0.000 OA
ATOM      2  C   UNL     1       1.130   8.760  20.823  0.00  0.00    +0.000 C 
ATOM      3  C   UNL     1       1.776   7.529  20.282  0.00  0.00    +0.000 C 
ATOM      4  C   UNL     1       2.240   7.461  19.025  0.00  0.00    +0.000 C 
ATOM      5  C   UNL     1       2.097   8.644  18.140  0.00  0.00    +0.000 C 
ATOM      6  O   UNL     1       2.479   8.657  16.971  0.00  0.00    +0.000 OA
ATOM      7  C   UNL     1       1.445   9.872  18.677  0.00  0.00    +0.000 C 
ATOM      8  C   UNL     1       0.980   9.940  19.935  0.00  0.00    +0.000 C 
ENDROOT
BRANCH   4   9
ATOM      9  C   UNL     1       2.913   6.245  18.525  0.00  0.00    +0.000 A 
ATOM     10  C   UNL     1       2.170   5.178  17.985  0.00  0.00    +0.000 A 
ATOM     11  C   UNL     1       2.833   4.038  17.528  0.00  0.00    +0.000 A 
ATOM     12  C   UNL     1       4.217   3.954  17.604  0.00  0.00    +0.000 A 
ATOM     13  C   UNL     1       4.952   5.003  18.137  0.00  0.00    +0.000 A 
ATOM     14  C   UNL     1       4.313   6.148  18.599  0.00  0.00    +0.000 A 
BRANCH  11  15
ATOM     15  O   UNL     1       2.166   2.969  16.997  0.00  0.00    +0.000 OA
ATOM     16  H   UNL     1       2.401   2.175  17.508  0.00  0.00    +0.000 HD
ENDBRANCH  11  15
BRANCH  12  17
ATOM     17  O   UNL     1       4.876   2.839  17.159  0.00  0.00    +0.000 OA
ATOM     18  H   UNL     1       4.206   2.357  16.634  0.00  0.00    +0.000 HD
ENDBRANCH  12  17
BRANCH  13  19
ATOM     19  O   UNL     1       6.312   4.916  18.212  0.00  0.00    +0.000 OA
ATOM     20  H   UNL     1       6.510   4.995  19.166  0.00  0.00    +0.000 HD
ENDBRANCH  13  19
ENDBRANCH   4   9
BRANCH   8  21
ATOM     21  C   UNL     1       0.320  11.162  20.434  0.00  0.00    +0.000 A 
ATOM     22  C   UNL     1      -1.078  11.265  20.428  0.00  0.00    +0.000 A 
ATOM     23  C   UNL     1      -1.704  12.429  20.879  0.00  0.00    +0.000 A 
ATOM     24  C   UNL     1      -0.941  13.502  21.338  0.00  0.00    +0.000 A 
ATOM     25  C   UNL     1       0.451  13.408  21.350  0.00  0.00    +0.000 A 
ATOM     26  C   UNL     1       1.080  12.244  20.900  0.00  0.00    +0.000 A 
ENDBRANCH   8  21
BRANCH   3  27
ATOM     27  O   UNL     1       1.876   6.461  21.164  0.00  0.00    +0.000 OA
ATOM     28  H   UNL     1       2.116   6.859  22.031  0.00  0.00    +0.000 HD
ENDBRANCH   3  27
BRANCH   7  29
ATOM     29  O   UNL     1       1.344  10.939  17.793  0.00  0.00    +0.000 OA
ATOM     30  H   UNL     1       1.153  10.538  16.917  0.00  0.00    +0.000 HD
ENDBRANCH   7  29
TORSDOF 7
ENDMDL
MODEL 6
REMARK VINA RESULT:      -7.1      0.179      2.146
REMARK  Name = 
REMARK  7 active torsions:
REMARK  status: ('A' for Active; 'I' for Inactive)
REMARK    1  A    between atoms: C_3  and  O_4
REMARK    2  A    between atoms: C_5  and  C_6
REMARK    3  A    between atoms: C_8  and  O_9
REMARK    4  A    between atoms: C_10  and  O_11
REMARK    5  A    between atoms: C_12  and  O_13
REMARK    6  A    between atoms: C_17  and  O_18
REMARK    7  A    between atoms: C_19  and  C_20
REMARK                            x       y       z     vdW  Elec       q    Type
REMARK                         _______ _______ _______ _____ _____    ______ ____
ROOT
ATOM      1  O   UNL     1       1.933  10.320  17.454  0.00  0.00    +0.000 OA
ATOM      2  C   UNL     1       1.808   9.480  18.342  0.00  0.00    +0.000 C 
ATOM      3  C   UNL     1       2.403   8.131  18.113  0.00  0.00    +0.000 C 
ATOM      4  C   UNL     1       2.301   7.144  19.016  0.00  0.00    +0.000 C 
ATOM      5  C   UNL     1       1.584   7.404  20.289  0.00  0.00    +0.000 C 
ATOM      6  O   UNL     1       1.462   6.559  21.175  0.00  0.00    +0.000 OA
ATOM      7  C   UNL     1       0.995   8.753  20.522  0.00  0.00    +0.000 C 
ATOM      8  C   UNL     1       1.098   9.741  19.619  0.00  0.00    +0.000 C 
ENDROOT
BRANCH   4   9
ATOM      9  C   UNL     1       2.863   5.804  18.748  0.00  0.00    +0.000 A 
ATOM     10  C   UNL     1       4.221   5.528  18.995  0.00  0.00    +0.000 A 
ATOM     11  C   UNL     1       4.726   4.255  18.725  0.00  0.00    +0.000 A 
ATOM     12  C   UNL     1       3.895   3.265  18.215  0.00  0.00    +0.000 A 
ATOM     13  C   UNL     1       2.558   3.535  17.969  0.00  0.00    +0.000 A 
ATOM     14  C   UNL     1       2.033   4.795  18.230  0.00  0.00    +0.000 A 
BRANCH  11  15
ATOM     15  O   UNL     1       6.036   3.927  18.942  0.00  0.00    +0.000 OA
ATOM     16  H   UNL     1       6.441   3.699  18.087  0.00  0.00    +0.000 HD
ENDBRANCH  11  15
BRANCH  12  17
ATOM     17  O   UNL     1       4.382   2.013  17.946  0.00  0.00    +0.000 OA
ATOM     18  H   UNL     1       4.190   1.501  18.757  0.00  0.00    +0.000 HD
ENDBRANCH  12  17
BRANCH  13  19
ATOM     19  O   UNL     1       1.745   2.560  17.466  0.00  0.00    +0.000 OA
ATOM     20  H   UNL     1       1.140   2.341  18.203  0.00  0.00    +0.000 HD
ENDBRANCH  13  19
ENDBRANCH   4   9
BRANCH   8  21
ATOM     21  C   UNL     1       0.523  11.074  19.886  0.00  0.00    +0.000 A 
ATOM     22  C   UNL     1      -0.790  11.371  19.492  0.00  0.00    +0.000 A 
ATOM     23  C   UNL     1      -1.328  12.639  19.723  0.00  0.00    +0.000 A 
ATOM     24  C   UNL     1      -0.562  13.622  20.348  0.00  0.00    +0.000 A 
ATOM     25  C   UNL     1       0.743  13.335  20.745  0.00  0.00    +0.000 A 
ATOM     26  C   UNL     1       1.285  12.068  20.516  0.00  0.00    +0.000 A 
ENDBRANCH   8  21
BRANCH   3  27
ATOM     27  O   UNL     1       3.060   7.958  16.901  0.00  0.00    +0.000 OA
ATOM     28  H   UNL     1       3.911   8.441  16.994  0.00  0.00    +0.000 HD
ENDBRANCH   3  27
BRANCH   7  29
ATOM     29  O   UNL     1       0.340   8.925  21.736  0.00  0.00    +0.000 OA
ATOM     30  H   UNL     1      -0.496   8.416  21.658  0.00  0.00    +0.000 HD
ENDBRANCH   7  29
TORSDOF 7
ENDMDL
MODEL 7
REMARK VINA RESULT:      -7.0      0.162      2.708
REMARK  Name = 
REMARK  7 active torsions:
REMARK  status: ('A' for Active; 'I' for Inactive)
REMARK    1  A    between atoms: C_3  and  O_4
REMARK    2  A    between atoms: C_5  and  C_6
REMARK    3  A    between atoms: C_8  and  O_9
REMARK    4  A    between atoms: C_10  and  O_11
REMARK    5  A    between atoms: C_12  and  O_13
REMARK    6  A    between atoms: C_17  and  O_18
REMARK    7  A    between atoms: C_19  and  C_20
REMARK                            x       y       z     vdW  Elec       q    Type
REMARK                         _______ _______ _______ _____ _____    ______ ____
ROOT
ATOM      1  O   UNL     1       1.953  10.335  17.485  0.00  0.00    +0.000 OA
ATOM      2  C   UNL     1       1.828   9.486  18.366  0.00  0.00    +0.000 C 
ATOM      3  C   UNL     1       2.393   8.129  18.111  0.00  0.00    +0.000 C 
ATOM      4  C   UNL     1       2.288   7.134  19.004  0.00  0.00    +0.000 C 
ATOM      5  C   UNL     1       1.597   7.392  20.292  0.00  0.00    +0.000 C 
ATOM      6  O   UNL     1       1.474   6.539  21.170  0.00  0.00    +0.000 OA
ATOM      7  C   UNL     1       1.037   8.748  20.551  0.00  0.00    +0.000 C 
ATOM      8  C   UNL     1       1.143   9.745  19.658  0.00  0.00    +0.000 C 
ENDROOT
BRANCH   4   9
ATOM      9  C   UNL     1       2.821   5.787  18.711  0.00  0.00    +0.000 A 
ATOM     10  C   UNL     1       2.007   4.801  18.122  0.00  0.00    +0.000 A 
ATOM     11  C   UNL     1       2.534   3.536  17.864  0.00  0.00    +0.000 A 
ATOM     12  C   UNL     1       3.854   3.247  18.186  0.00  0.00    +0.000 A 
ATOM     13  C   UNL     1       4.658   4.216  18.769  0.00  0.00    +0.000 A 
ATOM     14  C   UNL     1       4.154   5.483  19.035  0.00  0.00    +0.000 A 
BRANCH  11  15
ATOM     15  O   UNL     1       1.793   2.536  17.296  0.00  0.00    +0.000 OA
ATOM     16  H   UNL     1       2.368   1.763  17.165  0.00  0.00    +0.000 HD
ENDBRANCH  11  15
BRANCH  12  17
ATOM     17  O   UNL     1       4.381   2.007  17.938  0.00  0.00    +0.000 OA
ATOM     18  H   UNL     1       3.601   1.416  17.912  0.00  0.00    +0.000 HD
ENDBRANCH  12  17
BRANCH  13  19
ATOM     19  O   UNL     1       5.954   3.928  19.086  0.00  0.00    +0.000 OA
ATOM     20  H   UNL     1       5.891   3.191  19.727  0.00  0.00    +0.000 HD
ENDBRANCH  13  19
ENDBRANCH   4   9
BRANCH   8  21
ATOM     21  C   UNL     1       0.597  11.085  19.949  0.00  0.00    +0.000 A 
ATOM     22  C   UNL     1      -0.718  11.408  19.589  0.00  0.00    +0.000 A 
ATOM     23  C   UNL     1      -1.230  12.683  19.843  0.00  0.00    +0.000 A 
ATOM     24  C   UNL     1      -0.433  13.647  20.459  0.00  0.00    +0.000 A 
ATOM     25  C   UNL     1       0.876  13.334  20.823  0.00  0.00    +0.000 A 
ATOM     26  C   UNL     1       1.391  12.060  20.570  0.00  0.00    +0.000 A 
ENDBRANCH   8  21
BRANCH   3  27
ATOM     27  O   UNL     1       3.027   7.959  16.887  0.00  0.00    +0.000 OA
ATOM     28  H   UNL     1       2.814   7.040  16.607  0.00  0.00    +0.000 HD
ENDBRANCH   3  27
BRANCH   7  29
ATOM     29  O   UNL     1       0.405   8.918  21.777  0.00  0.00    +0.000 OA
ATOM     30  H   UNL     1      -0.191   9.690  21.661  0.00  0.00    +0.000 HD
ENDBRANCH   7  29
TORSDOF 7
ENDMDL
MODEL 8
REMARK VINA RESULT:      -7.0      0.369      2.366
REMARK  Name = 
REMARK  7 active torsions:
REMARK  status: ('A' for Active; 'I' for Inactive)
REMARK    1  A    between atoms: C_3  and  O_4
REMARK    2  A    between atoms: C_5  and  C_6
REMARK    3  A    between atoms: C_8  and  O_9
REMARK    4  A    between atoms: C_10  and  O_11
REMARK    5  A    between atoms: C_12  and  O_13
REMARK    6  A    between atoms: C_17  and  O_18
REMARK    7  A    between atoms: C_19  and  C_20
REMARK                            x       y       z     vdW  Elec       q    Type
REMARK                         _______ _______ _______ _____ _____    ______ ____
ROOT
ATOM      1  O   UNL     1       2.128  10.347  17.250  0.00  0.00    +0.000 OA
ATOM      2  C   UNL     1       1.947   9.541  18.161  0.00  0.00    +0.000 C 
ATOM      3  C   UNL     1       2.543   8.181  18.015  0.00  0.00    +0.000 C 
ATOM      4  C   UNL     1       2.384   7.230  18.947  0.00  0.00    +0.000 C 
ATOM      5  C   UNL     1       1.597   7.541  20.168  0.00  0.00    +0.000 C 
ATOM      6  O   UNL     1       1.420   6.731  21.076  0.00  0.00    +0.000 OA
ATOM      7  C   UNL     1       1.007   8.901  20.317  0.00  0.00    +0.000 C 
ATOM      8  C   UNL     1       1.168   9.854  19.385  0.00  0.00    +0.000 C 
ENDROOT
BRANCH   4   9
ATOM      9  C   UNL     1       2.949   5.877  18.762  0.00  0.00    +0.000 A 
ATOM     10  C   UNL     1       4.286   5.601  19.103  0.00  0.00    +0.000 A 
ATOM     11  C   UNL     1       4.796   4.316  18.910  0.00  0.00    +0.000 A 
ATOM     12  C   UNL     1       3.990   3.315  18.383  0.00  0.00    +0.000 A 
ATOM     13  C   UNL     1       2.673   3.585  18.044  0.00  0.00    +0.000 A 
ATOM     14  C   UNL     1       2.144   4.857  18.228  0.00  0.00    +0.000 A 
BRANCH  11  15
ATOM     15  O   UNL     1       6.087   3.988  19.219  0.00  0.00    +0.000 OA
ATOM     16  H   UNL     1       6.085   3.126  19.671  0.00  0.00    +0.000 HD
ENDBRANCH  11  15
BRANCH  12  17
ATOM     17  O   UNL     1       4.482   2.051  18.188  0.00  0.00    +0.000 OA
ATOM     18  H   UNL     1       4.192   1.555  18.980  0.00  0.00    +0.000 HD
ENDBRANCH  12  17
BRANCH  13  19
ATOM     19  O   UNL     1       1.885   2.598  17.525  0.00  0.00    +0.000 OA
ATOM     20  H   UNL     1       0.974   2.947  17.601  0.00  0.00    +0.000 HD
ENDBRANCH  13  19
ENDBRANCH   4   9
BRANCH   8  21
ATOM     21  C   UNL     1       0.589  11.200  19.569  0.00  0.00    +0.000 A 
ATOM     22  C   UNL     1       1.311  12.195  20.242  0.00  0.00    +0.000 A 
ATOM     23  C   UNL     1       0.756  13.462  20.438  0.00  0.00    +0.000 A 
ATOM     24  C   UNL     1      -0.523  13.747  19.963  0.00  0.00    +0.000 A 
ATOM     25  C   UNL     1      -1.247  12.764  19.289  0.00  0.00    +0.000 A 
ATOM     26  C   UNL     1      -0.695  11.496  19.092  0.00  0.00    +0.000 A 
ENDBRANCH   8  21
BRANCH   3  27
ATOM     27  O   UNL     1       3.266   7.959  16.850  0.00  0.00    +0.000 OA
ATOM     28  H   UNL     1       3.419   6.988  16.818  0.00  0.00    +0.000 HD
ENDBRANCH   3  27
BRANCH   7  29
ATOM     29  O   UNL     1       0.286   9.123  21.484  0.00  0.00    +0.000 OA
ATOM     30  H   UNL     1      -0.281   9.903  21.299  0.00  0.00    +0.000 HD
ENDBRANCH   7  29
TORSDOF 7
ENDMDL
MODEL 9
REMARK VINA RESULT:      -6.9      1.959      8.009
REMARK  Name = 
REMARK  7 active torsions:
REMARK  status: ('A' for Active; 'I' for Inactive)
REMARK    1  A    between atoms: C_3  and  O_4
REMARK    2  A    between atoms: C_5  and  C_6
REMARK    3  A    between atoms: C_8  and  O_9
REMARK    4  A    between atoms: C_10  and  O_11
REMARK    5  A    between atoms: C_12  and  O_13
REMARK    6  A    between atoms: C_17  and  O_18
REMARK    7  A    between atoms: C_19  and  C_20
REMARK                            x       y       z     vdW  Elec       q    Type
REMARK                         _______ _______ _______ _____ _____    ______ ____
ROOT
ATOM      1  O   UNL     1       2.618   8.437  16.917  0.00  0.00    +0.000 OA
ATOM      2  C   UNL     1       2.194   8.414  18.071  0.00  0.00    +0.000 C 
ATOM      3  C   UNL     1       1.523   9.641  18.590  0.00  0.00    +0.000 C 
ATOM      4  C   UNL     1       1.046   9.717  19.842  0.00  0.00    +0.000 C 
ATOM      5  C   UNL     1       1.180   8.540  20.737  0.00  0.00    +0.000 C 
ATOM      6  O   UNL     1       0.754   8.522  21.890  0.00  0.00    +0.000 OA
ATOM      7  C   UNL     1       1.844   7.311  20.217  0.00  0.00    +0.000 C 
ATOM      8  C   UNL     1       2.321   7.234  18.964  0.00  0.00    +0.000 C 
ENDROOT
BRANCH   4   9
ATOM      9  C   UNL     1       0.422  10.957  20.346  0.00  0.00    +0.000 A 
ATOM     10  C   UNL     1       1.198  11.958  20.960  0.00  0.00    +0.000 A 
ATOM     11  C   UNL     1       0.580  13.116  21.434  0.00  0.00    +0.000 A 
ATOM     12  C   UNL     1      -0.792  13.282  21.303  0.00  0.00    +0.000 A 
ATOM     13  C   UNL     1      -1.560  12.298  20.700  0.00  0.00    +0.000 A 
ATOM     14  C   UNL     1      -0.967  11.136  20.220  0.00  0.00    +0.000 A 
BRANCH  11  15
ATOM     15  O   UNL     1       1.281  14.122  22.042  0.00  0.00    +0.000 OA
ATOM     16  H   UNL     1       1.761  13.747  22.801  0.00  0.00    +0.000 HD
ENDBRANCH  11  15
BRANCH  12  17
ATOM     17  O   UNL     1      -1.408  14.415  21.766  0.00  0.00    +0.000 OA
ATOM     18  H   UNL     1      -0.693  14.910  22.216  0.00  0.00    +0.000 HD
ENDBRANCH  12  17
BRANCH  13  19
ATOM     19  O   UNL     1      -2.909  12.464  20.574  0.00  0.00    +0.000 OA
ATOM     20  H   UNL     1      -3.280  11.568  20.704  0.00  0.00    +0.000 HD
ENDBRANCH  13  19
ENDBRANCH   4   9
BRANCH   8  21
ATOM     21  C   UNL     1       2.956   5.997  18.469  0.00  0.00    +0.000 A 
ATOM     22  C   UNL     1       4.350   5.855  18.501  0.00  0.00    +0.000 A 
ATOM     23  C   UNL     1       4.955   4.695  18.012  0.00  0.00    +0.000 A 
ATOM     24  C   UNL     1       4.174   3.666  17.486  0.00  0.00    +0.000 A 
ATOM     25  C   UNL     1       2.786   3.798  17.452  0.00  0.00    +0.000 A 
ATOM     26  C   UNL     1       2.178   4.958  17.941  0.00  0.00    +0.000 A 
ENDBRANCH   8  21
BRANCH   3  27
ATOM     27  O   UNL     1       1.431  10.703  17.700  0.00  0.00    +0.000 OA
ATOM     28  H   UNL     1       0.954  10.348  16.917  0.00  0.00    +0.000 HD
ENDBRANCH   3  27
BRANCH   7  29
ATOM     29  O   UNL     1       1.933   6.249  21.108  0.00  0.00    +0.000 OA
ATOM     30  H   UNL     1       1.399   6.514  21.888  0.00  0.00    +0.000 HD
ENDBRANCH   7  29
TORSDOF 7
ENDMDL
