MODEL 1
REMARK VINA RESULT:      -8.0      0.000      0.000
REMARK  Name = 
REMARK  6 active torsions:
REMARK  status: ('A' for Active; 'I' for Inactive)
REMARK    1  A    between atoms: C_1  and  C_2
REMARK    2  A    between atoms: C_2  and  O_3
REMARK    3  A    between atoms: O_3  and  C_4
REMARK    4  A    between atoms: C_4  and  C_6
REMARK    5  A    between atoms: C_7  and  C_8
REMARK    6  A    between atoms: C_19  and  C_20
REMARK                            x       y       z     vdW  Elec       q    Type
REMARK                         _______ _______ _______ _____ _____    ______ ____
ROOT
ATOM      1  C   UNL     1       6.208   4.682  16.815  0.00  0.00    +0.000 C 
ATOM      2  C   UNL     1       6.220   5.637  15.591  0.00  0.00    +0.000 C 
ATOM      3  C   UNL     1       4.917   6.457  15.702  0.00  0.00    +0.000 C 
ATOM      4  N   UNL     1       4.628   6.355  17.123  0.00  0.00    +0.000 NA
ATOM      5  C   UNL     1       3.379   6.914  17.621  0.00  0.00    +0.000 C 
ATOM      6  C   UNL     1       3.004   6.476  19.069  0.00  0.00    +0.000 C 
ATOM      7  N   UNL     1       3.460   5.137  19.462  0.00  0.00    +0.000 N 
ATOM      8  C   UNL     1       2.731   4.424  20.388  0.00  0.00    +0.000 C 
ATOM      9  C   UNL     1       3.184   3.045  20.815  0.00  0.00    +0.000 C 
ATOM     10  O   UNL     1       1.673   4.860  20.853  0.00  0.00    +0.000 OA
ATOM     11  C   UNL     1       4.838   4.839  19.030  0.00  0.00    +0.000 C 
ATOM     12  C   UNL     1       4.884   4.967  17.509  0.00  0.00    +0.000 C 
ENDROOT
BRANCH   2  13
ATOM     13  C   UNL     1       6.421   4.915  14.277  0.00  0.00    +0.000 A 
ATOM     14  C   UNL     1       7.507   5.198  13.436  0.00  0.00    +0.000 A 
ATOM     15  C   UNL     1       7.636   4.558  12.202  0.00  0.00    +0.000 A 
ATOM     16  C   UNL     1       6.685   3.625  11.795  0.00  0.00    +0.000 A 
ATOM     17  C   UNL     1       5.607   3.327  12.622  0.00  0.00    +0.000 A 
ATOM     18  C   UNL     1       5.474   3.968  13.855  0.00  0.00    +0.000 A 
ENDBRANCH   2  13
BRANCH   1  19
ATOM     19  C   UNL     1       7.412   5.009  17.667  0.00  0.00    +0.000 C 
ATOM     20  O   UNL     1       7.834   4.328  18.585  0.00  0.00    +0.000 OA
BRANCH  19  21
ATOM     21  O   UNL     1       7.904   6.232  17.318  0.00  0.00    +0.000 OA
BRANCH  21  23
ATOM     22  C   UNL     1       7.984   8.555  17.822  0.00  0.00    +0.000 C 
ATOM     23  C   UNL     1       7.983   7.155  18.409  0.00  0.00    +0.000 C 
ENDBRANCH  21  23
ENDBRANCH  19  21
ENDBRANCH   1  19
TORSDOF 4
ENDMDL
MODEL 2
REMARK VINA RESULT:      -7.9      0.168      1.019
REMARK  Name = 
REMARK  6 active torsions:
REMARK  status: ('A' for Active; 'I' for Inactive)
REMARK    1  A    between atoms: C_1  and  C_2
REMARK    2  A    between atoms: C_2  and  O_3
REMARK    3  A    between atoms: O_3  and  C_4
REMARK    4  A    between atoms: C_4  and  C_6
REMARK    5  A    between atoms: C_7  and  C_8
REMARK    6  A    between atoms: C_19  and  C_20
REMARK                            x       y       z     vdW  Elec       q    Type
REMARK                         _______ _______ _______ _____ _____    ______ ____
ROOT
ATOM      1  C   UNL     1       6.244   4.631  16.760  0.00  0.00    +0.000 C 
ATOM      2  C   UNL     1       6.197   5.624  15.568  0.00  0.00    +0.000 C 
ATOM      3  C   UNL     1       4.880   6.408  15.744  0.00  0.00    +0.000 C 
ATOM      4  N   UNL     1       4.636   6.255  17.168  0.00  0.00    +0.000 NA
ATOM      5  C   UNL     1       3.390   6.768  17.721  0.00  0.00    +0.000 C 
ATOM      6  C   UNL     1       3.068   6.275  19.164  0.00  0.00    +0.000 C 
ATOM      7  N   UNL     1       3.567   4.935  19.500  0.00  0.00    +0.000 N 
ATOM      8  C   UNL     1       2.883   4.176  20.423  0.00  0.00    +0.000 C 
ATOM      9  C   UNL     1       3.380   2.795  20.792  0.00  0.00    +0.000 C 
ATOM     10  O   UNL     1       1.830   4.571  20.932  0.00  0.00    +0.000 OA
ATOM     11  C   UNL     1       4.938   4.684  19.018  0.00  0.00    +0.000 C 
ATOM     12  C   UNL     1       4.936   4.861  17.502  0.00  0.00    +0.000 C 
ENDROOT
BRANCH   2  13
ATOM     13  C   UNL     1       6.375   4.949  14.226  0.00  0.00    +0.000 A 
ATOM     14  C   UNL     1       5.507   3.940  13.785  0.00  0.00    +0.000 A 
ATOM     15  C   UNL     1       5.729   3.293  12.568  0.00  0.00    +0.000 A 
ATOM     16  C   UNL     1       6.818   3.649  11.775  0.00  0.00    +0.000 A 
ATOM     17  C   UNL     1       7.683   4.654  12.195  0.00  0.00    +0.000 A 
ATOM     18  C   UNL     1       7.465   5.300  13.413  0.00  0.00    +0.000 A 
ENDBRANCH   2  13
BRANCH   1  19
ATOM     19  C   UNL     1       7.465   4.959  17.587  0.00  0.00    +0.000 C 
ATOM     20  O   UNL     1       7.940   4.251  18.458  0.00  0.00    +0.000 OA
BRANCH  19  21
ATOM     21  O   UNL     1       7.905   6.213  17.280  0.00  0.00    +0.000 OA
BRANCH  21  23
ATOM     22  C   UNL     1       8.033   8.519  17.847  0.00  0.00    +0.000 C 
ATOM     23  C   UNL     1       7.923   7.108  18.397  0.00  0.00    +0.000 C 
ENDBRANCH  21  23
ENDBRANCH  19  21
ENDBRANCH   1  19
TORSDOF 4
ENDMDL
MODEL 3
REMARK VINA RESULT:      -6.4      0.921      1.504
REMARK  Name = 
REMARK  6 active torsions:
REMARK  status: ('A' for Active; 'I' for Inactive)
REMARK    1  A    between atoms: C_1  and  C_2
REMARK    2  A    between atoms: C_2  and  O_3
REMARK    3  A    between atoms: O_3  and  C_4
REMARK    4  A    between atoms: C_4  and  C_6
REMARK    5  A    between atoms: C_7  and  C_8
REMARK    6  A    between atoms: C_19  and  C_20
REMARK                            x       y       z     vdW  Elec       q    Type
REMARK                         _______ _______ _______ _____ _____    ______ ____
ROOT
ATOM      1  C   UNL     1       6.020   4.424  16.854  0.00  0.00    +0.000 C 
ATOM      2  C   UNL     1       6.208   5.498  15.749  0.00  0.00    +0.000 C 
ATOM      3  C   UNL     1       5.017   6.465  15.916  0.00  0.00    +0.000 C 
ATOM      4  N   UNL     1       4.656   6.246  17.307  0.00  0.00    +0.000 NA
ATOM      5  C   UNL     1       3.468   6.907  17.830  0.00  0.00    +0.000 C 
ATOM      6  C   UNL     1       2.977   6.365  19.207  0.00  0.00    +0.000 C 
ATOM      7  N   UNL     1       3.241   4.942  19.456  0.00  0.00    +0.000 N 
ATOM      8  C   UNL     1       2.387   4.234  20.272  0.00  0.00    +0.000 C 
ATOM      9  C   UNL     1       2.641   2.768  20.550  0.00  0.00    +0.000 C 
ATOM     10  O   UNL     1       1.375   4.751  20.753  0.00  0.00    +0.000 OA
ATOM     11  C   UNL     1       4.586   4.514  19.032  0.00  0.00    +0.000 C 
ATOM     12  C   UNL     1       4.715   4.802  17.538  0.00  0.00    +0.000 C 
ENDROOT
BRANCH   2  13
ATOM     13  C   UNL     1       6.372   4.905  14.367  0.00  0.00    +0.000 A 
ATOM     14  C   UNL     1       5.487   3.938  13.867  0.00  0.00    +0.000 A 
ATOM     15  C   UNL     1       5.697   3.365  12.612  0.00  0.00    +0.000 A 
ATOM     16  C   UNL     1       6.788   3.754  11.838  0.00  0.00    +0.000 A 
ATOM     17  C   UNL     1       7.669   4.719  12.316  0.00  0.00    +0.000 A 
ATOM     18  C   UNL     1       7.464   5.291  13.573  0.00  0.00    +0.000 A 
ENDBRANCH   2  13
BRANCH   1  19
ATOM     19  C   UNL     1       7.218   4.493  17.772  0.00  0.00    +0.000 C 
ATOM     20  O   UNL     1       8.308   3.995  17.549  0.00  0.00    +0.000 OA
BRANCH  19  21
ATOM     21  O   UNL     1       6.873   5.116  18.934  0.00  0.00    +0.000 OA
BRANCH  21  23
ATOM     22  C   UNL     1       8.543   5.349  20.611  0.00  0.00    +0.000 C 
ATOM     23  C   UNL     1       7.870   6.017  19.426  0.00  0.00    +0.000 C 
ENDBRANCH  21  23
ENDBRANCH  19  21
ENDBRANCH   1  19
TORSDOF 4
ENDMDL
MODEL 4
REMARK VINA RESULT:      -6.3      2.287      6.658
REMARK  Name = 
REMARK  6 active torsions:
REMARK  status: ('A' for Active; 'I' for Inactive)
REMARK    1  A    between atoms: C_1  and  C_2
REMARK    2  A    between atoms: C_2  and  O_3
REMARK    3  A    between atoms: O_3  and  C_4
REMARK    4  A    between atoms: C_4  and  C_6
REMARK    5  A    between atoms: C_7  and  C_8
REMARK    6  A    between atoms: C_19  and  C_20
REMARK                            x       y       z     vdW  Elec       q    Type
REMARK                         _______ _______ _______ _____ _____    ______ ____
ROOT
ATOM      1  C   UNL     1       3.698   5.205  17.625  0.00  0.00    +0.000 C 
ATOM      2  C   UNL     1       4.193   5.054  19.088  0.00  0.00    +0.000 C 
ATOM      3  C   UNL     1       5.612   4.458  18.979  0.00  0.00    +0.000 C 
ATOM      4  N   UNL     1       5.993   4.857  17.634  0.00  0.00    +0.000 NA
ATOM      5  C   UNL     1       7.256   4.371  17.096  0.00  0.00    +0.000 C 
ATOM      6  C   UNL     1       7.427   4.571  15.559  0.00  0.00    +0.000 C 
ATOM      7  N   UNL     1       6.185   4.527  14.776  0.00  0.00    +0.000 N 
ATOM      8  C   UNL     1       6.231   4.090  13.470  0.00  0.00    +0.000 C 
ATOM      9  C   UNL     1       4.968   4.042  12.638  0.00  0.00    +0.000 C 
ATOM     10  O   UNL     1       7.279   3.682  12.961  0.00  0.00    +0.000 OA
ATOM     11  C   UNL     1       5.070   5.255  15.405  0.00  0.00    +0.000 C 
ATOM     12  C   UNL     1       4.827   4.634  16.779  0.00  0.00    +0.000 C 
ENDROOT
BRANCH   2  13
ATOM     13  C   UNL     1       3.230   4.281  19.963  0.00  0.00    +0.000 A 
ATOM     14  C   UNL     1       3.620   3.116  20.641  0.00  0.00    +0.000 A 
ATOM     15  C   UNL     1       2.696   2.390  21.394  0.00  0.00    +0.000 A 
ATOM     16  C   UNL     1       1.373   2.819  21.483  0.00  0.00    +0.000 A 
ATOM     17  C   UNL     1       0.974   3.977  20.823  0.00  0.00    +0.000 A 
ATOM     18  C   UNL     1       1.895   4.703  20.067  0.00  0.00    +0.000 A 
ENDBRANCH   2  13
BRANCH   1  19
ATOM     19  C   UNL     1       3.446   6.673  17.372  0.00  0.00    +0.000 C 
ATOM     20  O   UNL     1       4.266   7.468  16.948  0.00  0.00    +0.000 OA
BRANCH  19  21
ATOM     21  O   UNL     1       2.186   7.000  17.779  0.00  0.00    +0.000 OA
BRANCH  21  23
ATOM     22  C   UNL     1       1.354   9.226  17.890  0.00  0.00    +0.000 C 
ATOM     23  C   UNL     1       2.135   8.152  18.628  0.00  0.00    +0.000 C 
ENDBRANCH  21  23
ENDBRANCH  19  21
ENDBRANCH   1  19
TORSDOF 4
ENDMDL
MODEL 5
REMARK VINA RESULT:      -6.2      2.293      6.691
REMARK  Name = 
REMARK  6 active torsions:
REMARK  status: ('A' for Active; 'I' for Inactive)
REMARK    1  A    between atoms: C_1  and  C_2
REMARK    2  A    between atoms: C_2  and  O_3
REMARK    3  A    between atoms: O_3  and  C_4
REMARK    4  A    between atoms: C_4  and  C_6
REMARK    5  A    between atoms: C_7  and  C_8
REMARK    6  A    between atoms: C_19  and  C_20
REMARK                            x       y       z     vdW  Elec       q    Type
REMARK                         _______ _______ _______ _____ _____    ______ ____
ROOT
ATOM      1  C   UNL     1       3.671   5.163  17.585  0.00  0.00    +0.000 C 
ATOM      2  C   UNL     1       4.147   4.985  19.052  0.00  0.00    +0.000 C 
ATOM      3  C   UNL     1       5.565   4.385  18.950  0.00  0.00    +0.000 C 
ATOM      4  N   UNL     1       5.964   4.806  17.617  0.00  0.00    +0.000 NA
ATOM      5  C   UNL     1       7.232   4.324  17.086  0.00  0.00    +0.000 C 
ATOM      6  C   UNL     1       7.422   4.549  15.555  0.00  0.00    +0.000 C 
ATOM      7  N   UNL     1       6.191   4.523  14.756  0.00  0.00    +0.000 N 
ATOM      8  C   UNL     1       6.251   4.109  13.444  0.00  0.00    +0.000 C 
ATOM      9  C   UNL     1       4.998   4.080  12.596  0.00  0.00    +0.000 C 
ATOM     10  O   UNL     1       7.304   3.705  12.941  0.00  0.00    +0.000 OA
ATOM     11  C   UNL     1       5.070   5.246  15.384  0.00  0.00    +0.000 C 
ATOM     12  C   UNL     1       4.808   4.602  16.743  0.00  0.00    +0.000 C 
ENDROOT
BRANCH   2  13
ATOM     13  C   UNL     1       3.171   4.201  19.901  0.00  0.00    +0.000 A 
ATOM     14  C   UNL     1       1.824   4.577  20.019  0.00  0.00    +0.000 A 
ATOM     15  C   UNL     1       0.960   3.869  20.856  0.00  0.00    +0.000 A 
ATOM     16  C   UNL     1       1.428   2.775  21.581  0.00  0.00    +0.000 A 
ATOM     17  C   UNL     1       2.758   2.385  21.468  0.00  0.00    +0.000 A 
ATOM     18  C   UNL     1       3.625   3.093  20.635  0.00  0.00    +0.000 A 
ENDBRANCH   2  13
BRANCH   1  19
ATOM     19  C   UNL     1       3.427   6.636  17.354  0.00  0.00    +0.000 C 
ATOM     20  O   UNL     1       4.249   7.430  16.932  0.00  0.00    +0.000 OA
BRANCH  19  21
ATOM     21  O   UNL     1       2.175   6.967  17.780  0.00  0.00    +0.000 OA
BRANCH  21  23
ATOM     22  C   UNL     1       1.433   9.223  17.910  0.00  0.00    +0.000 C 
ATOM     23  C   UNL     1       2.143   8.103  18.650  0.00  0.00    +0.000 C 
ENDBRANCH  21  23
ENDBRANCH  19  21
ENDBRANCH   1  19
TORSDOF 4
ENDMDL
MODEL 6
REMARK VINA RESULT:      -6.1      7.252      9.620
REMARK  Name = 
REMARK  6 active torsions:
REMARK  status: ('A' for Active; 'I' for Inactive)
REMARK    1  A    between atoms: C_1  and  C_2
REMARK    2  A    between atoms: C_2  and  O_3
REMARK    3  A    between atoms: O_3  and  C_4
REMARK    4  A    between atoms: C_4  and  C_6
REMARK    5  A    between atoms: C_7  and  C_8
REMARK    6  A    between atoms: C_19  and  C_20
REMARK                            x       y       z     vdW  Elec       q    Type
REMARK                         _______ _______ _______ _____ _____    ______ ____
ROOT
ATOM      1  C   UNL     1       0.237  11.304  20.506  0.00  0.00    +0.000 C 
ATOM      2  C   UNL     1       0.477  10.786  19.063  0.00  0.00    +0.000 C 
ATOM      3  C   UNL     1      -0.922  10.732  18.413  0.00  0.00    +0.000 C 
ATOM      4  N   UNL     1      -1.657  11.691  19.221  0.00  0.00    +0.000 NA
ATOM      5  C   UNL     1      -3.087  11.843  18.992  0.00  0.00    +0.000 C 
ATOM      6  C   UNL     1      -3.843  12.632  20.104  0.00  0.00    +0.000 C 
ATOM      7  N   UNL     1      -3.287  12.504  21.457  0.00  0.00    +0.000 N 
ATOM      8  C   UNL     1      -4.130  12.611  22.542  0.00  0.00    +0.000 C 
ATOM      9  C   UNL     1      -3.582  12.489  23.947  0.00  0.00    +0.000 C 
ATOM     10  O   UNL     1      -5.348  12.756  22.402  0.00  0.00    +0.000 OA
ATOM     11  C   UNL     1      -1.816  12.576  21.495  0.00  0.00    +0.000 C 
ATOM     12  C   UNL     1      -1.273  11.454  20.614  0.00  0.00    +0.000 C 
ENDROOT
BRANCH   2  13
ATOM     13  C   UNL     1       1.262   9.494  19.019  0.00  0.00    +0.000 A 
ATOM     14  C   UNL     1       1.927   9.072  17.858  0.00  0.00    +0.000 A 
ATOM     15  C   UNL     1       2.595   7.846  17.828  0.00  0.00    +0.000 A 
ATOM     16  C   UNL     1       2.612   7.031  18.958  0.00  0.00    +0.000 A 
ATOM     17  C   UNL     1       1.965   7.440  20.119  0.00  0.00    +0.000 A 
ATOM     18  C   UNL     1       1.293   8.663  20.151  0.00  0.00    +0.000 A 
ENDBRANCH   2  13
BRANCH   1  19
ATOM     19  C   UNL     1       0.979  12.612  20.656  0.00  0.00    +0.000 C 
ATOM     20  O   UNL     1       1.256  13.149  21.715  0.00  0.00    +0.000 OA
BRANCH  19  21
ATOM     21  O   UNL     1       1.211  13.153  19.427  0.00  0.00    +0.000 OA
BRANCH  21  23
ATOM     22  C   UNL     1      -0.203  14.954  18.782  0.00  0.00    +0.000 C 
ATOM     23  C   UNL     1       1.133  14.582  19.401  0.00  0.00    +0.000 C 
ENDBRANCH  21  23
ENDBRANCH  19  21
ENDBRANCH   1  19
TORSDOF 4
ENDMDL
MODEL 7
REMARK VINA RESULT:      -6.1      7.197      9.567
REMARK  Name = 
REMARK  6 active torsions:
REMARK  status: ('A' for Active; 'I' for Inactive)
REMARK    1  A    between atoms: C_1  and  C_2
REMARK    2  A    between atoms: C_2  and  O_3
REMARK    3  A    between atoms: O_3  and  C_4
REMARK    4  A    between atoms: C_4  and  C_6
REMARK    5  A    between atoms: C_7  and  C_8
REMARK    6  A    between atoms: C_19  and  C_20
REMARK                            x       y       z     vdW  Elec       q    Type
REMARK                         _______ _______ _______ _____ _____    ______ ____
ROOT
ATOM      1  C   UNL     1       0.290  11.260  20.389  0.00  0.00    +0.000 C 
ATOM      2  C   UNL     1       0.503  10.687  18.962  0.00  0.00    +0.000 C 
ATOM      3  C   UNL     1      -0.903  10.641  18.328  0.00  0.00    +0.000 C 
ATOM      4  N   UNL     1      -1.608  11.644  19.109  0.00  0.00    +0.000 NA
ATOM      5  C   UNL     1      -3.037  11.821  18.887  0.00  0.00    +0.000 C 
ATOM      6  C   UNL     1      -3.763  12.666  19.978  0.00  0.00    +0.000 C 
ATOM      7  N   UNL     1      -3.197  12.572  21.330  0.00  0.00    +0.000 N 
ATOM      8  C   UNL     1      -4.026  12.736  22.417  0.00  0.00    +0.000 C 
ATOM      9  C   UNL     1      -3.467  12.652  23.821  0.00  0.00    +0.000 C 
ATOM     10  O   UNL     1      -5.242  12.904  22.284  0.00  0.00    +0.000 OA
ATOM     11  C   UNL     1      -1.724  12.612  21.351  0.00  0.00    +0.000 C 
ATOM     12  C   UNL     1      -1.216  11.448  20.505  0.00  0.00    +0.000 C 
ENDROOT
BRANCH   2  13
ATOM     13  C   UNL     1       1.259   9.376  18.957  0.00  0.00    +0.000 A 
ATOM     14  C   UNL     1       1.312   8.548  20.088  0.00  0.00    +0.000 A 
ATOM     15  C   UNL     1       2.066   7.373  20.074  0.00  0.00    +0.000 A 
ATOM     16  C   UNL     1       2.771   7.008  18.929  0.00  0.00    +0.000 A 
ATOM     17  C   UNL     1       2.720   7.814  17.796  0.00  0.00    +0.000 A 
ATOM     18  C   UNL     1       1.971   8.991  17.809  0.00  0.00    +0.000 A 
ENDBRANCH   2  13
BRANCH   1  19
ATOM     19  C   UNL     1       1.062  12.555  20.486  0.00  0.00    +0.000 C 
ATOM     20  O   UNL     1       1.393  13.104  21.522  0.00  0.00    +0.000 OA
BRANCH  19  21
ATOM     21  O   UNL     1       1.254  13.071  19.239  0.00  0.00    +0.000 OA
BRANCH  21  23
ATOM     22  C   UNL     1      -0.164  14.939  18.842  0.00  0.00    +0.000 C 
ATOM     23  C   UNL     1       1.246  14.502  19.198  0.00  0.00    +0.000 C 
ENDBRANCH  21  23
ENDBRANCH  19  21
ENDBRANCH   1  19
TORSDOF 4
ENDMDL
MODEL 8
REMARK VINA RESULT:      -6.1      2.023      6.119
REMARK  Name = 
REMARK  6 active torsions:
REMARK  status: ('A' for Active; 'I' for Inactive)
REMARK    1  A    between atoms: C_1  and  C_2
REMARK    2  A    between atoms: C_2  and  O_3
REMARK    3  A    between atoms: O_3  and  C_4
REMARK    4  A    between atoms: C_4  and  C_6
REMARK    5  A    between atoms: C_7  and  C_8
REMARK    6  A    between atoms: C_19  and  C_20
REMARK                            x       y       z     vdW  Elec       q    Type
REMARK                         _______ _______ _______ _____ _____    ______ ____
ROOT
ATOM      1  C   UNL     1       5.743   6.139  17.269  0.00  0.00    +0.000 C 
ATOM      2  C   UNL     1       4.454   5.583  17.931  0.00  0.00    +0.000 C 
ATOM      3  C   UNL     1       3.860   4.600  16.900  0.00  0.00    +0.000 C 
ATOM      4  N   UNL     1       5.034   4.253  16.116  0.00  0.00    +0.000 NA
ATOM      5  C   UNL     1       4.862   3.414  14.938  0.00  0.00    +0.000 C 
ATOM      6  C   UNL     1       6.097   3.368  13.988  0.00  0.00    +0.000 C 
ATOM      7  N   UNL     1       6.913   4.589  13.954  0.00  0.00    +0.000 N 
ATOM      8  C   UNL     1       7.599   4.905  12.803  0.00  0.00    +0.000 C 
ATOM      9  C   UNL     1       8.453   6.153  12.743  0.00  0.00    +0.000 C 
ATOM     10  O   UNL     1       7.500   4.219  11.781  0.00  0.00    +0.000 OA
ATOM     11  C   UNL     1       7.140   5.178  15.286  0.00  0.00    +0.000 C 
ATOM     12  C   UNL     1       5.775   5.496  15.891  0.00  0.00    +0.000 C 
ENDROOT
BRANCH   2  13
ATOM     13  C   UNL     1       3.514   6.670  18.406  0.00  0.00    +0.000 A 
ATOM     14  C   UNL     1       2.855   6.588  19.641  0.00  0.00    +0.000 A 
ATOM     15  C   UNL     1       1.948   7.577  20.029  0.00  0.00    +0.000 A 
ATOM     16  C   UNL     1       1.694   8.660  19.190  0.00  0.00    +0.000 A 
ATOM     17  C   UNL     1       2.347   8.759  17.966  0.00  0.00    +0.000 A 
ATOM     18  C   UNL     1       3.251   7.770  17.575  0.00  0.00    +0.000 A 
ENDBRANCH   2  13
BRANCH   1  19
ATOM     19  C   UNL     1       6.914   5.747  18.139  0.00  0.00    +0.000 C 
ATOM     20  O   UNL     1       7.029   4.689  18.735  0.00  0.00    +0.000 OA
BRANCH  19  21
ATOM     21  O   UNL     1       7.785   6.791  18.238  0.00  0.00    +0.000 OA
BRANCH  21  23
ATOM     22  C   UNL     1       8.242   9.116  18.023  0.00  0.00    +0.000 C 
ATOM     23  C   UNL     1       7.339   7.979  17.576  0.00  0.00    +0.000 C 
ENDBRANCH  21  23
ENDBRANCH  19  21
ENDBRANCH   1  19
TORSDOF 4
ENDMDL
MODEL 9
REMARK VINA RESULT:      -6.0      7.808     10.460
REMARK  Name = 
REMARK  6 active torsions:
REMARK  status: ('A' for Active; 'I' for Inactive)
REMARK    1  A    between atoms: C_1  and  C_2
REMARK    2  A    between atoms: C_2  and  O_3
REMARK    3  A    between atoms: O_3  and  C_4
REMARK    4  A    between atoms: C_4  and  C_6
REMARK    5  A    between atoms: C_7  and  C_8
REMARK    6  A    between atoms: C_19  and  C_20
REMARK                            x       y       z     vdW  Elec       q    Type
REMARK                         _______ _______ _______ _____ _____    ______ ____
ROOT
ATOM      1  C   UNL     1      -1.304  11.541  19.478  0.00  0.00    +0.000 C 
ATOM      2  C   UNL     1      -0.504  10.842  18.346  0.00  0.00    +0.000 C 
ATOM      3  C   UNL     1      -1.568  10.340  17.347  0.00  0.00    +0.000 C 
ATOM      4  N   UNL     1      -2.682  11.227  17.637  0.00  0.00    +0.000 NA
ATOM      5  C   UNL     1      -3.953  10.991  16.965  0.00  0.00    +0.000 C 
ATOM      6  C   UNL     1      -5.162  11.766  17.572  0.00  0.00    +0.000 C 
ATOM      7  N   UNL     1      -5.088  12.020  19.017  0.00  0.00    +0.000 N 
ATOM      8  C   UNL     1      -6.255  12.118  19.741  0.00  0.00    +0.000 C 
ATOM      9  C   UNL     1      -6.208  12.387  21.230  0.00  0.00    +0.000 C 
ATOM     10  O   UNL     1      -7.359  11.942  19.216  0.00  0.00    +0.000 OA
ATOM     11  C   UNL     1      -3.751  12.446  19.468  0.00  0.00    +0.000 C 
ATOM     12  C   UNL     1      -2.763  11.344  19.094  0.00  0.00    +0.000 C 
ENDROOT
BRANCH   2  13
ATOM     13  C   UNL     1       0.452   9.787  18.859  0.00  0.00    +0.000 A 
ATOM     14  C   UNL     1       1.387   9.166  18.019  0.00  0.00    +0.000 A 
ATOM     15  C   UNL     1       2.217   8.154  18.505  0.00  0.00    +0.000 A 
ATOM     16  C   UNL     1       2.126   7.755  19.836  0.00  0.00    +0.000 A 
ATOM     17  C   UNL     1       1.210   8.368  20.685  0.00  0.00    +0.000 A 
ATOM     18  C   UNL     1       0.376   9.377  20.200  0.00  0.00    +0.000 A 
ENDBRANCH   2  13
BRANCH   1  19
ATOM     19  C   UNL     1      -0.885  12.992  19.511  0.00  0.00    +0.000 C 
ATOM     20  O   UNL     1      -0.551  13.653  18.543  0.00  0.00    +0.000 OA
BRANCH  19  21
ATOM     21  O   UNL     1      -0.844  13.430  20.801  0.00  0.00    +0.000 OA
BRANCH  21  23
ATOM     22  C   UNL     1      -1.277  12.598  22.987  0.00  0.00    +0.000 C 
ATOM     23  C   UNL     1      -0.430  12.430  21.738  0.00  0.00    +0.000 C 
ENDBRANCH  21  23
ENDBRANCH  19  21
ENDBRANCH   1  19
TORSDOF 4
ENDMDL
