MODEL 1
REMARK VINA RESULT:      -7.3      0.000      0.000
REMARK  Name = 
REMARK  6 active torsions:
REMARK  status: ('A' for Active; 'I' for Inactive)
REMARK    1  A    between atoms: C_1  and  N_2
REMARK    2  A    between atoms: N_2  and  C_3
REMARK    3  A    between atoms: N_2  and  S_18
REMARK    4  A    between atoms: C_3  and  C_4
REMARK    5  A    between atoms: N_9  and  C_10
REMARK    6  A    between atoms: S_18  and  C_21
REMARK                            x       y       z     vdW  Elec       q    Type
REMARK                         _______ _______ _______ _____ _____    ______ ____
ROOT
ATOM      1  C   UNL     1       2.493   7.586  18.596  0.00  0.00    +0.000 C 
ATOM      2  O   UNL     1       2.950   7.876  17.487  0.00  0.00    +0.000 OA
ATOM      3  N   UNL     1       1.801   8.523  19.339  0.00  0.00    +0.000 N 
ATOM      4  C   UNL     1       1.411   9.788  18.702  0.00  0.00    +0.000 C 
ATOM      5  C   UNL     1      -0.083  10.061  18.932  0.00  0.00    +0.000 C 
ATOM      6  N   UNL     1      -0.389  10.018  20.373  0.00  0.00    +0.000 N 
ATOM      7  C   UNL     1       0.006   8.781  21.066  0.00  0.00    +0.000 C 
ATOM      8  C   UNL     1       1.489   8.458  20.776  0.00  0.00    +0.000 C 
ENDROOT
BRANCH   6   9
ATOM      9  C   UNL     1      -0.897  11.109  21.046  0.00  0.00    +0.000 A 
ATOM     10  C   UNL     1      -0.909  11.167  22.448  0.00  0.00    +0.000 A 
ATOM     11  C   UNL     1      -1.460  12.254  23.135  0.00  0.00    +0.000 A 
ATOM     12  C   UNL     1      -2.009  13.319  22.432  0.00  0.00    +0.000 A 
ATOM     13  C   UNL     1      -1.996  13.299  21.042  0.00  0.00    +0.000 A 
ATOM     14  C   UNL     1      -1.445  12.207  20.365  0.00  0.00    +0.000 A 
ENDBRANCH   6   9
BRANCH   1  15
ATOM     15  C   UNL     1       2.697   6.195  19.189  0.00  0.00    +0.000 C 
BRANCH  15  17
ATOM     16  C   UNL     1       2.279   4.202  17.766  0.00  0.00    +0.000 C 
ATOM     17  N   UNL     1       3.263   5.180  18.268  0.00  0.00    +0.000 NA
BRANCH  17  18
ATOM     18  S   UNL     1       4.744   4.519  18.788  0.00  0.00    +0.000 S 
ATOM     19  O   UNL     1       5.351   5.452  19.719  0.00  0.00    +0.000 OA
ATOM     20  O   UNL     1       4.562   3.128  19.133  0.00  0.00    +0.000 OA
BRANCH  18  21
ATOM     21  C   UNL     1       5.867   4.483  17.446  0.00  0.00    +0.000 A 
ATOM     22  C   UNL     1       7.231   4.683  17.528  0.00  0.00    +0.000 A 
ATOM     23  N   UNL     1       7.687   4.569  16.244  0.00  0.00    +0.000 N 
ATOM     24  C   UNL     1       6.610   4.308  15.441  0.00  0.00    +0.000 A 
ATOM     25  N   UNL     1       5.493   4.248  16.130  0.00  0.00    +0.000 NA
ATOM     26  H   UNL     1       8.645   4.662  15.935  0.00  0.00    +0.000 HD
ENDBRANCH  18  21
ENDBRANCH  17  18
ENDBRANCH  15  17
ENDBRANCH   1  15
TORSDOF 5
ENDMDL
MODEL 2
REMARK VINA RESULT:      -7.3      4.165      8.402
REMARK  Name = 
REMARK  6 active torsions:
REMARK  status: ('A' for Active; 'I' for Inactive)
REMARK    1  A    between atoms: C_1  and  N_2
REMARK    2  A    between atoms: N_2  and  C_3
REMARK    3  A    between atoms: N_2  and  S_18
REMARK    4  A    between atoms: C_3  and  C_4
REMARK    5  A    between atoms: N_9  and  C_10
REMARK    6  A    between atoms: S_18  and  C_21
REMARK                            x       y       z     vdW  Elec       q    Type
REMARK                         _______ _______ _______ _____ _____    ______ ____
ROOT
ATOM      1  C   UNL     1       3.520   6.403  18.645  0.00  0.00    +0.000 C 
ATOM      2  O   UNL     1       3.162   7.583  18.695  0.00  0.00    +0.000 OA
ATOM      3  N   UNL     1       4.069   5.883  17.488  0.00  0.00    +0.000 N 
ATOM      4  C   UNL     1       4.441   6.799  16.403  0.00  0.00    +0.000 C 
ATOM      5  C   UNL     1       5.882   6.527  15.946  0.00  0.00    +0.000 C 
ATOM      6  N   UNL     1       6.039   5.106  15.586  0.00  0.00    +0.000 N 
ATOM      7  C   UNL     1       5.654   4.143  16.631  0.00  0.00    +0.000 C 
ATOM      8  C   UNL     1       4.234   4.459  17.149  0.00  0.00    +0.000 C 
ENDROOT
BRANCH   6   9
ATOM      9  C   UNL     1       6.403   4.710  14.317  0.00  0.00    +0.000 A 
ATOM     10  C   UNL     1       7.484   5.299  13.646  0.00  0.00    +0.000 A 
ATOM     11  C   UNL     1       7.832   4.928  12.342  0.00  0.00    +0.000 A 
ATOM     12  C   UNL     1       7.106   3.947  11.679  0.00  0.00    +0.000 A 
ATOM     13  C   UNL     1       6.041   3.332  12.324  0.00  0.00    +0.000 A 
ATOM     14  C   UNL     1       5.699   3.711  13.625  0.00  0.00    +0.000 A 
ENDBRANCH   6   9
BRANCH   1  15
ATOM     15  C   UNL     1       3.344   5.479  19.846  0.00  0.00    +0.000 C 
BRANCH  15  17
ATOM     16  C   UNL     1       1.248   6.157  20.995  0.00  0.00    +0.000 C 
ATOM     17  N   UNL     1       1.944   5.133  20.192  0.00  0.00    +0.000 NA
BRANCH  17  18
ATOM     18  S   UNL     1       1.736   3.528  20.723  0.00  0.00    +0.000 S 
ATOM     19  O   UNL     1       2.062   3.475  22.135  0.00  0.00    +0.000 OA
ATOM     20  O   UNL     1       0.485   3.008  20.223  0.00  0.00    +0.000 OA
BRANCH  18  21
ATOM     21  C   UNL     1       2.949   2.510  19.979  0.00  0.00    +0.000 A 
ATOM     22  C   UNL     1       4.234   2.311  20.445  0.00  0.00    +0.000 A 
ATOM     23  N   UNL     1       4.811   1.453  19.550  0.00  0.00    +0.000 N 
ATOM     24  C   UNL     1       3.879   1.163  18.591  0.00  0.00    +0.000 A 
ATOM     25  N   UNL     1       2.743   1.782  18.815  0.00  0.00    +0.000 NA
ATOM     26  H   UNL     1       5.756   1.095  19.582  0.00  0.00    +0.000 HD
ENDBRANCH  18  21
ENDBRANCH  17  18
ENDBRANCH  15  17
ENDBRANCH   1  15
TORSDOF 5
ENDMDL
MODEL 3
REMARK VINA RESULT:      -7.1      1.898      2.969
REMARK  Name = 
REMARK  6 active torsions:
REMARK  status: ('A' for Active; 'I' for Inactive)
REMARK    1  A    between atoms: C_1  and  N_2
REMARK    2  A    between atoms: N_2  and  C_3
REMARK    3  A    between atoms: N_2  and  S_18
REMARK    4  A    between atoms: C_3  and  C_4
REMARK    5  A    between atoms: N_9  and  C_10
REMARK    6  A    between atoms: S_18  and  C_21
REMARK                            x       y       z     vdW  Elec       q    Type
REMARK                         _______ _______ _______ _____ _____    ______ ____
ROOT
ATOM      1  C   UNL     1       3.793   6.464  18.747  0.00  0.00    +0.000 C 
ATOM      2  O   UNL     1       3.867   5.636  19.659  0.00  0.00    +0.000 OA
ATOM      3  N   UNL     1       2.720   7.331  18.669  0.00  0.00    +0.000 N 
ATOM      4  C   UNL     1       1.793   7.420  19.805  0.00  0.00    +0.000 C 
ATOM      5  C   UNL     1       1.588   8.887  20.211  0.00  0.00    +0.000 C 
ATOM      6  N   UNL     1       1.155   9.678  19.046  0.00  0.00    +0.000 N 
ATOM      7  C   UNL     1       2.037   9.604  17.869  0.00  0.00    +0.000 C 
ATOM      8  C   UNL     1       2.310   8.128  17.502  0.00  0.00    +0.000 C 
ENDROOT
BRANCH   6   9
ATOM      9  C   UNL     1      -0.053  10.342  19.021  0.00  0.00    +0.000 A 
ATOM     10  C   UNL     1      -0.410  11.254  20.025  0.00  0.00    +0.000 A 
ATOM     11  C   UNL     1      -1.652  11.900  20.026  0.00  0.00    +0.000 A 
ATOM     12  C   UNL     1      -2.567  11.653  19.010  0.00  0.00    +0.000 A 
ATOM     13  C   UNL     1      -2.234  10.768  17.991  0.00  0.00    +0.000 A 
ATOM     14  C   UNL     1      -0.993  10.126  18.001  0.00  0.00    +0.000 A 
ENDBRANCH   6   9
BRANCH   1  15
ATOM     15  C   UNL     1       4.868   6.539  17.667  0.00  0.00    +0.000 C 
BRANCH  15  17
ATOM     16  C   UNL     1       7.227   7.301  17.845  0.00  0.00    +0.000 C 
ATOM     17  N   UNL     1       6.249   6.228  18.112  0.00  0.00    +0.000 NA
BRANCH  17  18
ATOM     18  S   UNL     1       6.769   4.656  17.715  0.00  0.00    +0.000 S 
ATOM     19  O   UNL     1       8.183   4.558  18.023  0.00  0.00    +0.000 OA
ATOM     20  O   UNL     1       5.823   3.688  18.222  0.00  0.00    +0.000 OA
BRANCH  18  21
ATOM     21  C   UNL     1       6.707   4.445  15.979  0.00  0.00    +0.000 A 
ATOM     22  C   UNL     1       5.949   3.508  15.305  0.00  0.00    +0.000 A 
ATOM     23  N   UNL     1       6.223   3.712  13.981  0.00  0.00    +0.000 N 
ATOM     24  C   UNL     1       7.117   4.744  13.894  0.00  0.00    +0.000 A 
ATOM     25  N   UNL     1       7.433   5.213  15.079  0.00  0.00    +0.000 NA
ATOM     26  H   UNL     1       5.840   3.195  13.200  0.00  0.00    +0.000 HD
ENDBRANCH  18  21
ENDBRANCH  17  18
ENDBRANCH  15  17
ENDBRANCH   1  15
TORSDOF 5
ENDMDL
MODEL 4
REMARK VINA RESULT:      -7.1      2.060      3.984
REMARK  Name = 
REMARK  6 active torsions:
REMARK  status: ('A' for Active; 'I' for Inactive)
REMARK    1  A    between atoms: C_1  and  N_2
REMARK    2  A    between atoms: N_2  and  C_3
REMARK    3  A    between atoms: N_2  and  S_18
REMARK    4  A    between atoms: C_3  and  C_4
REMARK    5  A    between atoms: N_9  and  C_10
REMARK    6  A    between atoms: S_18  and  C_21
REMARK                            x       y       z     vdW  Elec       q    Type
REMARK                         _______ _______ _______ _____ _____    ______ ____
ROOT
ATOM      1  C   UNL     1       3.446   3.855  18.157  0.00  0.00    +0.000 C 
ATOM      2  O   UNL     1       3.368   2.801  18.795  0.00  0.00    +0.000 OA
ATOM      3  N   UNL     1       2.744   4.975  18.558  0.00  0.00    +0.000 N 
ATOM      4  C   UNL     1       2.092   4.973  19.874  0.00  0.00    +0.000 C 
ATOM      5  C   UNL     1       2.475   6.235  20.660  0.00  0.00    +0.000 C 
ATOM      6  N   UNL     1       2.171   7.438  19.864  0.00  0.00    +0.000 N 
ATOM      7  C   UNL     1       2.779   7.479  18.524  0.00  0.00    +0.000 C 
ATOM      8  C   UNL     1       2.462   6.177  17.756  0.00  0.00    +0.000 C 
ENDROOT
BRANCH   6   9
ATOM      9  C   UNL     1       1.280   8.397  20.299  0.00  0.00    +0.000 A 
ATOM     10  C   UNL     1       0.985   9.528  19.525  0.00  0.00    +0.000 A 
ATOM     11  C   UNL     1       0.113  10.524  19.980  0.00  0.00    +0.000 A 
ATOM     12  C   UNL     1      -0.493  10.406  21.225  0.00  0.00    +0.000 A 
ATOM     13  C   UNL     1      -0.234   9.287  22.007  0.00  0.00    +0.000 A 
ATOM     14  C   UNL     1       0.641   8.299  21.545  0.00  0.00    +0.000 A 
ENDBRANCH   6   9
BRANCH   1  15
ATOM     15  C   UNL     1       4.301   3.946  16.896  0.00  0.00    +0.000 C 
BRANCH  15  17
ATOM     16  C   UNL     1       6.047   4.686  18.502  0.00  0.00    +0.000 C 
ATOM     17  N   UNL     1       5.690   4.427  17.094  0.00  0.00    +0.000 NA
BRANCH  17  18
ATOM     18  S   UNL     1       6.172   5.629  15.988  0.00  0.00    +0.000 S 
ATOM     19  O   UNL     1       5.018   6.458  15.694  0.00  0.00    +0.000 OA
ATOM     20  O   UNL     1       7.423   6.211  16.417  0.00  0.00    +0.000 OA
BRANCH  18  21
ATOM     21  C   UNL     1       6.551   4.886  14.451  0.00  0.00    +0.000 A 
ATOM     22  C   UNL     1       5.953   3.755  13.930  0.00  0.00    +0.000 A 
ATOM     23  N   UNL     1       6.567   3.547  12.726  0.00  0.00    +0.000 N 
ATOM     24  C   UNL     1       7.498   4.536  12.557  0.00  0.00    +0.000 A 
ATOM     25  N   UNL     1       7.518   5.364  13.576  0.00  0.00    +0.000 NA
ATOM     26  H   UNL     1       6.377   2.798  12.074  0.00  0.00    +0.000 HD
ENDBRANCH  18  21
ENDBRANCH  17  18
ENDBRANCH  15  17
ENDBRANCH   1  15
TORSDOF 5
ENDMDL
MODEL 5
REMARK VINA RESULT:      -7.1      1.801      2.890
REMARK  Name = 
REMARK  6 active torsions:
REMARK  status: ('A' for Active; 'I' for Inactive)
REMARK    1  A    between atoms: C_1  and  N_2
REMARK    2  A    between atoms: N_2  and  C_3
REMARK    3  A    between atoms: N_2  and  S_18
REMARK    4  A    between atoms: C_3  and  C_4
REMARK    5  A    between atoms: N_9  and  C_10
REMARK    6  A    between atoms: S_18  and  C_21
REMARK                            x       y       z     vdW  Elec       q    Type
REMARK                         _______ _______ _______ _____ _____    ______ ____
ROOT
ATOM      1  C   UNL     1       3.557   6.479  18.799  0.00  0.00    +0.000 C 
ATOM      2  O   UNL     1       3.704   5.675  19.724  0.00  0.00    +0.000 OA
ATOM      3  N   UNL     1       2.511   7.381  18.809  0.00  0.00    +0.000 N 
ATOM      4  C   UNL     1       1.715   7.535  20.034  0.00  0.00    +0.000 C 
ATOM      5  C   UNL     1       1.602   9.019  20.412  0.00  0.00    +0.000 C 
ATOM      6  N   UNL     1       1.071   9.792  19.275  0.00  0.00    +0.000 N 
ATOM      7  C   UNL     1       1.818   9.653  18.014  0.00  0.00    +0.000 C 
ATOM      8  C   UNL     1       2.002   8.159  17.667  0.00  0.00    +0.000 C 
ENDROOT
BRANCH   6   9
ATOM      9  C   UNL     1      -0.110  10.497  19.359  0.00  0.00    +0.000 A 
ATOM     10  C   UNL     1      -1.063  10.457  18.329  0.00  0.00    +0.000 A 
ATOM     11  C   UNL     1      -2.245  11.203  18.391  0.00  0.00    +0.000 A 
ATOM     12  C   UNL     1      -2.507  12.005  19.495  0.00  0.00    +0.000 A 
ATOM     13  C   UNL     1      -1.591  12.051  20.539  0.00  0.00    +0.000 A 
ATOM     14  C   UNL     1      -0.411  11.305  20.466  0.00  0.00    +0.000 A 
ENDBRANCH   6   9
BRANCH   1  15
ATOM     15  C   UNL     1       4.512   6.486  17.608  0.00  0.00    +0.000 C 
BRANCH  15  17
ATOM     16  C   UNL     1       6.855   7.310  17.549  0.00  0.00    +0.000 C 
ATOM     17  N   UNL     1       5.936   6.218  17.924  0.00  0.00    +0.000 NA
BRANCH  17  18
ATOM     18  S   UNL     1       6.457   4.652  17.504  0.00  0.00    +0.000 S 
ATOM     19  O   UNL     1       7.812   4.483  17.994  0.00  0.00    +0.000 OA
ATOM     20  O   UNL     1       5.423   3.694  17.816  0.00  0.00    +0.000 OA
BRANCH  18  21
ATOM     21  C   UNL     1       6.629   4.545  15.766  0.00  0.00    +0.000 A 
ATOM     22  C   UNL     1       5.864   3.760  14.925  0.00  0.00    +0.000 A 
ATOM     23  N   UNL     1       6.357   3.994  13.671  0.00  0.00    +0.000 N 
ATOM     24  C   UNL     1       7.381   4.893  13.787  0.00  0.00    +0.000 A 
ATOM     25  N   UNL     1       7.576   5.250  15.035  0.00  0.00    +0.000 NA
ATOM     26  H   UNL     1       6.030   3.578  12.809  0.00  0.00    +0.000 HD
ENDBRANCH  18  21
ENDBRANCH  17  18
ENDBRANCH  15  17
ENDBRANCH   1  15
TORSDOF 5
ENDMDL
MODEL 6
REMARK VINA RESULT:      -7.0      1.071      1.394
REMARK  Name = 
REMARK  6 active torsions:
REMARK  status: ('A' for Active; 'I' for Inactive)
REMARK    1  A    between atoms: C_1  and  N_2
REMARK    2  A    between atoms: N_2  and  C_3
REMARK    3  A    between atoms: N_2  and  S_18
REMARK    4  A    between atoms: C_3  and  C_4
REMARK    5  A    between atoms: N_9  and  C_10
REMARK    6  A    between atoms: S_18  and  C_21
REMARK                            x       y       z     vdW  Elec       q    Type
REMARK                         _______ _______ _______ _____ _____    ______ ____
ROOT
ATOM      1  C   UNL     1       2.596   7.374  18.679  0.00  0.00    +0.000 C 
ATOM      2  O   UNL     1       3.118   7.666  17.599  0.00  0.00    +0.000 OA
ATOM      3  N   UNL     1       1.899   8.323  19.402  0.00  0.00    +0.000 N 
ATOM      4  C   UNL     1       1.585   9.611  18.770  0.00  0.00    +0.000 C 
ATOM      5  C   UNL     1       0.092   9.932  18.930  0.00  0.00    +0.000 C 
ATOM      6  N   UNL     1      -0.288   9.876  20.352  0.00  0.00    +0.000 N 
ATOM      7  C   UNL     1       0.028   8.615  21.042  0.00  0.00    +0.000 C 
ATOM      8  C   UNL     1       1.512   8.246  20.821  0.00  0.00    +0.000 C 
ENDROOT
BRANCH   6   9
ATOM      9  C   UNL     1      -0.793  10.973  21.018  0.00  0.00    +0.000 A 
ATOM     10  C   UNL     1      -0.847  11.020  22.419  0.00  0.00    +0.000 A 
ATOM     11  C   UNL     1      -1.396  12.114  23.099  0.00  0.00    +0.000 A 
ATOM     12  C   UNL     1      -1.897  13.197  22.387  0.00  0.00    +0.000 A 
ATOM     13  C   UNL     1      -1.841  13.188  20.999  0.00  0.00    +0.000 A 
ATOM     14  C   UNL     1      -1.294  12.089  20.329  0.00  0.00    +0.000 A 
ENDBRANCH   6   9
BRANCH   1  15
ATOM     15  C   UNL     1       2.722   5.968  19.256  0.00  0.00    +0.000 C 
BRANCH  15  17
ATOM     16  C   UNL     1       1.488   4.222  17.990  0.00  0.00    +0.000 C 
ATOM     17  N   UNL     1       2.787   4.868  18.264  0.00  0.00    +0.000 NA
BRANCH  17  18
ATOM     18  S   UNL     1       4.095   3.802  18.492  0.00  0.00    +0.000 S 
ATOM     19  O   UNL     1       4.027   3.290  19.847  0.00  0.00    +0.000 OA
ATOM     20  O   UNL     1       4.201   2.911  17.359  0.00  0.00    +0.000 OA
BRANCH  18  21
ATOM     21  C   UNL     1       5.592   4.707  18.464  0.00  0.00    +0.000 A 
ATOM     22  C   UNL     1       6.267   5.119  17.332  0.00  0.00    +0.000 A 
ATOM     23  N   UNL     1       7.372   5.779  17.794  0.00  0.00    +0.000 N 
ATOM     24  C   UNL     1       7.334   5.748  19.162  0.00  0.00    +0.000 A 
ATOM     25  N   UNL     1       6.275   5.111  19.604  0.00  0.00    +0.000 NA
ATOM     26  H   UNL     1       8.094   6.211  17.233  0.00  0.00    +0.000 HD
ENDBRANCH  18  21
ENDBRANCH  17  18
ENDBRANCH  15  17
ENDBRANCH   1  15
TORSDOF 5
ENDMDL
MODEL 7
REMARK VINA RESULT:      -7.0      2.154      3.814
REMARK  Name = 
REMARK  6 active torsions:
REMARK  status: ('A' for Active; 'I' for Inactive)
REMARK    1  A    between atoms: C_1  and  N_2
REMARK    2  A    between atoms: N_2  and  C_3
REMARK    3  A    between atoms: N_2  and  S_18
REMARK    4  A    between atoms: C_3  and  C_4
REMARK    5  A    between atoms: N_9  and  C_10
REMARK    6  A    between atoms: S_18  and  C_21
REMARK                            x       y       z     vdW  Elec       q    Type
REMARK                         _______ _______ _______ _____ _____    ______ ____
ROOT
ATOM      1  C   UNL     1       3.631   3.939  18.298  0.00  0.00    +0.000 C 
ATOM      2  O   UNL     1       3.637   2.950  19.035  0.00  0.00    +0.000 OA
ATOM      3  N   UNL     1       2.882   5.054  18.621  0.00  0.00    +0.000 N 
ATOM      4  C   UNL     1       2.283   5.145  19.959  0.00  0.00    +0.000 C 
ATOM      5  C   UNL     1       2.623   6.497  20.604  0.00  0.00    +0.000 C 
ATOM      6  N   UNL     1       2.220   7.598  19.712  0.00  0.00    +0.000 N 
ATOM      7  C   UNL     1       2.773   7.541  18.349  0.00  0.00    +0.000 C 
ATOM      8  C   UNL     1       2.501   6.156  17.722  0.00  0.00    +0.000 C 
ENDROOT
BRANCH   6   9
ATOM      9  C   UNL     1       1.294   8.547  20.093  0.00  0.00    +0.000 A 
ATOM     10  C   UNL     1       0.659   8.491  21.342  0.00  0.00    +0.000 A 
ATOM     11  C   UNL     1      -0.312   9.428  21.716  0.00  0.00    +0.000 A 
ATOM     12  C   UNL     1      -0.664  10.453  20.847  0.00  0.00    +0.000 A 
ATOM     13  C   UNL     1      -0.039  10.544  19.610  0.00  0.00    +0.000 A 
ATOM     14  C   UNL     1       0.927   9.602  19.244  0.00  0.00    +0.000 A 
ENDBRANCH   6   9
BRANCH   1  15
ATOM     15  C   UNL     1       4.430   3.952  16.998  0.00  0.00    +0.000 C 
BRANCH  15  17
ATOM     16  C   UNL     1       5.289   5.686  15.439  0.00  0.00    +0.000 C 
ATOM     17  N   UNL     1       5.321   5.121  16.802  0.00  0.00    +0.000 NA
BRANCH  17  18
ATOM     18  S   UNL     1       6.874   4.930  17.473  0.00  0.00    +0.000 S 
ATOM     19  O   UNL     1       6.730   4.286  18.765  0.00  0.00    +0.000 OA
ATOM     20  O   UNL     1       7.777   4.408  16.472  0.00  0.00    +0.000 OA
BRANCH  18  21
ATOM     21  C   UNL     1       7.535   6.502  17.865  0.00  0.00    +0.000 A 
ATOM     22  C   UNL     1       8.300   6.803  18.974  0.00  0.00    +0.000 A 
ATOM     23  N   UNL     1       8.580   8.137  18.864  0.00  0.00    +0.000 N 
ATOM     24  C   UNL     1       7.991   8.593  17.717  0.00  0.00    +0.000 A 
ATOM     25  N   UNL     1       7.351   7.636  17.086  0.00  0.00    +0.000 NA
ATOM     26  H   UNL     1       9.122   8.694  19.512  0.00  0.00    +0.000 HD
ENDBRANCH  18  21
ENDBRANCH  17  18
ENDBRANCH  15  17
ENDBRANCH   1  15
TORSDOF 5
ENDMDL
MODEL 8
REMARK VINA RESULT:      -7.0      1.320      1.681
REMARK  Name = 
REMARK  6 active torsions:
REMARK  status: ('A' for Active; 'I' for Inactive)
REMARK    1  A    between atoms: C_1  and  N_2
REMARK    2  A    between atoms: N_2  and  C_3
REMARK    3  A    between atoms: N_2  and  S_18
REMARK    4  A    between atoms: C_3  and  C_4
REMARK    5  A    between atoms: N_9  and  C_10
REMARK    6  A    between atoms: S_18  and  C_21
REMARK                            x       y       z     vdW  Elec       q    Type
REMARK                         _______ _______ _______ _____ _____    ______ ____
ROOT
ATOM      1  C   UNL     1       2.500   7.247  18.940  0.00  0.00    +0.000 C 
ATOM      2  O   UNL     1       2.913   7.412  17.789  0.00  0.00    +0.000 OA
ATOM      3  N   UNL     1       1.822   8.257  19.596  0.00  0.00    +0.000 N 
ATOM      4  C   UNL     1       1.391   9.436  18.834  0.00  0.00    +0.000 C 
ATOM      5  C   UNL     1      -0.097   9.718  19.088  0.00  0.00    +0.000 C 
ATOM      6  N   UNL     1      -0.350   9.838  20.535  0.00  0.00    +0.000 N 
ATOM      7  C   UNL     1       0.089   8.693  21.350  0.00  0.00    +0.000 C 
ATOM      8  C   UNL     1       1.564   8.355  21.042  0.00  0.00    +0.000 C 
ENDROOT
BRANCH   6   9
ATOM      9  C   UNL     1      -0.849  10.995  21.097  0.00  0.00    +0.000 A 
ATOM     10  C   UNL     1      -0.816  11.210  22.482  0.00  0.00    +0.000 A 
ATOM     11  C   UNL     1      -1.358  12.364  23.061  0.00  0.00    +0.000 A 
ATOM     12  C   UNL     1      -1.941  13.338  22.260  0.00  0.00    +0.000 A 
ATOM     13  C   UNL     1      -1.973  13.161  20.882  0.00  0.00    +0.000 A 
ATOM     14  C   UNL     1      -1.431  12.004  20.314  0.00  0.00    +0.000 A 
ENDBRANCH   6   9
BRANCH   1  15
ATOM     15  C   UNL     1       2.747   5.937  19.681  0.00  0.00    +0.000 C 
BRANCH  15  17
ATOM     16  C   UNL     1       0.974   4.311  20.305  0.00  0.00    +0.000 C 
ATOM     17  N   UNL     1       1.902   4.792  19.263  0.00  0.00    +0.000 NA
BRANCH  17  18
ATOM     18  S   UNL     1       2.747   3.575  18.424  0.00  0.00    +0.000 S 
ATOM     19  O   UNL     1       2.999   2.484  19.348  0.00  0.00    +0.000 OA
ATOM     20  O   UNL     1       2.121   3.342  17.143  0.00  0.00    +0.000 OA
BRANCH  18  21
ATOM     21  C   UNL     1       4.347   4.153  18.019  0.00  0.00    +0.000 A 
ATOM     22  C   UNL     1       4.723   4.714  16.814  0.00  0.00    +0.000 A 
ATOM     23  N   UNL     1       6.052   5.005  16.954  0.00  0.00    +0.000 N 
ATOM     24  C   UNL     1       6.432   4.623  18.211  0.00  0.00    +0.000 A 
ATOM     25  N   UNL     1       5.431   4.104  18.885  0.00  0.00    +0.000 NA
ATOM     26  H   UNL     1       6.653   5.425  16.257  0.00  0.00    +0.000 HD
ENDBRANCH  18  21
ENDBRANCH  17  18
ENDBRANCH  15  17
ENDBRANCH   1  15
TORSDOF 5
ENDMDL
MODEL 9
REMARK VINA RESULT:      -6.9      2.117      3.253
REMARK  Name = 
REMARK  6 active torsions:
REMARK  status: ('A' for Active; 'I' for Inactive)
REMARK    1  A    between atoms: C_1  and  N_2
REMARK    2  A    between atoms: N_2  and  C_3
REMARK    3  A    between atoms: N_2  and  S_18
REMARK    4  A    between atoms: C_3  and  C_4
REMARK    5  A    between atoms: N_9  and  C_10
REMARK    6  A    between atoms: S_18  and  C_21
REMARK                            x       y       z     vdW  Elec       q    Type
REMARK                         _______ _______ _______ _____ _____    ______ ____
ROOT
ATOM      1  C   UNL     1       3.955   6.347  18.865  0.00  0.00    +0.000 C 
ATOM      2  O   UNL     1       3.922   5.454  19.716  0.00  0.00    +0.000 OA
ATOM      3  N   UNL     1       2.878   7.195  18.693  0.00  0.00    +0.000 N 
ATOM      4  C   UNL     1       1.792   7.177  19.682  0.00  0.00    +0.000 C 
ATOM      5  C   UNL     1       1.483   8.604  20.159  0.00  0.00    +0.000 C 
ATOM      6  N   UNL     1       1.200   9.473  19.003  0.00  0.00    +0.000 N 
ATOM      7  C   UNL     1       2.245   9.507  17.967  0.00  0.00    +0.000 C 
ATOM      8  C   UNL     1       2.616   8.070  17.538  0.00  0.00    +0.000 C 
ENDROOT
BRANCH   6   9
ATOM      9  C   UNL     1      -0.013  10.111  18.847  0.00  0.00    +0.000 A 
ATOM     10  C   UNL     1      -0.478  11.041  19.788  0.00  0.00    +0.000 A 
ATOM     11  C   UNL     1      -1.726  11.661  19.656  0.00  0.00    +0.000 A 
ATOM     12  C   UNL     1      -2.538  11.368  18.567  0.00  0.00    +0.000 A 
ATOM     13  C   UNL     1      -2.097  10.464  17.609  0.00  0.00    +0.000 A 
ATOM     14  C   UNL     1      -0.850   9.848  17.752  0.00  0.00    +0.000 A 
ENDBRANCH   6   9
BRANCH   1  15
ATOM     15  C   UNL     1       5.174   6.528  17.965  0.00  0.00    +0.000 C 
BRANCH  15  17
ATOM     16  C   UNL     1       4.753   4.176  17.282  0.00  0.00    +0.000 C 
ATOM     17  N   UNL     1       5.387   5.466  16.951  0.00  0.00    +0.000 NA
BRANCH  17  18
ATOM     18  S   UNL     1       6.988   5.364  16.379  0.00  0.00    +0.000 S 
ATOM     19  O   UNL     1       7.535   6.707  16.333  0.00  0.00    +0.000 OA
ATOM     20  O   UNL     1       7.681   4.296  17.061  0.00  0.00    +0.000 OA
BRANCH  18  21
ATOM     21  C   UNL     1       6.974   4.864  14.703  0.00  0.00    +0.000 A 
ATOM     22  C   UNL     1       6.202   3.852  14.167  0.00  0.00    +0.000 A 
ATOM     23  N   UNL     1       6.526   3.818  12.839  0.00  0.00    +0.000 N 
ATOM     24  C   UNL     1       7.463   4.790  12.615  0.00  0.00    +0.000 A 
ATOM     25  N   UNL     1       7.760   5.443  13.715  0.00  0.00    +0.000 NA
ATOM     26  H   UNL     1       6.148   3.190  12.143  0.00  0.00    +0.000 HD
ENDBRANCH  18  21
ENDBRANCH  17  18
ENDBRANCH  15  17
ENDBRANCH   1  15
TORSDOF 5
ENDMDL
