MODEL 1
REMARK VINA RESULT:      -8.6      0.000      0.000
REMARK  Name = 
REMARK  12 active torsions:
REMARK  status: ('A' for Active; 'I' for Inactive)
REMARK    1  A    between atoms: C_1  and  C_2
REMARK    2  A    between atoms: C_5  and  C_6
REMARK    3  A    between atoms: C_7  and  C_8
REMARK    4  A    between atoms: C_8  and  O_9
REMARK    5  A    between atoms: O_9  and  C_10
REMARK    6  A    between atoms: C_14  and  C_15
REMARK    7  A    between atoms: C_15  and  O_17
REMARK    8  A    between atoms: O_17  and  C_18
REMARK    9  A    between atoms: C_18  and  C_19
REMARK   10  A    between atoms: C_22  and  C_24
REMARK   11  A    between atoms: C_27  and  O_28
REMARK   12  A    between atoms: O_28  and  C_29
REMARK                            x       y       z     vdW  Elec       q    Type
REMARK                         _______ _______ _______ _____ _____    ______ ____
ROOT
ATOM      1  O   UNL     1       0.629   9.861  19.337  0.00  0.00    +0.000 OA
ENDROOT
BRANCH   1   2
ATOM      2  C   UNL     1       0.208  11.071  18.908  0.00  0.00    +0.000 C 
ATOM      3  O   UNL     1       0.948  12.030  18.724  0.00  0.00    +0.000 OA
BRANCH   2   8
ATOM      4  C   UNL     1      -3.542  11.790  18.954  0.00  0.00    +0.000 A 
ATOM      5  C   UNL     1      -3.962  10.903  17.960  0.00  0.00    +0.000 A 
ATOM      6  C   UNL     1      -3.032  10.139  17.259  0.00  0.00    +0.000 A 
ATOM      7  C   UNL     1      -1.679  10.240  17.566  0.00  0.00    +0.000 A 
ATOM      8  C   UNL     1      -1.244  11.090  18.591  0.00  0.00    +0.000 A 
ATOM      9  C   UNL     1      -2.180  11.872  19.283  0.00  0.00    +0.000 A 
BRANCH   4  10
ATOM     10  O   UNL     1      -4.379  12.606  19.669  0.00  0.00    +0.000 OA
BRANCH  10  11
ATOM     11  C   UNL     1      -5.764  12.557  19.297  0.00  0.00    +0.000 C 
BRANCH  11  18
ATOM     12  C   UNL     1      -7.063   9.597  19.212  0.00  0.00    +0.000 C 
ATOM     13  C   UNL     1      -7.143  10.592  20.307  0.00  0.00    +0.000 A 
ATOM     14  N   UNL     1      -7.786  10.303  21.444  0.00  0.00    +0.000 NA
ATOM     15  O   UNL     1      -7.659  11.423  22.244  0.00  0.00    +0.000 OA
ATOM     16  C   UNL     1      -6.939  12.371  21.588  0.00  0.00    +0.000 A 
ATOM     17  C   UNL     1      -6.692  13.628  22.319  0.00  0.00    +0.000 C 
ATOM     18  C   UNL     1      -6.585  11.898  20.343  0.00  0.00    +0.000 A 
ENDBRANCH  11  18
ENDBRANCH  10  11
ENDBRANCH   4  10
ENDBRANCH   2   8
ENDBRANCH   1   2
BRANCH   1  19
ATOM     19  C   UNL     1       1.469   9.161  18.414  0.00  0.00    +0.000 C 
BRANCH  19  20
ATOM     20  C   UNL     1       2.173   7.912  18.966  0.00  0.00    +0.000 C 
ATOM     21  O   UNL     1       1.998   7.580  20.139  0.00  0.00    +0.000 OA
ATOM     22  N   UNL     1       3.035   7.294  18.079  0.00  0.00    +0.000 N 
ATOM     23  C   UNL     1       3.701   6.102  18.323  0.00  0.00    +0.000 C 
ATOM     24  O   UNL     1       3.650   5.455  19.362  0.00  0.00    +0.000 OA
ATOM     25  H   UNL     1       3.089   7.691  17.143  0.00  0.00    +0.000 HD
BRANCH  23  26
ATOM     26  C   UNL     1       4.510   5.549  17.201  0.00  0.00    +0.000 A 
ATOM     27  C   UNL     1       4.891   4.206  17.148  0.00  0.00    +0.000 A 
ATOM     28  C   UNL     1       5.671   3.749  16.080  0.00  0.00    +0.000 A 
ATOM     29  C   UNL     1       6.050   4.610  15.045  0.00  0.00    +0.000 A 
ATOM     30  C   UNL     1       5.663   5.949  15.089  0.00  0.00    +0.000 A 
ATOM     31  C   UNL     1       4.884   6.412  16.158  0.00  0.00    +0.000 A 
BRANCH  29  32
ATOM     32  O   UNL     1       6.818   4.036  14.073  0.00  0.00    +0.000 OA
BRANCH  32  33
ATOM     33  C   UNL     1       6.118   3.538  12.945  0.00  0.00    +0.000 C 
ATOM     34  F   UNL     1       4.825   3.942  13.019  0.00  0.00    +0.000 F 
ATOM     35  F   UNL     1       6.650   4.135  11.849  0.00  0.00    +0.000 F 
ENDBRANCH  32  33
ENDBRANCH  29  32
ENDBRANCH  23  26
ENDBRANCH  19  20
ENDBRANCH   1  19
TORSDOF 10
ENDMDL
MODEL 2
REMARK VINA RESULT:      -8.5      4.008     10.943
REMARK  Name = 
REMARK  12 active torsions:
REMARK  status: ('A' for Active; 'I' for Inactive)
REMARK    1  A    between atoms: C_1  and  C_2
REMARK    2  A    between atoms: C_5  and  C_6
REMARK    3  A    between atoms: C_7  and  C_8
REMARK    4  A    between atoms: C_8  and  O_9
REMARK    5  A    between atoms: O_9  and  C_10
REMARK    6  A    between atoms: C_14  and  C_15
REMARK    7  A    between atoms: C_15  and  O_17
REMARK    8  A    between atoms: O_17  and  C_18
REMARK    9  A    between atoms: C_18  and  C_19
REMARK   10  A    between atoms: C_22  and  C_24
REMARK   11  A    between atoms: C_27  and  O_28
REMARK   12  A    between atoms: O_28  and  C_29
REMARK                            x       y       z     vdW  Elec       q    Type
REMARK                         _______ _______ _______ _____ _____    ______ ____
ROOT
ATOM      1  O   UNL     1       2.059   7.454  21.225  0.00  0.00    +0.000 OA
ENDROOT
BRANCH   1   2
ATOM      2  C   UNL     1       2.095   7.055  19.935  0.00  0.00    +0.000 C 
ATOM      3  O   UNL     1       1.828   7.780  18.984  0.00  0.00    +0.000 OA
BRANCH   2   8
ATOM      4  C   UNL     1       3.763   3.881  18.621  0.00  0.00    +0.000 A 
ATOM      5  C   UNL     1       3.306   2.966  19.572  0.00  0.00    +0.000 A 
ATOM      6  C   UNL     1       2.524   3.394  20.642  0.00  0.00    +0.000 A 
ATOM      7  C   UNL     1       2.174   4.736  20.753  0.00  0.00    +0.000 A 
ATOM      8  C   UNL     1       2.585   5.660  19.783  0.00  0.00    +0.000 A 
ATOM      9  C   UNL     1       3.388   5.230  18.716  0.00  0.00    +0.000 A 
BRANCH   4  10
ATOM     10  O   UNL     1       4.564   3.558  17.557  0.00  0.00    +0.000 OA
BRANCH  10  11
ATOM     11  C   UNL     1       4.365   4.337  16.368  0.00  0.00    +0.000 C 
BRANCH  11  18
ATOM     12  C   UNL     1       6.378   6.419  17.807  0.00  0.00    +0.000 C 
ATOM     13  C   UNL     1       6.536   5.770  16.484  0.00  0.00    +0.000 A 
ATOM     14  N   UNL     1       7.626   5.995  15.742  0.00  0.00    +0.000 NA
ATOM     15  O   UNL     1       7.465   5.237  14.597  0.00  0.00    +0.000 OA
ATOM     16  C   UNL     1       6.288   4.562  14.661  0.00  0.00    +0.000 A 
ATOM     17  C   UNL     1       5.974   3.683  13.518  0.00  0.00    +0.000 C 
ATOM     18  C   UNL     1       5.648   4.865  15.843  0.00  0.00    +0.000 A 
ENDBRANCH  11  18
ENDBRANCH  10  11
ENDBRANCH   4  10
ENDBRANCH   2   8
ENDBRANCH   1   2
BRANCH   1  19
ATOM     19  C   UNL     1       0.773   7.890  21.677  0.00  0.00    +0.000 C 
BRANCH  19  20
ATOM     20  C   UNL     1       0.431   9.361  21.397  0.00  0.00    +0.000 C 
ATOM     21  O   UNL     1       0.853  10.241  22.146  0.00  0.00    +0.000 OA
ATOM     22  N   UNL     1      -0.421   9.562  20.325  0.00  0.00    +0.000 N 
ATOM     23  C   UNL     1      -0.788  10.805  19.828  0.00  0.00    +0.000 C 
ATOM     24  O   UNL     1      -0.443  11.887  20.287  0.00  0.00    +0.000 OA
ATOM     25  H   UNL     1      -0.702   8.735  19.803  0.00  0.00    +0.000 HD
BRANCH  23  26
ATOM     26  C   UNL     1      -1.638  10.809  18.606  0.00  0.00    +0.000 A 
ATOM     27  C   UNL     1      -1.333  10.037  17.483  0.00  0.00    +0.000 A 
ATOM     28  C   UNL     1      -2.158  10.100  16.353  0.00  0.00    +0.000 A 
ATOM     29  C   UNL     1      -3.303  10.901  16.343  0.00  0.00    +0.000 A 
ATOM     30  C   UNL     1      -3.618  11.666  17.466  0.00  0.00    +0.000 A 
ATOM     31  C   UNL     1      -2.793  11.608  18.598  0.00  0.00    +0.000 A 
BRANCH  29  32
ATOM     32  O   UNL     1      -4.010  10.878  15.175  0.00  0.00    +0.000 OA
BRANCH  32  33
ATOM     33  C   UNL     1      -3.772   9.762  14.331  0.00  0.00    +0.000 C 
ATOM     34  F   UNL     1      -4.852   9.582  13.531  0.00  0.00    +0.000 F 
ATOM     35  F   UNL     1      -2.736  10.090  13.519  0.00  0.00    +0.000 F 
ENDBRANCH  32  33
ENDBRANCH  29  32
ENDBRANCH  23  26
ENDBRANCH  19  20
ENDBRANCH   1  19
TORSDOF 10
ENDMDL
MODEL 3
REMARK VINA RESULT:      -8.2      5.702     12.847
REMARK  Name = 
REMARK  12 active torsions:
REMARK  status: ('A' for Active; 'I' for Inactive)
REMARK    1  A    between atoms: C_1  and  C_2
REMARK    2  A    between atoms: C_5  and  C_6
REMARK    3  A    between atoms: C_7  and  C_8
REMARK    4  A    between atoms: C_8  and  O_9
REMARK    5  A    between atoms: O_9  and  C_10
REMARK    6  A    between atoms: C_14  and  C_15
REMARK    7  A    between atoms: C_15  and  O_17
REMARK    8  A    between atoms: O_17  and  C_18
REMARK    9  A    between atoms: C_18  and  C_19
REMARK   10  A    between atoms: C_22  and  C_24
REMARK   11  A    between atoms: C_27  and  O_28
REMARK   12  A    between atoms: O_28  and  C_29
REMARK                            x       y       z     vdW  Elec       q    Type
REMARK                         _______ _______ _______ _____ _____    ______ ____
ROOT
ATOM      1  O   UNL     1       1.452   7.810  21.314  0.00  0.00    +0.000 OA
ENDROOT
BRANCH   1   2
ATOM      2  C   UNL     1       1.823   7.505  20.051  0.00  0.00    +0.000 C 
ATOM      3  O   UNL     1       2.046   8.336  19.180  0.00  0.00    +0.000 OA
BRANCH   2   8
ATOM      4  C   UNL     1       2.952   4.110  18.715  0.00  0.00    +0.000 A 
ATOM      5  C   UNL     1       2.181   3.272  19.524  0.00  0.00    +0.000 A 
ATOM      6  C   UNL     1       1.364   3.809  20.516  0.00  0.00    +0.000 A 
ATOM      7  C   UNL     1       1.294   5.188  20.686  0.00  0.00    +0.000 A 
ATOM      8  C   UNL     1       2.025   6.045  19.853  0.00  0.00    +0.000 A 
ATOM      9  C   UNL     1       2.861   5.502  18.867  0.00  0.00    +0.000 A 
BRANCH   4  10
ATOM     10  O   UNL     1       3.810   3.671  17.740  0.00  0.00    +0.000 OA
BRANCH  10  11
ATOM     11  C   UNL     1       4.272   4.671  16.821  0.00  0.00    +0.000 C 
BRANCH  11  18
ATOM     12  C   UNL     1       6.507   5.223  19.091  0.00  0.00    +0.000 C 
ATOM     13  C   UNL     1       6.726   4.861  17.672  0.00  0.00    +0.000 A 
ATOM     14  N   UNL     1       7.964   4.692  17.195  0.00  0.00    +0.000 NA
ATOM     15  O   UNL     1       7.813   4.350  15.865  0.00  0.00    +0.000 OA
ATOM     16  C   UNL     1       6.491   4.309  15.553  0.00  0.00    +0.000 A 
ATOM     17  C   UNL     1       6.156   3.932  14.166  0.00  0.00    +0.000 C 
ATOM     18  C   UNL     1       5.747   4.630  16.668  0.00  0.00    +0.000 A 
ENDBRANCH  11  18
ENDBRANCH  10  11
ENDBRANCH   4  10
ENDBRANCH   2   8
ENDBRANCH   1   2
BRANCH   1  19
ATOM     19  C   UNL     1       0.207   8.507  21.415  0.00  0.00    +0.000 C 
BRANCH  19  20
ATOM     20  C   UNL     1       0.303   9.994  21.788  0.00  0.00    +0.000 C 
ATOM     21  O   UNL     1       1.405  10.538  21.854  0.00  0.00    +0.000 OA
ATOM     22  N   UNL     1      -0.905  10.591  22.103  0.00  0.00    +0.000 N 
ATOM     23  C   UNL     1      -1.074  11.942  22.372  0.00  0.00    +0.000 C 
ATOM     24  O   UNL     1      -0.181  12.780  22.407  0.00  0.00    +0.000 OA
ATOM     25  H   UNL     1      -1.737  10.011  22.017  0.00  0.00    +0.000 HD
BRANCH  23  26
ATOM     26  C   UNL     1      -2.471  12.407  22.594  0.00  0.00    +0.000 A 
ATOM     27  C   UNL     1      -3.127  12.241  23.815  0.00  0.00    +0.000 A 
ATOM     28  C   UNL     1      -4.449  12.679  23.957  0.00  0.00    +0.000 A 
ATOM     29  C   UNL     1      -5.115  13.311  22.902  0.00  0.00    +0.000 A 
ATOM     30  C   UNL     1      -4.460  13.488  21.684  0.00  0.00    +0.000 A 
ATOM     31  C   UNL     1      -3.137  13.050  21.537  0.00  0.00    +0.000 A 
BRANCH  29  32
ATOM     32  O   UNL     1      -6.402  13.676  23.173  0.00  0.00    +0.000 OA
BRANCH  32  33
ATOM     33  C   UNL     1      -6.568  14.943  23.788  0.00  0.00    +0.000 C 
ATOM     34  F   UNL     1      -5.364  15.564  23.843  0.00  0.00    +0.000 F 
ATOM     35  F   UNL     1      -7.353  15.686  22.966  0.00  0.00    +0.000 F 
ENDBRANCH  32  33
ENDBRANCH  29  32
ENDBRANCH  23  26
ENDBRANCH  19  20
ENDBRANCH   1  19
TORSDOF 10
ENDMDL
MODEL 4
REMARK VINA RESULT:      -8.2      1.017      1.368
REMARK  Name = 
REMARK  12 active torsions:
REMARK  status: ('A' for Active; 'I' for Inactive)
REMARK    1  A    between atoms: C_1  and  C_2
REMARK    2  A    between atoms: C_5  and  C_6
REMARK    3  A    between atoms: C_7  and  C_8
REMARK    4  A    between atoms: C_8  and  O_9
REMARK    5  A    between atoms: O_9  and  C_10
REMARK    6  A    between atoms: C_14  and  C_15
REMARK    7  A    between atoms: C_15  and  O_17
REMARK    8  A    between atoms: O_17  and  C_18
REMARK    9  A    between atoms: C_18  and  C_19
REMARK   10  A    between atoms: C_22  and  C_24
REMARK   11  A    between atoms: C_27  and  O_28
REMARK   12  A    between atoms: O_28  and  C_29
REMARK                            x       y       z     vdW  Elec       q    Type
REMARK                         _______ _______ _______ _____ _____    ______ ____
ROOT
ATOM      1  O   UNL     1       0.497   8.902  19.025  0.00  0.00    +0.000 OA
ENDROOT
BRANCH   1   2
ATOM      2  C   UNL     1       0.388  10.200  18.663  0.00  0.00    +0.000 C 
ATOM      3  O   UNL     1       1.340  10.957  18.524  0.00  0.00    +0.000 OA
BRANCH   2   8
ATOM      4  C   UNL     1      -3.120  11.698  18.852  0.00  0.00    +0.000 A 
ATOM      5  C   UNL     1      -3.685  11.113  17.716  0.00  0.00    +0.000 A 
ATOM      6  C   UNL     1      -2.916  10.302  16.886  0.00  0.00    +0.000 A 
ATOM      7  C   UNL     1      -1.584  10.050  17.201  0.00  0.00    +0.000 A 
ATOM      8  C   UNL     1      -1.014  10.590  18.361  0.00  0.00    +0.000 A 
ATOM      9  C   UNL     1      -1.785  11.422  19.186  0.00  0.00    +0.000 A 
BRANCH   4  10
ATOM     10  O   UNL     1      -3.788  12.537  19.705  0.00  0.00    +0.000 OA
BRANCH  10  11
ATOM     11  C   UNL     1      -5.160  12.795  19.378  0.00  0.00    +0.000 C 
BRANCH  11  18
ATOM     12  C   UNL     1      -6.906  10.096  19.029  0.00  0.00    +0.000 C 
ATOM     13  C   UNL     1      -6.836  10.985  20.212  0.00  0.00    +0.000 A 
ATOM     14  N   UNL     1      -7.522  10.695  21.323  0.00  0.00    +0.000 NA
ATOM     15  O   UNL     1      -7.226  11.701  22.223  0.00  0.00    +0.000 OA
ATOM     16  C   UNL     1      -6.363  12.582  21.652  0.00  0.00    +0.000 A 
ATOM     17  C   UNL     1      -5.926  13.711  22.495  0.00  0.00    +0.000 C 
ATOM     18  C   UNL     1      -6.080  12.178  20.365  0.00  0.00    +0.000 A 
ENDBRANCH  11  18
ENDBRANCH  10  11
ENDBRANCH   4  10
ENDBRANCH   2   8
ENDBRANCH   1   2
BRANCH   1  19
ATOM     19  C   UNL     1       1.526   8.637  19.983  0.00  0.00    +0.000 C 
BRANCH  19  20
ATOM     20  C   UNL     1       2.019   7.184  20.048  0.00  0.00    +0.000 C 
ATOM     21  O   UNL     1       1.547   6.415  20.886  0.00  0.00    +0.000 OA
ATOM     22  N   UNL     1       3.047   6.881  19.173  0.00  0.00    +0.000 N 
ATOM     23  C   UNL     1       3.581   5.614  18.987  0.00  0.00    +0.000 C 
ATOM     24  O   UNL     1       3.249   4.603  19.593  0.00  0.00    +0.000 OA
ATOM     25  H   UNL     1       3.346   7.625  18.545  0.00  0.00    +0.000 HD
BRANCH  23  26
ATOM     26  C   UNL     1       4.617   5.477  17.926  0.00  0.00    +0.000 A 
ATOM     27  C   UNL     1       5.458   6.531  17.564  0.00  0.00    +0.000 A 
ATOM     28  C   UNL     1       6.398   6.350  16.543  0.00  0.00    +0.000 A 
ATOM     29  C   UNL     1       6.531   5.116  15.899  0.00  0.00    +0.000 A 
ATOM     30  C   UNL     1       5.700   4.057  16.263  0.00  0.00    +0.000 A 
ATOM     31  C   UNL     1       4.756   4.235  17.284  0.00  0.00    +0.000 A 
BRANCH  29  32
ATOM     32  O   UNL     1       7.478   5.081  14.915  0.00  0.00    +0.000 OA
BRANCH  32  33
ATOM     33  C   UNL     1       6.986   5.007  13.587  0.00  0.00    +0.000 C 
ATOM     34  F   UNL     1       7.966   5.400  12.736  0.00  0.00    +0.000 F 
ATOM     35  F   UNL     1       6.744   3.698  13.323  0.00  0.00    +0.000 F 
ENDBRANCH  32  33
ENDBRANCH  29  32
ENDBRANCH  23  26
ENDBRANCH  19  20
ENDBRANCH   1  19
TORSDOF 10
ENDMDL
MODEL 5
REMARK VINA RESULT:      -8.1      5.038     12.534
REMARK  Name = 
REMARK  12 active torsions:
REMARK  status: ('A' for Active; 'I' for Inactive)
REMARK    1  A    between atoms: C_1  and  C_2
REMARK    2  A    between atoms: C_5  and  C_6
REMARK    3  A    between atoms: C_7  and  C_8
REMARK    4  A    between atoms: C_8  and  O_9
REMARK    5  A    between atoms: O_9  and  C_10
REMARK    6  A    between atoms: C_14  and  C_15
REMARK    7  A    between atoms: C_15  and  O_17
REMARK    8  A    between atoms: O_17  and  C_18
REMARK    9  A    between atoms: C_18  and  C_19
REMARK   10  A    between atoms: C_22  and  C_24
REMARK   11  A    between atoms: C_27  and  O_28
REMARK   12  A    between atoms: O_28  and  C_29
REMARK                            x       y       z     vdW  Elec       q    Type
REMARK                         _______ _______ _______ _____ _____    ______ ____
ROOT
ATOM      1  O   UNL     1       1.869   8.063  20.236  0.00  0.00    +0.000 OA
ENDROOT
BRANCH   1   2
ATOM      2  C   UNL     1       2.236   7.515  19.057  0.00  0.00    +0.000 C 
ATOM      3  O   UNL     1       2.211   8.108  17.985  0.00  0.00    +0.000 OA
BRANCH   2   8
ATOM      4  C   UNL     1       4.043   4.200  18.485  0.00  0.00    +0.000 A 
ATOM      5  C   UNL     1       3.557   3.477  19.577  0.00  0.00    +0.000 A 
ATOM      6  C   UNL     1       2.710   4.083  20.501  0.00  0.00    +0.000 A 
ATOM      7  C   UNL     1       2.324   5.408  20.324  0.00  0.00    +0.000 A 
ATOM      8  C   UNL     1       2.766   6.135  19.210  0.00  0.00    +0.000 A 
ATOM      9  C   UNL     1       3.634   5.528  18.291  0.00  0.00    +0.000 A 
BRANCH   4  10
ATOM     10  O   UNL     1       4.908   3.699  17.547  0.00  0.00    +0.000 OA
BRANCH  10  11
ATOM     11  C   UNL     1       4.735   4.196  16.212  0.00  0.00    +0.000 C 
BRANCH  11  18
ATOM     12  C   UNL     1       6.085   3.690  13.318  0.00  0.00    +0.000 C 
ATOM     13  C   UNL     1       6.574   4.568  14.406  0.00  0.00    +0.000 A 
ATOM     14  N   UNL     1       7.683   5.297  14.246  0.00  0.00    +0.000 NA
ATOM     15  O   UNL     1       7.845   6.002  15.423  0.00  0.00    +0.000 OA
ATOM     16  C   UNL     1       6.833   5.698  16.278  0.00  0.00    +0.000 A 
ATOM     17  C   UNL     1       6.846   6.390  17.581  0.00  0.00    +0.000 C 
ATOM     18  C   UNL     1       5.990   4.783  15.684  0.00  0.00    +0.000 A 
ENDBRANCH  11  18
ENDBRANCH  10  11
ENDBRANCH   4  10
ENDBRANCH   2   8
ENDBRANCH   1   2
BRANCH   1  19
ATOM     19  C   UNL     1       1.053   9.233  20.120  0.00  0.00    +0.000 C 
BRANCH  19  20
ATOM     20  C   UNL     1       0.605   9.869  21.444  0.00  0.00    +0.000 C 
ATOM     21  O   UNL     1       1.250   9.659  22.472  0.00  0.00    +0.000 OA
ATOM     22  N   UNL     1      -0.575  10.586  21.372  0.00  0.00    +0.000 N 
ATOM     23  C   UNL     1      -1.117  11.326  22.413  0.00  0.00    +0.000 C 
ATOM     24  O   UNL     1      -0.653  11.413  23.544  0.00  0.00    +0.000 OA
ATOM     25  H   UNL     1      -1.007  10.663  20.453  0.00  0.00    +0.000 HD
BRANCH  23  26
ATOM     26  C   UNL     1      -2.346  12.109  22.106  0.00  0.00    +0.000 A 
ATOM     27  C   UNL     1      -2.604  12.621  20.833  0.00  0.00    +0.000 A 
ATOM     28  C   UNL     1      -3.765  13.370  20.609  0.00  0.00    +0.000 A 
ATOM     29  C   UNL     1      -4.690  13.586  21.635  0.00  0.00    +0.000 A 
ATOM     30  C   UNL     1      -4.442  13.068  22.905  0.00  0.00    +0.000 A 
ATOM     31  C   UNL     1      -3.279  12.319  23.135  0.00  0.00    +0.000 A 
BRANCH  29  32
ATOM     32  O   UNL     1      -5.772  14.342  21.283  0.00  0.00    +0.000 OA
BRANCH  32  33
ATOM     33  C   UNL     1      -6.989  13.635  21.110  0.00  0.00    +0.000 C 
ATOM     34  F   UNL     1      -6.706  12.343  20.812  0.00  0.00    +0.000 F 
ATOM     35  F   UNL     1      -7.621  13.629  22.311  0.00  0.00    +0.000 F 
ENDBRANCH  32  33
ENDBRANCH  29  32
ENDBRANCH  23  26
ENDBRANCH  19  20
ENDBRANCH   1  19
TORSDOF 10
ENDMDL
MODEL 6
REMARK VINA RESULT:      -8.1      5.246     11.282
REMARK  Name = 
REMARK  12 active torsions:
REMARK  status: ('A' for Active; 'I' for Inactive)
REMARK    1  A    between atoms: C_1  and  C_2
REMARK    2  A    between atoms: C_5  and  C_6
REMARK    3  A    between atoms: C_7  and  C_8
REMARK    4  A    between atoms: C_8  and  O_9
REMARK    5  A    between atoms: O_9  and  C_10
REMARK    6  A    between atoms: C_14  and  C_15
REMARK    7  A    between atoms: C_15  and  O_17
REMARK    8  A    between atoms: O_17  and  C_18
REMARK    9  A    between atoms: C_18  and  C_19
REMARK   10  A    between atoms: C_22  and  C_24
REMARK   11  A    between atoms: C_27  and  O_28
REMARK   12  A    between atoms: O_28  and  C_29
REMARK                            x       y       z     vdW  Elec       q    Type
REMARK                         _______ _______ _______ _____ _____    ______ ____
ROOT
ATOM      1  O   UNL     1       1.633   7.245  20.963  0.00  0.00    +0.000 OA
ENDROOT
BRANCH   1   2
ATOM      2  C   UNL     1       2.060   7.217  19.681  0.00  0.00    +0.000 C 
ATOM      3  O   UNL     1       2.357   8.213  19.033  0.00  0.00    +0.000 OA
BRANCH   2   8
ATOM      4  C   UNL     1       3.057   4.179  17.594  0.00  0.00    +0.000 A 
ATOM      5  C   UNL     1       2.305   3.195  18.239  0.00  0.00    +0.000 A 
ATOM      6  C   UNL     1       1.543   3.513  19.360  0.00  0.00    +0.000 A 
ATOM      7  C   UNL     1       1.509   4.823  19.827  0.00  0.00    +0.000 A 
ATOM      8  C   UNL     1       2.222   5.832  19.165  0.00  0.00    +0.000 A 
ATOM      9  C   UNL     1       3.003   5.506  18.047  0.00  0.00    +0.000 A 
BRANCH   4  10
ATOM     10  O   UNL     1       3.863   3.951  16.508  0.00  0.00    +0.000 OA
BRANCH  10  11
ATOM     11  C   UNL     1       5.207   3.545  16.804  0.00  0.00    +0.000 C 
BRANCH  11  18
ATOM     12  C   UNL     1       5.943   3.788  13.665  0.00  0.00    +0.000 C 
ATOM     13  C   UNL     1       6.511   4.562  14.793  0.00  0.00    +0.000 A 
ATOM     14  N   UNL     1       7.423   5.516  14.573  0.00  0.00    +0.000 NA
ATOM     15  O   UNL     1       7.725   6.042  15.815  0.00  0.00    +0.000 OA
ATOM     16  C   UNL     1       6.992   5.408  16.768  0.00  0.00    +0.000 A 
ATOM     17  C   UNL     1       7.182   5.872  18.156  0.00  0.00    +0.000 C 
ATOM     18  C   UNL     1       6.200   4.449  16.175  0.00  0.00    +0.000 A 
ENDBRANCH  11  18
ENDBRANCH  10  11
ENDBRANCH   4  10
ENDBRANCH   2   8
ENDBRANCH   1   2
BRANCH   1  19
ATOM     19  C   UNL     1       1.575   8.551  21.542  0.00  0.00    +0.000 C 
BRANCH  19  20
ATOM     20  C   UNL     1       0.386   9.422  21.108  0.00  0.00    +0.000 C 
ATOM     21  O   UNL     1      -0.760   8.987  21.212  0.00  0.00    +0.000 OA
ATOM     22  N   UNL     1       0.734  10.637  20.545  0.00  0.00    +0.000 N 
ATOM     23  C   UNL     1      -0.168  11.624  20.173  0.00  0.00    +0.000 C 
ATOM     24  O   UNL     1      -1.388  11.543  20.252  0.00  0.00    +0.000 OA
ATOM     25  H   UNL     1       1.727  10.858  20.512  0.00  0.00    +0.000 HD
BRANCH  23  26
ATOM     26  C   UNL     1       0.412  12.902  19.675  0.00  0.00    +0.000 A 
ATOM     27  C   UNL     1       1.674  12.968  19.082  0.00  0.00    +0.000 A 
ATOM     28  C   UNL     1       2.176  14.202  18.654  0.00  0.00    +0.000 A 
ATOM     29  C   UNL     1       1.418  15.370  18.781  0.00  0.00    +0.000 A 
ATOM     30  C   UNL     1       0.152  15.308  19.362  0.00  0.00    +0.000 A 
ATOM     31  C   UNL     1      -0.354  14.074  19.795  0.00  0.00    +0.000 A 
BRANCH  29  32
ATOM     32  O   UNL     1       2.032  16.505  18.333  0.00  0.00    +0.000 OA
BRANCH  32  33
ATOM     33  C   UNL     1       3.128  16.309  17.454  0.00  0.00    +0.000 C 
ATOM     34  F   UNL     1       2.944  17.074  16.349  0.00  0.00    +0.000 F 
ATOM     35  F   UNL     1       4.232  16.787  18.081  0.00  0.00    +0.000 F 
ENDBRANCH  32  33
ENDBRANCH  29  32
ENDBRANCH  23  26
ENDBRANCH  19  20
ENDBRANCH   1  19
TORSDOF 10
ENDMDL
MODEL 7
REMARK VINA RESULT:      -8.0      5.730     12.483
REMARK  Name = 
REMARK  12 active torsions:
REMARK  status: ('A' for Active; 'I' for Inactive)
REMARK    1  A    between atoms: C_1  and  C_2
REMARK    2  A    between atoms: C_5  and  C_6
REMARK    3  A    between atoms: C_7  and  C_8
REMARK    4  A    between atoms: C_8  and  O_9
REMARK    5  A    between atoms: O_9  and  C_10
REMARK    6  A    between atoms: C_14  and  C_15
REMARK    7  A    between atoms: C_15  and  O_17
REMARK    8  A    between atoms: O_17  and  C_18
REMARK    9  A    between atoms: C_18  and  C_19
REMARK   10  A    between atoms: C_22  and  C_24
REMARK   11  A    between atoms: C_27  and  O_28
REMARK   12  A    between atoms: O_28  and  C_29
REMARK                            x       y       z     vdW  Elec       q    Type
REMARK                         _______ _______ _______ _____ _____    ______ ____
ROOT
ATOM      1  O   UNL     1       0.939   8.673  18.551  0.00  0.00    +0.000 OA
ENDROOT
BRANCH   1   2
ATOM      2  C   UNL     1       2.195   8.425  18.117  0.00  0.00    +0.000 C 
ATOM      3  O   UNL     1       2.926   9.267  17.611  0.00  0.00    +0.000 OA
BRANCH   2   8
ATOM      4  C   UNL     1       3.449   4.834  17.779  0.00  0.00    +0.000 A 
ATOM      5  C   UNL     1       3.286   4.404  19.097  0.00  0.00    +0.000 A 
ATOM      6  C   UNL     1       2.834   5.287  20.074  0.00  0.00    +0.000 A 
ATOM      7  C   UNL     1       2.520   6.599  19.733  0.00  0.00    +0.000 A 
ATOM      8  C   UNL     1       2.634   7.035  18.406  0.00  0.00    +0.000 A 
ATOM      9  C   UNL     1       3.106   6.149  17.427  0.00  0.00    +0.000 A 
BRANCH   4  10
ATOM     10  O   UNL     1       3.921   4.048  16.759  0.00  0.00    +0.000 OA
BRANCH  10  11
ATOM     11  C   UNL     1       5.260   3.559  16.919  0.00  0.00    +0.000 C 
BRANCH  11  18
ATOM     12  C   UNL     1       6.094   3.751  13.801  0.00  0.00    +0.000 C 
ATOM     13  C   UNL     1       6.605   4.564  14.929  0.00  0.00    +0.000 A 
ATOM     14  N   UNL     1       7.498   5.537  14.716  0.00  0.00    +0.000 NA
ATOM     15  O   UNL     1       7.745   6.098  15.955  0.00  0.00    +0.000 OA
ATOM     16  C   UNL     1       6.998   5.467  16.898  0.00  0.00    +0.000 A 
ATOM     17  C   UNL     1       7.129   5.967  18.280  0.00  0.00    +0.000 C 
ATOM     18  C   UNL     1       6.250   4.474  16.301  0.00  0.00    +0.000 A 
ENDBRANCH  11  18
ENDBRANCH  10  11
ENDBRANCH   4  10
ENDBRANCH   2   8
ENDBRANCH   1   2
BRANCH   1  19
ATOM     19  C   UNL     1       0.785   9.912  19.248  0.00  0.00    +0.000 C 
BRANCH  19  20
ATOM     20  C   UNL     1       0.531   9.800  20.759  0.00  0.00    +0.000 C 
ATOM     21  O   UNL     1       1.000   8.853  21.389  0.00  0.00    +0.000 OA
ATOM     22  N   UNL     1      -0.300  10.776  21.280  0.00  0.00    +0.000 N 
ATOM     23  C   UNL     1      -0.589  10.932  22.628  0.00  0.00    +0.000 C 
ATOM     24  O   UNL     1      -0.184  10.212  23.534  0.00  0.00    +0.000 OA
ATOM     25  H   UNL     1      -0.626  11.491  20.634  0.00  0.00    +0.000 HD
BRANCH  23  26
ATOM     26  C   UNL     1      -1.429  12.105  22.998  0.00  0.00    +0.000 A 
ATOM     27  C   UNL     1      -0.956  13.416  22.918  0.00  0.00    +0.000 A 
ATOM     28  C   UNL     1      -1.785  14.477  23.301  0.00  0.00    +0.000 A 
ATOM     29  C   UNL     1      -3.094  14.247  23.734  0.00  0.00    +0.000 A 
ATOM     30  C   UNL     1      -3.575  12.940  23.807  0.00  0.00    +0.000 A 
ATOM     31  C   UNL     1      -2.747  11.874  23.426  0.00  0.00    +0.000 A 
BRANCH  29  32
ATOM     32  O   UNL     1      -3.788  15.369  24.088  0.00  0.00    +0.000 OA
BRANCH  32  33
ATOM     33  C   UNL     1      -4.683  15.875  23.111  0.00  0.00    +0.000 C 
ATOM     34  F   UNL     1      -3.968  16.281  22.032  0.00  0.00    +0.000 F 
ATOM     35  F   UNL     1      -5.454  14.837  22.700  0.00  0.00    +0.000 F 
ENDBRANCH  32  33
ENDBRANCH  29  32
ENDBRANCH  23  26
ENDBRANCH  19  20
ENDBRANCH   1  19
TORSDOF 10
ENDMDL
MODEL 8
REMARK VINA RESULT:      -7.9      1.098      1.596
REMARK  Name = 
REMARK  12 active torsions:
REMARK  status: ('A' for Active; 'I' for Inactive)
REMARK    1  A    between atoms: C_1  and  C_2
REMARK    2  A    between atoms: C_5  and  C_6
REMARK    3  A    between atoms: C_7  and  C_8
REMARK    4  A    between atoms: C_8  and  O_9
REMARK    5  A    between atoms: O_9  and  C_10
REMARK    6  A    between atoms: C_14  and  C_15
REMARK    7  A    between atoms: C_15  and  O_17
REMARK    8  A    between atoms: O_17  and  C_18
REMARK    9  A    between atoms: C_18  and  C_19
REMARK   10  A    between atoms: C_22  and  C_24
REMARK   11  A    between atoms: C_27  and  O_28
REMARK   12  A    between atoms: O_28  and  C_29
REMARK                            x       y       z     vdW  Elec       q    Type
REMARK                         _______ _______ _______ _____ _____    ______ ____
ROOT
ATOM      1  O   UNL     1       0.655   9.524  19.279  0.00  0.00    +0.000 OA
ENDROOT
BRANCH   1   2
ATOM      2  C   UNL     1       0.726  10.865  19.137  0.00  0.00    +0.000 C 
ATOM      3  O   UNL     1       1.638  11.449  18.563  0.00  0.00    +0.000 OA
BRANCH   2   8
ATOM      4  C   UNL     1      -2.819  12.191  19.641  0.00  0.00    +0.000 A 
ATOM      5  C   UNL     1      -2.598  13.045  20.723  0.00  0.00    +0.000 A 
ATOM      6  C   UNL     1      -1.335  13.133  21.303  0.00  0.00    +0.000 A 
ATOM      7  C   UNL     1      -0.280  12.386  20.787  0.00  0.00    +0.000 A 
ATOM      8  C   UNL     1      -0.474  11.560  19.673  0.00  0.00    +0.000 A 
ATOM      9  C   UNL     1      -1.751  11.458  19.102  0.00  0.00    +0.000 A 
BRANCH   4  10
ATOM     10  O   UNL     1      -4.033  12.013  19.030  0.00  0.00    +0.000 OA
BRANCH  10  11
ATOM     11  C   UNL     1      -5.088  12.878  19.475  0.00  0.00    +0.000 C 
BRANCH  11  18
ATOM     12  C   UNL     1      -6.889  10.275  18.812  0.00  0.00    +0.000 C 
ATOM     13  C   UNL     1      -6.805  11.019  20.091  0.00  0.00    +0.000 A 
ATOM     14  N   UNL     1      -7.502  10.617  21.159  0.00  0.00    +0.000 NA
ATOM     15  O   UNL     1      -7.189  11.506  22.170  0.00  0.00    +0.000 OA
ATOM     16  C   UNL     1      -6.305  12.428  21.707  0.00  0.00    +0.000 A 
ATOM     17  C   UNL     1      -5.848  13.443  22.676  0.00  0.00    +0.000 C 
ATOM     18  C   UNL     1      -6.025  12.170  20.382  0.00  0.00    +0.000 A 
ENDBRANCH  11  18
ENDBRANCH  10  11
ENDBRANCH   4  10
ENDBRANCH   2   8
ENDBRANCH   1   2
BRANCH   1  19
ATOM     19  C   UNL     1       1.564   8.979  20.240  0.00  0.00    +0.000 C 
BRANCH  19  20
ATOM     20  C   UNL     1       1.796   7.463  20.154  0.00  0.00    +0.000 C 
ATOM     21  O   UNL     1       1.259   6.715  20.971  0.00  0.00    +0.000 OA
ATOM     22  N   UNL     1       2.688   7.069  19.172  0.00  0.00    +0.000 N 
ATOM     23  C   UNL     1       2.975   5.751  18.847  0.00  0.00    +0.000 C 
ATOM     24  O   UNL     1       2.516   4.761  19.404  0.00  0.00    +0.000 OA
ATOM     25  H   UNL     1       3.066   7.803  18.578  0.00  0.00    +0.000 HD
BRANCH  23  26
ATOM     26  C   UNL     1       3.890   5.534  17.692  0.00  0.00    +0.000 A 
ATOM     27  C   UNL     1       4.297   4.259  17.293  0.00  0.00    +0.000 A 
ATOM     28  C   UNL     1       5.177   4.119  16.213  0.00  0.00    +0.000 A 
ATOM     29  C   UNL     1       5.631   5.236  15.506  0.00  0.00    +0.000 A 
ATOM     30  C   UNL     1       5.220   6.510  15.894  0.00  0.00    +0.000 A 
ATOM     31  C   UNL     1       4.340   6.656  16.976  0.00  0.00    +0.000 A 
BRANCH  29  32
ATOM     32  O   UNL     1       6.493   4.957  14.484  0.00  0.00    +0.000 OA
BRANCH  32  33
ATOM     33  C   UNL     1       6.124   3.876  13.642  0.00  0.00    +0.000 C 
ATOM     34  F   UNL     1       4.834   4.042  13.258  0.00  0.00    +0.000 F 
ATOM     35  F   UNL     1       6.881   3.969  12.519  0.00  0.00    +0.000 F 
ENDBRANCH  32  33
ENDBRANCH  29  32
ENDBRANCH  23  26
ENDBRANCH  19  20
ENDBRANCH   1  19
TORSDOF 10
ENDMDL
MODEL 9
REMARK VINA RESULT:      -7.9      5.352     11.913
REMARK  Name = 
REMARK  12 active torsions:
REMARK  status: ('A' for Active; 'I' for Inactive)
REMARK    1  A    between atoms: C_1  and  C_2
REMARK    2  A    between atoms: C_5  and  C_6
REMARK    3  A    between atoms: C_7  and  C_8
REMARK    4  A    between atoms: C_8  and  O_9
REMARK    5  A    between atoms: O_9  and  C_10
REMARK    6  A    between atoms: C_14  and  C_15
REMARK    7  A    between atoms: C_15  and  O_17
REMARK    8  A    between atoms: O_17  and  C_18
REMARK    9  A    between atoms: C_18  and  C_19
REMARK   10  A    between atoms: C_22  and  C_24
REMARK   11  A    between atoms: C_27  and  O_28
REMARK   12  A    between atoms: O_28  and  C_29
REMARK                            x       y       z     vdW  Elec       q    Type
REMARK                         _______ _______ _______ _____ _____    ______ ____
ROOT
ATOM      1  O   UNL     1       2.411   7.857  19.745  0.00  0.00    +0.000 OA
ENDROOT
BRANCH   1   2
ATOM      2  C   UNL     1       1.749   6.910  20.446  0.00  0.00    +0.000 C 
ATOM      3  O   UNL     1       0.873   7.150  21.269  0.00  0.00    +0.000 OA
BRANCH   2   8
ATOM      4  C   UNL     1       3.472   3.912  18.826  0.00  0.00    +0.000 A 
ATOM      5  C   UNL     1       2.635   2.889  19.278  0.00  0.00    +0.000 A 
ATOM      6  C   UNL     1       1.576   3.174  20.135  0.00  0.00    +0.000 A 
ATOM      7  C   UNL     1       1.332   4.487  20.526  0.00  0.00    +0.000 A 
ATOM      8  C   UNL     1       2.134   5.531  20.046  0.00  0.00    +0.000 A 
ATOM      9  C   UNL     1       3.211   5.240  19.197  0.00  0.00    +0.000 A 
BRANCH   4  10
ATOM     10  O   UNL     1       4.557   3.722  18.011  0.00  0.00    +0.000 OA
BRANCH  10  11
ATOM     11  C   UNL     1       5.783   4.317  18.458  0.00  0.00    +0.000 C 
BRANCH  11  18
ATOM     12  C   UNL     1       5.754   3.491  15.332  0.00  0.00    +0.000 C 
ATOM     13  C   UNL     1       6.483   4.613  15.967  0.00  0.00    +0.000 A 
ATOM     14  N   UNL     1       7.218   5.452  15.229  0.00  0.00    +0.000 NA
ATOM     15  O   UNL     1       7.741   6.376  16.115  0.00  0.00    +0.000 OA
ATOM     16  C   UNL     1       7.314   6.090  17.373  0.00  0.00    +0.000 A 
ATOM     17  C   UNL     1       7.767   7.002  18.441  0.00  0.00    +0.000 C 
ATOM     18  C   UNL     1       6.509   4.972  17.342  0.00  0.00    +0.000 A 
ENDBRANCH  11  18
ENDBRANCH  10  11
ENDBRANCH   4  10
ENDBRANCH   2   8
ENDBRANCH   1   2
BRANCH   1  19
ATOM     19  C   UNL     1       1.728   8.314  18.574  0.00  0.00    +0.000 C 
BRANCH  19  20
ATOM     20  C   UNL     1       1.579   9.837  18.440  0.00  0.00    +0.000 C 
ATOM     21  O   UNL     1       2.142  10.428  17.518  0.00  0.00    +0.000 OA
ATOM     22  N   UNL     1       0.858  10.440  19.455  0.00  0.00    +0.000 N 
ATOM     23  C   UNL     1       0.513  11.783  19.491  0.00  0.00    +0.000 C 
ATOM     24  O   UNL     1       0.829  12.624  18.658  0.00  0.00    +0.000 OA
ATOM     25  H   UNL     1       0.461   9.823  20.161  0.00  0.00    +0.000 HD
BRANCH  23  26
ATOM     26  C   UNL     1      -0.351  12.219  20.623  0.00  0.00    +0.000 A 
ATOM     27  C   UNL     1      -1.015  13.447  20.624  0.00  0.00    +0.000 A 
ATOM     28  C   UNL     1      -1.796  13.813  21.727  0.00  0.00    +0.000 A 
ATOM     29  C   UNL     1      -1.948  12.952  22.817  0.00  0.00    +0.000 A 
ATOM     30  C   UNL     1      -1.295  11.719  22.817  0.00  0.00    +0.000 A 
ATOM     31  C   UNL     1      -0.510  11.350  21.715  0.00  0.00    +0.000 A 
BRANCH  29  32
ATOM     32  O   UNL     1      -2.726  13.437  23.829  0.00  0.00    +0.000 OA
BRANCH  32  33
ATOM     33  C   UNL     1      -4.031  12.889  23.922  0.00  0.00    +0.000 C 
ATOM     34  F   UNL     1      -4.449  12.542  22.679  0.00  0.00    +0.000 F 
ATOM     35  F   UNL     1      -3.931  11.739  24.636  0.00  0.00    +0.000 F 
ENDBRANCH  32  33
ENDBRANCH  29  32
ENDBRANCH  23  26
ENDBRANCH  19  20
ENDBRANCH   1  19
TORSDOF 10
ENDMDL
