MODEL 1
REMARK VINA RESULT:      -8.1      0.000      0.000
REMARK  Name = 
REMARK  9 active torsions:
REMARK  status: ('A' for Active; 'I' for Inactive)
REMARK    1  A    between atoms: C_1  and  C_2
REMARK    2  A    between atoms: C_2  and  C_3
REMARK    3  A    between atoms: C_3  and  C_4
REMARK    4  A    between atoms: C_4  and  C_5
REMARK    5  A    between atoms: C_5  and  C_6
REMARK    6  A    between atoms: C_9  and  N_10
REMARK    7  A    between atoms: N_10  and  S_11
REMARK    8  A    between atoms: S_11  and  C_14
REMARK    9  A    between atoms: C_17  and  N_18
REMARK                            x       y       z     vdW  Elec       q    Type
REMARK                         _______ _______ _______ _____ _____    ______ ____
ROOT
ATOM      1  S   UNL     1       2.561   5.504  19.776  0.00  0.00    +0.000 S 
ATOM      2  O   UNL     1       2.095   4.747  18.634  0.00  0.00    +0.000 OA
ATOM      3  O   UNL     1       2.222   5.093  21.123  0.00  0.00    +0.000 OA
ENDROOT
BRANCH   1   4
ATOM      4  C   UNL     1       2.052   7.187  19.550  0.00  0.00    +0.000 A 
ATOM      5  C   UNL     1       2.161   7.783  18.297  0.00  0.00    +0.000 A 
ATOM      6  C   UNL     1       1.720   9.099  18.119  0.00  0.00    +0.000 A 
ATOM      7  C   UNL     1       1.166   9.831  19.180  0.00  0.00    +0.000 A 
ATOM      8  C   UNL     1       1.060   9.202  20.432  0.00  0.00    +0.000 A 
ATOM      9  C   UNL     1       1.492   7.886  20.618  0.00  0.00    +0.000 A 
BRANCH   7  10
ATOM     10  N   UNL     1       0.745  11.172  19.012  0.00  0.00    +0.000 N 
ATOM     11  C   UNL     1       1.614  12.314  19.209  0.00  0.00    +0.000 C 
ATOM     12  C   UNL     1       0.871  13.440  18.513  0.00  0.00    +0.000 C 
ATOM     13  N   UNL     1      -0.493  13.010  18.566  0.00  0.00    +0.000 N 
ATOM     14  C   UNL     1      -0.551  11.622  18.685  0.00  0.00    +0.000 C 
ATOM     15  O   UNL     1      -1.580  10.997  18.498  0.00  0.00    +0.000 OA
ATOM     16  H   UNL     1      -1.278  13.480  18.132  0.00  0.00    +0.000 HD
ENDBRANCH   7  10
ENDBRANCH   1   4
BRANCH   1  17
ATOM     17  N   UNL     1       4.233   5.597  19.620  0.00  0.00    +0.000 N 
ATOM     18  H   UNL     1       4.642   6.315  20.213  0.00  0.00    +0.000 HD
BRANCH  17  22
ATOM     19  C   UNL     1       5.943   4.921  15.822  0.00  0.00    +0.000 A 
ATOM     20  C   UNL     1       5.465   3.843  16.581  0.00  0.00    +0.000 A 
ATOM     21  C   UNL     1       4.904   4.055  17.848  0.00  0.00    +0.000 A 
ATOM     22  C   UNL     1       4.830   5.345  18.358  0.00  0.00    +0.000 A 
ATOM     23  C   UNL     1       5.325   6.423  17.625  0.00  0.00    +0.000 A 
ATOM     24  C   UNL     1       5.882   6.210  16.363  0.00  0.00    +0.000 A 
BRANCH  19  25
ATOM     25  C   UNL     1       6.509   4.708  14.437  0.00  0.00    +0.000 C 
BRANCH  25  26
ATOM     26  C   UNL     1       5.585   3.935  13.490  0.00  0.00    +0.000 C 
BRANCH  26  27
ATOM     27  C   UNL     1       6.299   3.368  12.258  0.00  0.00    +0.000 C 
BRANCH  27  29
ATOM     28  C   UNL     1       4.038   3.107  11.161  0.00  0.00    +0.000 C 
ATOM     29  C   UNL     1       5.367   2.441  11.478  0.00  0.00    +0.000 C 
ENDBRANCH  27  29
ENDBRANCH  26  27
ENDBRANCH  25  26
ENDBRANCH  19  25
ENDBRANCH  17  22
ENDBRANCH   1  17
TORSDOF 8
ENDMDL
MODEL 2
REMARK VINA RESULT:      -7.9      1.312      1.904
REMARK  Name = 
REMARK  9 active torsions:
REMARK  status: ('A' for Active; 'I' for Inactive)
REMARK    1  A    between atoms: C_1  and  C_2
REMARK    2  A    between atoms: C_2  and  C_3
REMARK    3  A    between atoms: C_3  and  C_4
REMARK    4  A    between atoms: C_4  and  C_5
REMARK    5  A    between atoms: C_5  and  C_6
REMARK    6  A    between atoms: C_9  and  N_10
REMARK    7  A    between atoms: N_10  and  S_11
REMARK    8  A    between atoms: S_11  and  C_14
REMARK    9  A    between atoms: C_17  and  N_18
REMARK                            x       y       z     vdW  Elec       q    Type
REMARK                         _______ _______ _______ _____ _____    ______ ____
ROOT
ATOM      1  S   UNL     1       3.087   5.686  18.822  0.00  0.00    +0.000 S 
ATOM      2  O   UNL     1       2.407   4.976  17.761  0.00  0.00    +0.000 OA
ATOM      3  O   UNL     1       3.238   5.090  20.133  0.00  0.00    +0.000 OA
ENDROOT
BRANCH   1   4
ATOM      4  C   UNL     1       2.301   7.265  19.003  0.00  0.00    +0.000 A 
ATOM      5  C   UNL     1       1.805   7.656  20.243  0.00  0.00    +0.000 A 
ATOM      6  C   UNL     1       1.222   8.921  20.385  0.00  0.00    +0.000 A 
ATOM      7  C   UNL     1       1.129   9.804  19.299  0.00  0.00    +0.000 A 
ATOM      8  C   UNL     1       1.644   9.388  18.061  0.00  0.00    +0.000 A 
ATOM      9  C   UNL     1       2.235   8.129  17.911  0.00  0.00    +0.000 A 
BRANCH   7  10
ATOM     10  N   UNL     1       0.514  11.073  19.431  0.00  0.00    +0.000 N 
ATOM     11  C   UNL     1      -0.880  11.254  19.781  0.00  0.00    +0.000 C 
ATOM     12  C   UNL     1      -0.945  12.708  20.213  0.00  0.00    +0.000 C 
ATOM     13  N   UNL     1       0.151  13.303  19.513  0.00  0.00    +0.000 N 
ATOM     14  C   UNL     1       1.106  12.333  19.208  0.00  0.00    +0.000 C 
ATOM     15  O   UNL     1       2.232  12.622  18.843  0.00  0.00    +0.000 OA
ATOM     16  H   UNL     1       0.466  14.261  19.611  0.00  0.00    +0.000 HD
ENDBRANCH   7  10
ENDBRANCH   1   4
BRANCH   1  17
ATOM     17  N   UNL     1       4.601   6.093  18.212  0.00  0.00    +0.000 N 
ATOM     18  H   UNL     1       4.849   7.063  18.394  0.00  0.00    +0.000 HD
BRANCH  17  22
ATOM     19  C   UNL     1       5.844   4.363  14.570  0.00  0.00    +0.000 A 
ATOM     20  C   UNL     1       5.779   3.582  15.734  0.00  0.00    +0.000 A 
ATOM     21  C   UNL     1       5.377   4.150  16.951  0.00  0.00    +0.000 A 
ATOM     22  C   UNL     1       5.049   5.499  17.005  0.00  0.00    +0.000 A 
ATOM     23  C   UNL     1       5.133   6.291  15.860  0.00  0.00    +0.000 A 
ATOM     24  C   UNL     1       5.532   5.725  14.649  0.00  0.00    +0.000 A 
BRANCH  19  25
ATOM     25  C   UNL     1       6.232   3.751  13.244  0.00  0.00    +0.000 C 
BRANCH  25  26
ATOM     26  C   UNL     1       5.085   3.043  12.515  0.00  0.00    +0.000 C 
BRANCH  26  27
ATOM     27  C   UNL     1       4.771   3.636  11.137  0.00  0.00    +0.000 C 
BRANCH  27  29
ATOM     28  C   UNL     1       2.877   4.188   9.559  0.00  0.00    +0.000 C 
ATOM     29  C   UNL     1       3.318   3.357  10.752  0.00  0.00    +0.000 C 
ENDBRANCH  27  29
ENDBRANCH  26  27
ENDBRANCH  25  26
ENDBRANCH  19  25
ENDBRANCH  17  22
ENDBRANCH   1  17
TORSDOF 8
ENDMDL
MODEL 3
REMARK VINA RESULT:      -7.9      1.145      1.547
REMARK  Name = 
REMARK  9 active torsions:
REMARK  status: ('A' for Active; 'I' for Inactive)
REMARK    1  A    between atoms: C_1  and  C_2
REMARK    2  A    between atoms: C_2  and  C_3
REMARK    3  A    between atoms: C_3  and  C_4
REMARK    4  A    between atoms: C_4  and  C_5
REMARK    5  A    between atoms: C_5  and  C_6
REMARK    6  A    between atoms: C_9  and  N_10
REMARK    7  A    between atoms: N_10  and  S_11
REMARK    8  A    between atoms: S_11  and  C_14
REMARK    9  A    between atoms: C_17  and  N_18
REMARK                            x       y       z     vdW  Elec       q    Type
REMARK                         _______ _______ _______ _____ _____    ______ ____
ROOT
ATOM      1  S   UNL     1       2.522   5.674  19.702  0.00  0.00    +0.000 S 
ATOM      2  O   UNL     1       2.022   5.027  18.508  0.00  0.00    +0.000 OA
ATOM      3  O   UNL     1       2.278   5.102  21.010  0.00  0.00    +0.000 OA
ENDROOT
BRANCH   1   4
ATOM      4  C   UNL     1       1.933   7.346  19.694  0.00  0.00    +0.000 A 
ATOM      5  C   UNL     1       1.979   8.093  18.520  0.00  0.00    +0.000 A 
ATOM      6  C   UNL     1       1.476   9.399  18.513  0.00  0.00    +0.000 A 
ATOM      7  C   UNL     1       0.922   9.970  19.668  0.00  0.00    +0.000 A 
ATOM      8  C   UNL     1       0.879   9.192  20.836  0.00  0.00    +0.000 A 
ATOM      9  C   UNL     1       1.374   7.885  20.852  0.00  0.00    +0.000 A 
BRANCH   7  10
ATOM     10  N   UNL     1       0.437  11.301  19.673  0.00  0.00    +0.000 N 
ATOM     11  C   UNL     1      -0.697  11.743  18.888  0.00  0.00    +0.000 C 
ATOM     12  C   UNL     1      -1.079  13.060  19.539  0.00  0.00    +0.000 C 
ATOM     13  N   UNL     1       0.147  13.495  20.133  0.00  0.00    +0.000 N 
ATOM     14  C   UNL     1       0.976  12.400  20.373  0.00  0.00    +0.000 C 
ATOM     15  O   UNL     1       1.957  12.473  21.093  0.00  0.00    +0.000 OA
ATOM     16  H   UNL     1       0.262  14.312  20.721  0.00  0.00    +0.000 HD
ENDBRANCH   7  10
ENDBRANCH   1   4
BRANCH   1  17
ATOM     17  N   UNL     1       4.177   5.861  19.470  0.00  0.00    +0.000 N 
ATOM     18  H   UNL     1       4.561   6.640  20.001  0.00  0.00    +0.000 HD
BRANCH  17  22
ATOM     19  C   UNL     1       5.950   4.973  15.746  0.00  0.00    +0.000 A 
ATOM     20  C   UNL     1       5.211   6.154  15.910  0.00  0.00    +0.000 A 
ATOM     21  C   UNL     1       4.610   6.453  17.140  0.00  0.00    +0.000 A 
ATOM     22  C   UNL     1       4.741   5.568  18.202  0.00  0.00    +0.000 A 
ATOM     23  C   UNL     1       5.452   4.379  18.045  0.00  0.00    +0.000 A 
ATOM     24  C   UNL     1       6.051   4.082  16.820  0.00  0.00    +0.000 A 
BRANCH  19  25
ATOM     25  C   UNL     1       6.640   4.662  14.437  0.00  0.00    +0.000 C 
BRANCH  25  26
ATOM     26  C   UNL     1       5.699   4.186  13.326  0.00  0.00    +0.000 C 
BRANCH  26  27
ATOM     27  C   UNL     1       6.380   3.294  12.282  0.00  0.00    +0.000 C 
BRANCH  27  29
ATOM     28  C   UNL     1       4.035   3.222  11.343  0.00  0.00    +0.000 C 
ATOM     29  C   UNL     1       5.342   2.466  11.525  0.00  0.00    +0.000 C 
ENDBRANCH  27  29
ENDBRANCH  26  27
ENDBRANCH  25  26
ENDBRANCH  19  25
ENDBRANCH  17  22
ENDBRANCH   1  17
TORSDOF 8
ENDMDL
MODEL 4
REMARK VINA RESULT:      -7.9      1.102      1.796
REMARK  Name = 
REMARK  9 active torsions:
REMARK  status: ('A' for Active; 'I' for Inactive)
REMARK    1  A    between atoms: C_1  and  C_2
REMARK    2  A    between atoms: C_2  and  C_3
REMARK    3  A    between atoms: C_3  and  C_4
REMARK    4  A    between atoms: C_4  and  C_5
REMARK    5  A    between atoms: C_5  and  C_6
REMARK    6  A    between atoms: C_9  and  N_10
REMARK    7  A    between atoms: N_10  and  S_11
REMARK    8  A    between atoms: S_11  and  C_14
REMARK    9  A    between atoms: C_17  and  N_18
REMARK                            x       y       z     vdW  Elec       q    Type
REMARK                         _______ _______ _______ _____ _____    ______ ____
ROOT
ATOM      1  S   UNL     1       2.579   5.383  19.960  0.00  0.00    +0.000 S 
ATOM      2  O   UNL     1       2.067   4.645  18.825  0.00  0.00    +0.000 OA
ATOM      3  O   UNL     1       2.395   4.888  21.309  0.00  0.00    +0.000 OA
ENDROOT
BRANCH   1   4
ATOM      4  C   UNL     1       1.934   7.031  19.866  0.00  0.00    +0.000 A 
ATOM      5  C   UNL     1       1.352   7.615  20.988  0.00  0.00    +0.000 A 
ATOM      6  C   UNL     1       0.881   8.931  20.915  0.00  0.00    +0.000 A 
ATOM      7  C   UNL     1       0.987   9.676  19.731  0.00  0.00    +0.000 A 
ATOM      8  C   UNL     1       1.586   9.066  18.617  0.00  0.00    +0.000 A 
ATOM      9  C   UNL     1       2.065   7.755  18.681  0.00  0.00    +0.000 A 
BRANCH   7  10
ATOM     10  N   UNL     1       0.486  10.998  19.645  0.00  0.00    +0.000 N 
ATOM     11  C   UNL     1      -0.449  11.434  18.629  0.00  0.00    +0.000 C 
ATOM     12  C   UNL     1      -0.996  12.732  19.194  0.00  0.00    +0.000 C 
ATOM     13  N   UNL     1       0.054  13.178  20.057  0.00  0.00    +0.000 N 
ATOM     14  C   UNL     1       0.830  12.093  20.464  0.00  0.00    +0.000 C 
ATOM     15  O   UNL     1       1.620  12.170  21.388  0.00  0.00    +0.000 OA
ATOM     16  H   UNL     1       0.016  13.986  20.667  0.00  0.00    +0.000 HD
ENDBRANCH   7  10
ENDBRANCH   1   4
BRANCH   1  17
ATOM     17  N   UNL     1       4.220   5.608  19.664  0.00  0.00    +0.000 N 
ATOM     18  H   UNL     1       4.631   6.323  20.262  0.00  0.00    +0.000 HD
BRANCH  17  22
ATOM     19  C   UNL     1       5.777   5.140  15.770  0.00  0.00    +0.000 A 
ATOM     20  C   UNL     1       5.442   6.417  16.246  0.00  0.00    +0.000 A 
ATOM     21  C   UNL     1       4.915   6.582  17.534  0.00  0.00    +0.000 A 
ATOM     22  C   UNL     1       4.715   5.470  18.342  0.00  0.00    +0.000 A 
ATOM     23  C   UNL     1       5.019   4.193  17.872  0.00  0.00    +0.000 A 
ATOM     24  C   UNL     1       5.546   4.030  16.590  0.00  0.00    +0.000 A 
BRANCH  19  25
ATOM     25  C   UNL     1       6.387   4.956  14.400  0.00  0.00    +0.000 C 
BRANCH  25  26
ATOM     26  C   UNL     1       6.157   3.570  13.788  0.00  0.00    +0.000 C 
BRANCH  26  27
ATOM     27  C   UNL     1       6.359   3.526  12.269  0.00  0.00    +0.000 C 
BRANCH  27  29
ATOM     28  C   UNL     1       4.081   3.174  11.234  0.00  0.00    +0.000 C 
ATOM     29  C   UNL     1       5.397   2.525  11.630  0.00  0.00    +0.000 C 
ENDBRANCH  27  29
ENDBRANCH  26  27
ENDBRANCH  25  26
ENDBRANCH  19  25
ENDBRANCH  17  22
ENDBRANCH   1  17
TORSDOF 8
ENDMDL
MODEL 5
REMARK VINA RESULT:      -7.8      0.730      1.262
REMARK  Name = 
REMARK  9 active torsions:
REMARK  status: ('A' for Active; 'I' for Inactive)
REMARK    1  A    between atoms: C_1  and  C_2
REMARK    2  A    between atoms: C_2  and  C_3
REMARK    3  A    between atoms: C_3  and  C_4
REMARK    4  A    between atoms: C_4  and  C_5
REMARK    5  A    between atoms: C_5  and  C_6
REMARK    6  A    between atoms: C_9  and  N_10
REMARK    7  A    between atoms: N_10  and  S_11
REMARK    8  A    between atoms: S_11  and  C_14
REMARK    9  A    between atoms: C_17  and  N_18
REMARK                            x       y       z     vdW  Elec       q    Type
REMARK                         _______ _______ _______ _____ _____    ______ ____
ROOT
ATOM      1  S   UNL     1       2.510   6.025  19.356  0.00  0.00    +0.000 S 
ATOM      2  O   UNL     1       1.998   5.327  18.197  0.00  0.00    +0.000 OA
ATOM      3  O   UNL     1       2.255   5.526  20.692  0.00  0.00    +0.000 OA
ENDROOT
BRANCH   1   4
ATOM      4  C   UNL     1       1.955   7.706  19.261  0.00  0.00    +0.000 A 
ATOM      5  C   UNL     1       2.059   8.405  18.062  0.00  0.00    +0.000 A 
ATOM      6  C   UNL     1       1.581   9.718  17.986  0.00  0.00    +0.000 A 
ATOM      7  C   UNL     1       0.997  10.345  19.096  0.00  0.00    +0.000 A 
ATOM      8  C   UNL     1       0.897   9.614  20.291  0.00  0.00    +0.000 A 
ATOM      9  C   UNL     1       1.365   8.300  20.376  0.00  0.00    +0.000 A 
BRANCH   7  10
ATOM     10  N   UNL     1       0.538  11.683  19.032  0.00  0.00    +0.000 N 
ATOM     11  C   UNL     1       1.417  12.824  18.876  0.00  0.00    +0.000 C 
ATOM     12  C   UNL     1       0.477  13.930  18.435  0.00  0.00    +0.000 C 
ATOM     13  N   UNL     1      -0.784  13.516  18.969  0.00  0.00    +0.000 N 
ATOM     14  C   UNL     1      -0.793  12.133  19.153  0.00  0.00    +0.000 C 
ATOM     15  O   UNL     1      -1.821  11.511  19.354  0.00  0.00    +0.000 OA
ATOM     16  H   UNL     1      -1.673  13.977  18.813  0.00  0.00    +0.000 HD
ENDBRANCH   7  10
ENDBRANCH   1   4
BRANCH   1  17
ATOM     17  N   UNL     1       4.169   6.167  19.117  0.00  0.00    +0.000 N 
ATOM     18  H   UNL     1       4.567   6.972  19.597  0.00  0.00    +0.000 HD
BRANCH  17  22
ATOM     19  C   UNL     1       5.922   4.984  15.465  0.00  0.00    +0.000 A 
ATOM     20  C   UNL     1       5.451   6.296  15.628  0.00  0.00    +0.000 A 
ATOM     21  C   UNL     1       4.858   6.696  16.834  0.00  0.00    +0.000 A 
ATOM     22  C   UNL     1       4.729   5.782  17.872  0.00  0.00    +0.000 A 
ATOM     23  C   UNL     1       5.170   4.469  17.714  0.00  0.00    +0.000 A 
ATOM     24  C   UNL     1       5.762   4.072  16.514  0.00  0.00    +0.000 A 
BRANCH  19  25
ATOM     25  C   UNL     1       6.603   4.555  14.186  0.00  0.00    +0.000 C 
BRANCH  25  26
ATOM     26  C   UNL     1       5.691   3.813  13.204  0.00  0.00    +0.000 C 
BRANCH  26  27
ATOM     27  C   UNL     1       6.436   3.205  12.010  0.00  0.00    +0.000 C 
BRANCH  27  29
ATOM     28  C   UNL     1       6.563   0.892  11.001  0.00  0.00    +0.000 C 
ATOM     29  C   UNL     1       5.650   2.029  11.431  0.00  0.00    +0.000 C 
ENDBRANCH  27  29
ENDBRANCH  26  27
ENDBRANCH  25  26
ENDBRANCH  19  25
ENDBRANCH  17  22
ENDBRANCH   1  17
TORSDOF 8
ENDMDL
MODEL 6
REMARK VINA RESULT:      -7.7      2.958      8.104
REMARK  Name = 
REMARK  9 active torsions:
REMARK  status: ('A' for Active; 'I' for Inactive)
REMARK    1  A    between atoms: C_1  and  C_2
REMARK    2  A    between atoms: C_2  and  C_3
REMARK    3  A    between atoms: C_3  and  C_4
REMARK    4  A    between atoms: C_4  and  C_5
REMARK    5  A    between atoms: C_5  and  C_6
REMARK    6  A    between atoms: C_9  and  N_10
REMARK    7  A    between atoms: N_10  and  S_11
REMARK    8  A    between atoms: S_11  and  C_14
REMARK    9  A    between atoms: C_17  and  N_18
REMARK                            x       y       z     vdW  Elec       q    Type
REMARK                         _______ _______ _______ _____ _____    ______ ____
ROOT
ATOM      1  S   UNL     1       2.130   4.234  20.422  0.00  0.00    +0.000 S 
ATOM      2  O   UNL     1       2.627   3.225  21.332  0.00  0.00    +0.000 OA
ATOM      3  O   UNL     1       0.790   4.145  19.879  0.00  0.00    +0.000 OA
ENDROOT
BRANCH   1   4
ATOM      4  C   UNL     1       3.280   4.360  19.078  0.00  0.00    +0.000 A 
ATOM      5  C   UNL     1       4.636   4.535  19.340  0.00  0.00    +0.000 A 
ATOM      6  C   UNL     1       5.541   4.593  18.274  0.00  0.00    +0.000 A 
ATOM      7  C   UNL     1       5.109   4.476  16.944  0.00  0.00    +0.000 A 
ATOM      8  C   UNL     1       3.736   4.292  16.710  0.00  0.00    +0.000 A 
ATOM      9  C   UNL     1       2.825   4.226  17.768  0.00  0.00    +0.000 A 
BRANCH   7  10
ATOM     10  N   UNL     1       6.017   4.563  15.862  0.00  0.00    +0.000 N 
ATOM     11  C   UNL     1       5.992   3.670  14.722  0.00  0.00    +0.000 C 
ATOM     12  C   UNL     1       6.823   4.405  13.686  0.00  0.00    +0.000 C 
ATOM     13  N   UNL     1       7.680   5.229  14.482  0.00  0.00    +0.000 N 
ATOM     14  C   UNL     1       7.095   5.463  15.726  0.00  0.00    +0.000 C 
ATOM     15  O   UNL     1       7.500   6.329  16.481  0.00  0.00    +0.000 OA
ATOM     16  H   UNL     1       8.331   5.920  14.129  0.00  0.00    +0.000 HD
ENDBRANCH   7  10
ENDBRANCH   1   4
BRANCH   1  17
ATOM     17  N   UNL     1       2.319   5.706  21.212  0.00  0.00    +0.000 N 
ATOM     18  H   UNL     1       2.162   5.635  22.216  0.00  0.00    +0.000 HD
BRANCH  17  22
ATOM     19  C   UNL     1       1.084   9.245  19.274  0.00  0.00    +0.000 A 
ATOM     20  C   UNL     1       1.981   8.372  18.641  0.00  0.00    +0.000 A 
ATOM     21  C   UNL     1       2.405   7.199  19.280  0.00  0.00    +0.000 A 
ATOM     22  C   UNL     1       1.939   6.904  20.555  0.00  0.00    +0.000 A 
ATOM     23  C   UNL     1       1.066   7.776  21.205  0.00  0.00    +0.000 A 
ATOM     24  C   UNL     1       0.643   8.943  20.567  0.00  0.00    +0.000 A 
BRANCH  19  25
ATOM     25  C   UNL     1       0.586  10.489  18.575  0.00  0.00    +0.000 C 
BRANCH  25  26
ATOM     26  C   UNL     1      -0.941  10.619  18.530  0.00  0.00    +0.000 C 
BRANCH  26  27
ATOM     27  C   UNL     1      -1.588   9.868  17.361  0.00  0.00    +0.000 C 
BRANCH  27  29
ATOM     28  C   UNL     1      -3.403  11.462  18.102  0.00  0.00    +0.000 C 
ATOM     29  C   UNL     1      -2.983  10.425  17.074  0.00  0.00    +0.000 C 
ENDBRANCH  27  29
ENDBRANCH  26  27
ENDBRANCH  25  26
ENDBRANCH  19  25
ENDBRANCH  17  22
ENDBRANCH   1  17
TORSDOF 8
ENDMDL
MODEL 7
REMARK VINA RESULT:      -7.7      3.213      5.355
REMARK  Name = 
REMARK  9 active torsions:
REMARK  status: ('A' for Active; 'I' for Inactive)
REMARK    1  A    between atoms: C_1  and  C_2
REMARK    2  A    between atoms: C_2  and  C_3
REMARK    3  A    between atoms: C_3  and  C_4
REMARK    4  A    between atoms: C_4  and  C_5
REMARK    5  A    between atoms: C_5  and  C_6
REMARK    6  A    between atoms: C_9  and  N_10
REMARK    7  A    between atoms: N_10  and  S_11
REMARK    8  A    between atoms: S_11  and  C_14
REMARK    9  A    between atoms: C_17  and  N_18
REMARK                            x       y       z     vdW  Elec       q    Type
REMARK                         _______ _______ _______ _____ _____    ______ ____
ROOT
ATOM      1  S   UNL     1       4.139   3.352  18.319  0.00  0.00    +0.000 S 
ATOM      2  O   UNL     1       3.211   2.592  17.510  0.00  0.00    +0.000 OA
ATOM      3  O   UNL     1       4.763   2.760  19.485  0.00  0.00    +0.000 OA
ENDROOT
BRANCH   1   4
ATOM      4  C   UNL     1       3.324   4.848  18.809  0.00  0.00    +0.000 A 
ATOM      5  C   UNL     1       2.918   5.018  20.130  0.00  0.00    +0.000 A 
ATOM      6  C   UNL     1       2.311   6.218  20.516  0.00  0.00    +0.000 A 
ATOM      7  C   UNL     1       2.105   7.258  19.597  0.00  0.00    +0.000 A 
ATOM      8  C   UNL     1       2.532   7.064  18.274  0.00  0.00    +0.000 A 
ATOM      9  C   UNL     1       3.145   5.871  17.879  0.00  0.00    +0.000 A 
BRANCH   7  10
ATOM     10  N   UNL     1       1.466   8.463  19.977  0.00  0.00    +0.000 N 
ATOM     11  C   UNL     1       1.120   8.789  21.345  0.00  0.00    +0.000 C 
ATOM     12  C   UNL     1       0.878  10.286  21.296  0.00  0.00    +0.000 C 
ATOM     13  N   UNL     1       0.508  10.510  19.932  0.00  0.00    +0.000 N 
ATOM     14  C   UNL     1       1.024   9.496  19.125  0.00  0.00    +0.000 C 
ATOM     15  O   UNL     1       1.063   9.590  17.911  0.00  0.00    +0.000 OA
ATOM     16  H   UNL     1       0.339  11.413  19.505  0.00  0.00    +0.000 HD
ENDBRANCH   7  10
ENDBRANCH   1   4
BRANCH   1  17
ATOM     17  N   UNL     1       5.328   3.905  17.266  0.00  0.00    +0.000 N 
ATOM     18  H   UNL     1       5.750   3.154  16.723  0.00  0.00    +0.000 HD
BRANCH  17  22
ATOM     19  C   UNL     1       7.804   7.159  18.307  0.00  0.00    +0.000 A 
ATOM     20  C   UNL     1       7.745   6.027  19.133  0.00  0.00    +0.000 A 
ATOM     21  C   UNL     1       6.918   4.945  18.801  0.00  0.00    +0.000 A 
ATOM     22  C   UNL     1       6.144   5.000  17.648  0.00  0.00    +0.000 A 
ATOM     23  C   UNL     1       6.175   6.129  16.832  0.00  0.00    +0.000 A 
ATOM     24  C   UNL     1       7.000   7.206  17.162  0.00  0.00    +0.000 A 
BRANCH  19  25
ATOM     25  C   UNL     1       8.725   8.312  18.632  0.00  0.00    +0.000 C 
BRANCH  25  26
ATOM     26  C   UNL     1       8.317   9.645  17.996  0.00  0.00    +0.000 C 
BRANCH  26  27
ATOM     27  C   UNL     1       9.296  10.789  18.280  0.00  0.00    +0.000 C 
BRANCH  27  29
ATOM     28  C   UNL     1      10.805  11.770  20.053  0.00  0.00    +0.000 C 
ATOM     29  C   UNL     1       9.624  10.857  19.771  0.00  0.00    +0.000 C 
ENDBRANCH  27  29
ENDBRANCH  26  27
ENDBRANCH  25  26
ENDBRANCH  19  25
ENDBRANCH  17  22
ENDBRANCH   1  17
TORSDOF 8
ENDMDL
MODEL 8
REMARK VINA RESULT:      -7.7      3.028      5.227
REMARK  Name = 
REMARK  9 active torsions:
REMARK  status: ('A' for Active; 'I' for Inactive)
REMARK    1  A    between atoms: C_1  and  C_2
REMARK    2  A    between atoms: C_2  and  C_3
REMARK    3  A    between atoms: C_3  and  C_4
REMARK    4  A    between atoms: C_4  and  C_5
REMARK    5  A    between atoms: C_5  and  C_6
REMARK    6  A    between atoms: C_9  and  N_10
REMARK    7  A    between atoms: N_10  and  S_11
REMARK    8  A    between atoms: S_11  and  C_14
REMARK    9  A    between atoms: C_17  and  N_18
REMARK                            x       y       z     vdW  Elec       q    Type
REMARK                         _______ _______ _______ _____ _____    ______ ____
ROOT
ATOM      1  S   UNL     1       3.809   3.150  18.216  0.00  0.00    +0.000 S 
ATOM      2  O   UNL     1       2.804   2.429  17.465  0.00  0.00    +0.000 OA
ATOM      3  O   UNL     1       4.440   2.549  19.373  0.00  0.00    +0.000 OA
ENDROOT
BRANCH   1   4
ATOM      4  C   UNL     1       3.108   4.707  18.694  0.00  0.00    +0.000 A 
ATOM      5  C   UNL     1       3.166   5.115  20.024  0.00  0.00    +0.000 A 
ATOM      6  C   UNL     1       2.646   6.364  20.385  0.00  0.00    +0.000 A 
ATOM      7  C   UNL     1       2.068   7.214  19.430  0.00  0.00    +0.000 A 
ATOM      8  C   UNL     1       2.031   6.781  18.095  0.00  0.00    +0.000 A 
ATOM      9  C   UNL     1       2.553   5.539  17.723  0.00  0.00    +0.000 A 
BRANCH   7  10
ATOM     10  N   UNL     1       1.516   8.465  19.796  0.00  0.00    +0.000 N 
ATOM     11  C   UNL     1       0.907   8.726  21.084  0.00  0.00    +0.000 C 
ATOM     12  C   UNL     1       0.874  10.242  21.153  0.00  0.00    +0.000 C 
ATOM     13  N   UNL     1       0.859  10.629  19.775  0.00  0.00    +0.000 N 
ATOM     14  C   UNL     1       1.415   9.619  18.991  0.00  0.00    +0.000 C 
ATOM     15  O   UNL     1       1.745   9.804  17.833  0.00  0.00    +0.000 OA
ATOM     16  H   UNL     1       0.908  11.579  19.427  0.00  0.00    +0.000 HD
ENDBRANCH   7  10
ENDBRANCH   1   4
BRANCH   1  17
ATOM     17  N   UNL     1       4.987   3.599  17.103  0.00  0.00    +0.000 N 
ATOM     18  H   UNL     1       5.371   2.803  16.597  0.00  0.00    +0.000 HD
BRANCH  17  22
ATOM     19  C   UNL     1       7.516   6.830  18.086  0.00  0.00    +0.000 A 
ATOM     20  C   UNL     1       6.573   6.962  17.055  0.00  0.00    +0.000 A 
ATOM     21  C   UNL     1       5.735   5.891  16.714  0.00  0.00    +0.000 A 
ATOM     22  C   UNL     1       5.846   4.687  17.398  0.00  0.00    +0.000 A 
ATOM     23  C   UNL     1       6.796   4.535  18.407  0.00  0.00    +0.000 A 
ATOM     24  C   UNL     1       7.629   5.602  18.747  0.00  0.00    +0.000 A 
BRANCH  19  25
ATOM     25  C   UNL     1       8.393   7.992  18.491  0.00  0.00    +0.000 C 
BRANCH  25  26
ATOM     26  C   UNL     1       8.062   9.310  17.782  0.00  0.00    +0.000 C 
BRANCH  26  27
ATOM     27  C   UNL     1       8.959  10.479  18.204  0.00  0.00    +0.000 C 
BRANCH  27  29
ATOM     28  C   UNL     1       9.576  11.607  20.379  0.00  0.00    +0.000 C 
ATOM     29  C   UNL     1       9.451  10.286  19.638  0.00  0.00    +0.000 C 
ENDBRANCH  27  29
ENDBRANCH  26  27
ENDBRANCH  25  26
ENDBRANCH  19  25
ENDBRANCH  17  22
ENDBRANCH   1  17
TORSDOF 8
ENDMDL
MODEL 9
REMARK VINA RESULT:      -7.6      4.689      6.327
REMARK  Name = 
REMARK  9 active torsions:
REMARK  status: ('A' for Active; 'I' for Inactive)
REMARK    1  A    between atoms: C_1  and  C_2
REMARK    2  A    between atoms: C_2  and  C_3
REMARK    3  A    between atoms: C_3  and  C_4
REMARK    4  A    between atoms: C_4  and  C_5
REMARK    5  A    between atoms: C_5  and  C_6
REMARK    6  A    between atoms: C_9  and  N_10
REMARK    7  A    between atoms: N_10  and  S_11
REMARK    8  A    between atoms: S_11  and  C_14
REMARK    9  A    between atoms: C_17  and  N_18
REMARK                            x       y       z     vdW  Elec       q    Type
REMARK                         _______ _______ _______ _____ _____    ______ ____
ROOT
ATOM      1  S   UNL     1       6.328   6.735  16.456  0.00  0.00    +0.000 S 
ATOM      2  O   UNL     1       7.255   7.552  17.209  0.00  0.00    +0.000 OA
ATOM      3  O   UNL     1       5.451   7.330  15.469  0.00  0.00    +0.000 OA
ENDROOT
BRANCH   1   4
ATOM      4  C   UNL     1       5.344   5.828  17.618  0.00  0.00    +0.000 A 
ATOM      5  C   UNL     1       5.945   5.241  18.729  0.00  0.00    +0.000 A 
ATOM      6  C   UNL     1       5.153   4.561  19.661  0.00  0.00    +0.000 A 
ATOM      7  C   UNL     1       3.764   4.460  19.500  0.00  0.00    +0.000 A 
ATOM      8  C   UNL     1       3.183   5.068  18.376  0.00  0.00    +0.000 A 
ATOM      9  C   UNL     1       3.963   5.755  17.442  0.00  0.00    +0.000 A 
BRANCH   7  10
ATOM     10  N   UNL     1       2.963   3.748  20.426  0.00  0.00    +0.000 N 
ATOM     11  C   UNL     1       1.627   4.156  20.809  0.00  0.00    +0.000 C 
ATOM     12  C   UNL     1       1.049   2.903  21.441  0.00  0.00    +0.000 C 
ATOM     13  N   UNL     1       2.211   2.202  21.895  0.00  0.00    +0.000 N 
ATOM     14  C   UNL     1       3.323   2.593  21.150  0.00  0.00    +0.000 C 
ATOM     15  O   UNL     1       4.369   1.967  21.170  0.00  0.00    +0.000 OA
ATOM     16  H   UNL     1       2.220   1.278  22.309  0.00  0.00    +0.000 HD
ENDBRANCH   7  10
ENDBRANCH   1   4
BRANCH   1  17
ATOM     17  N   UNL     1       7.254   5.531  15.733  0.00  0.00    +0.000 N 
ATOM     18  H   UNL     1       8.254   5.677  15.859  0.00  0.00    +0.000 HD
BRANCH  17  22
ATOM     19  C   UNL     1       5.911   3.681  12.187  0.00  0.00    +0.000 A 
ATOM     20  C   UNL     1       7.135   4.367  12.203  0.00  0.00    +0.000 A 
ATOM     21  C   UNL     1       7.585   4.993  13.373  0.00  0.00    +0.000 A 
ATOM     22  C   UNL     1       6.808   4.941  14.523  0.00  0.00    +0.000 A 
ATOM     23  C   UNL     1       5.578   4.284  14.513  0.00  0.00    +0.000 A 
ATOM     24  C   UNL     1       5.131   3.659  13.348  0.00  0.00    +0.000 A 
BRANCH  19  25
ATOM     25  C   UNL     1       5.438   2.964  10.943  0.00  0.00    +0.000 C 
BRANCH  25  26
ATOM     26  C   UNL     1       4.052   2.324  11.073  0.00  0.00    +0.000 C 
BRANCH  26  27
ATOM     27  C   UNL     1       2.907   3.234  10.612  0.00  0.00    +0.000 C 
BRANCH  27  29
ATOM     28  C   UNL     1       2.289   5.035   8.952  0.00  0.00    +0.000 C 
ATOM     29  C   UNL     1       3.270   3.928   9.299  0.00  0.00    +0.000 C 
ENDBRANCH  27  29
ENDBRANCH  26  27
ENDBRANCH  25  26
ENDBRANCH  19  25
ENDBRANCH  17  22
ENDBRANCH   1  17
TORSDOF 8
ENDMDL
