MODEL 1
REMARK VINA RESULT:      -6.5      0.000      0.000
REMARK  Name = 
REMARK  7 active torsions:
REMARK  status: ('A' for Active; 'I' for Inactive)
REMARK    1  A    between atoms: C_1  and  C_2
REMARK    2  A    between atoms: C_2  and  C_4
REMARK    3  A    between atoms: C_4  and  O_5
REMARK    4  A    between atoms: C_14  and  O_15
REMARK    5  A    between atoms: O_15  and  C_16
REMARK    6  A    between atoms: C_23  and  C_24
REMARK    7  A    between atoms: C_28  and  C_29
REMARK                            x       y       z     vdW  Elec       q    Type
REMARK                         _______ _______ _______ _____ _____    ______ ____
ROOT
ATOM      1  C   UNL     1      -3.754  13.981  23.625  0.00  0.00    +0.000 C 
ATOM      2  C   UNL     1      -3.200  12.763  24.399  0.00  0.00    +0.000 C 
ATOM      3  C   UNL     1      -2.629  11.912  23.304  0.00  0.00    +0.000 C 
ATOM      4  C   UNL     1      -1.850  12.962  22.543  0.00  0.00    +0.000 C 
ATOM      5  C   UNL     1      -1.232  12.450  21.293  0.00  0.00    +0.000 C 
ATOM      6  C   UNL     1      -0.437  11.190  21.549  0.00  0.00    +0.000 C 
ATOM      7  C   UNL     1      -0.725  10.424  20.332  0.00  0.00    +0.000 C 
ATOM      8  C   UNL     1      -0.463  11.016  19.150  0.00  0.00    +0.000 C 
ATOM      9  C   UNL     1      -0.090  10.088  18.070  0.00  0.00    +0.000 C 
ATOM     10  C   UNL     1       1.138   9.593  18.343  0.00  0.00    +0.000 C 
ATOM     11  C   UNL     1       2.155  10.743  18.444  0.00  0.00    +0.000 C 
ATOM     12  C   UNL     1       1.626  12.239  18.808  0.00  0.00    +0.000 C 
ATOM     13  C   UNL     1       0.067  12.493  19.083  0.00  0.00    +0.000 C 
ATOM     14  C   UNL     1      -0.565  13.245  17.895  0.00  0.00    +0.000 C 
ATOM     15  C   UNL     1      -0.288  13.376  20.512  0.00  0.00    +0.000 C 
ATOM     16  C   UNL     1      -0.897  14.849  20.593  0.00  0.00    +0.000 C 
ATOM     17  C   UNL     1      -1.709  15.245  21.987  0.00  0.00    +0.000 C 
ATOM     18  C   UNL     1      -2.813  14.167  22.322  0.00  0.00    +0.000 C 
ATOM     19  C   UNL     1      -3.763  14.313  21.112  0.00  0.00    +0.000 C 
ENDROOT
BRANCH   1  21
ATOM     20  C   UNL     1      -6.423  14.605  23.567  0.00  0.00    +0.000 C 
ATOM     21  C   UNL     1      -5.294  13.583  23.508  0.00  0.00    +0.000 C 
ATOM     22  O   UNL     1      -5.577  12.420  23.174  0.00  0.00    +0.000 OA
ENDBRANCH   1  21
BRANCH   1  23
ATOM     23  O   UNL     1      -3.680  15.109  24.491  0.00  0.00    +0.000 OA
ATOM     24  H   UNL     1      -4.585  15.498  24.481  0.00  0.00    +0.000 HD
ENDBRANCH   1  23
BRANCH  10  25
ATOM     25  O   UNL     1       1.143   8.617  19.361  0.00  0.00    +0.000 OA
BRANCH  25  26
ATOM     26  C   UNL     1       2.218   7.717  19.646  0.00  0.00    +0.000 C 
ATOM     27  C   UNL     1       1.699   6.697  20.671  0.00  0.00    +0.000 C 
ATOM     28  C   UNL     1       1.834   5.290  20.090  0.00  0.00    +0.000 C 
ATOM     29  C   UNL     1       2.134   5.469  18.616  0.00  0.00    +0.000 C 
ATOM     30  C   UNL     1       2.665   6.885  18.442  0.00  0.00    +0.000 C 
ENDBRANCH  25  26
ENDBRANCH  10  25
TORSDOF 4
ENDMDL
MODEL 2
REMARK VINA RESULT:      -6.2      1.737      7.984
REMARK  Name = 
REMARK  7 active torsions:
REMARK  status: ('A' for Active; 'I' for Inactive)
REMARK    1  A    between atoms: C_1  and  C_2
REMARK    2  A    between atoms: C_2  and  C_4
REMARK    3  A    between atoms: C_4  and  O_5
REMARK    4  A    between atoms: C_14  and  O_15
REMARK    5  A    between atoms: O_15  and  C_16
REMARK    6  A    between atoms: C_23  and  C_24
REMARK    7  A    between atoms: C_28  and  C_29
REMARK                            x       y       z     vdW  Elec       q    Type
REMARK                         _______ _______ _______ _____ _____    ______ ____
ROOT
ATOM      1  C   UNL     1       1.009  10.182  18.504  0.00  0.00    +0.000 C 
ATOM      2  C   UNL     1      -0.340   9.775  17.868  0.00  0.00    +0.000 C 
ATOM      3  C   UNL     1      -1.339  10.436  18.770  0.00  0.00    +0.000 C 
ATOM      4  C   UNL     1      -0.733  11.819  18.855  0.00  0.00    +0.000 C 
ATOM      5  C   UNL     1      -1.447  12.721  19.794  0.00  0.00    +0.000 C 
ATOM      6  C   UNL     1      -2.932  12.740  19.516  0.00  0.00    +0.000 C 
ATOM      7  C   UNL     1      -3.472  12.819  20.877  0.00  0.00    +0.000 C 
ATOM      8  C   UNL     1      -3.040  13.829  21.658  0.00  0.00    +0.000 C 
ATOM      9  C   UNL     1      -4.021  14.297  22.651  0.00  0.00    +0.000 C 
ATOM     10  C   UNL     1      -5.014  14.939  21.995  0.00  0.00    +0.000 C 
ATOM     11  C   UNL     1      -4.437  16.124  21.202  0.00  0.00    +0.000 C 
ATOM     12  C   UNL     1      -2.867  16.101  20.771  0.00  0.00    +0.000 C 
ATOM     13  C   UNL     1      -1.951  14.839  21.148  0.00  0.00    +0.000 C 
ATOM     14  C   UNL     1      -0.979  15.212  22.285  0.00  0.00    +0.000 C 
ATOM     15  C   UNL     1      -1.024  14.196  19.854  0.00  0.00    +0.000 C 
ATOM     16  C   UNL     1       0.565  14.239  19.709  0.00  0.00    +0.000 C 
ATOM     17  C   UNL     1       1.258  13.070  18.755  0.00  0.00    +0.000 C 
ATOM     18  C   UNL     1       0.778  11.630  19.189  0.00  0.00    +0.000 C 
ATOM     19  C   UNL     1       1.348  11.533  20.622  0.00  0.00    +0.000 C 
ENDROOT
BRANCH   1  21
ATOM     20  C   UNL     1       2.303   7.798  18.896  0.00  0.00    +0.000 C 
ATOM     21  C   UNL     1       1.338   8.881  19.364  0.00  0.00    +0.000 C 
ATOM     22  O   UNL     1       0.932   8.834  20.538  0.00  0.00    +0.000 OA
ENDBRANCH   1  21
BRANCH   1  23
ATOM     23  O   UNL     1       1.974  10.245  17.458  0.00  0.00    +0.000 OA
ATOM     24  H   UNL     1       2.569  10.990  17.705  0.00  0.00    +0.000 HD
ENDBRANCH   1  23
BRANCH  10  25
ATOM     25  O   UNL     1      -5.906  14.073  21.328  0.00  0.00    +0.000 OA
BRANCH  25  26
ATOM     26  C   UNL     1      -7.233  13.754  21.758  0.00  0.00    +0.000 C 
ATOM     27  C   UNL     1      -7.222  12.287  22.216  0.00  0.00    +0.000 C 
ATOM     28  C   UNL     1      -7.671  12.214  23.675  0.00  0.00    +0.000 C 
ATOM     29  C   UNL     1      -7.651  13.637  24.194  0.00  0.00    +0.000 C 
ATOM     30  C   UNL     1      -7.697  14.551  22.979  0.00  0.00    +0.000 C 
ENDBRANCH  25  26
ENDBRANCH  10  25
TORSDOF 4
ENDMDL
MODEL 3
REMARK VINA RESULT:      -6.1      9.162     12.204
REMARK  Name = 
REMARK  7 active torsions:
REMARK  status: ('A' for Active; 'I' for Inactive)
REMARK    1  A    between atoms: C_1  and  C_2
REMARK    2  A    between atoms: C_2  and  C_4
REMARK    3  A    between atoms: C_4  and  O_5
REMARK    4  A    between atoms: C_14  and  O_15
REMARK    5  A    between atoms: O_15  and  C_16
REMARK    6  A    between atoms: C_23  and  C_24
REMARK    7  A    between atoms: C_28  and  C_29
REMARK                            x       y       z     vdW  Elec       q    Type
REMARK                         _______ _______ _______ _____ _____    ______ ____
ROOT
ATOM      1  C   UNL     1      10.143  13.237  18.309  0.00  0.00    +0.000 C 
ATOM      2  C   UNL     1       9.304  12.022  18.765  0.00  0.00    +0.000 C 
ATOM      3  C   UNL     1       9.176  12.250  20.242  0.00  0.00    +0.000 C 
ATOM      4  C   UNL     1       8.775  13.708  20.243  0.00  0.00    +0.000 C 
ATOM      5  C   UNL     1       8.672  14.293  21.605  0.00  0.00    +0.000 C 
ATOM      6  C   UNL     1       7.809  13.439  22.505  0.00  0.00    +0.000 C 
ATOM      7  C   UNL     1       8.523  13.563  23.780  0.00  0.00    +0.000 C 
ATOM      8  C   UNL     1       8.750  14.808  24.244  0.00  0.00    +0.000 C 
ATOM      9  C   UNL     1       8.797  14.915  25.712  0.00  0.00    +0.000 C 
ATOM     10  C   UNL     1       7.546  14.728  26.191  0.00  0.00    +0.000 C 
ATOM     11  C   UNL     1       6.597  15.785  25.601  0.00  0.00    +0.000 C 
ATOM     12  C   UNL     1       6.983  16.498  24.189  0.00  0.00    +0.000 C 
ATOM     13  C   UNL     1       8.323  16.073  23.417  0.00  0.00    +0.000 C 
ATOM     14  C   UNL     1       9.381  17.187  23.539  0.00  0.00    +0.000 C 
ATOM     15  C   UNL     1       8.124  15.720  21.748  0.00  0.00    +0.000 C 
ATOM     16  C   UNL     1       8.692  16.569  20.522  0.00  0.00    +0.000 C 
ATOM     17  C   UNL     1       8.916  15.756  19.092  0.00  0.00    +0.000 C 
ATOM     18  C   UNL     1       9.779  14.453  19.312  0.00  0.00    +0.000 C 
ATOM     19  C   UNL     1      11.125  15.051  19.783  0.00  0.00    +0.000 C 
ENDROOT
BRANCH   1  21
ATOM     20  C   UNL     1      12.100  11.585  19.286  0.00  0.00    +0.000 C 
ATOM     21  C   UNL     1      11.599  12.590  18.255  0.00  0.00    +0.000 C 
ATOM     22  O   UNL     1      12.286  12.772  17.236  0.00  0.00    +0.000 OA
ENDBRANCH   1  21
BRANCH   1  23
ATOM     23  O   UNL     1       9.770  13.536  16.967  0.00  0.00    +0.000 OA
ATOM     24  H   UNL     1       9.484  14.478  16.985  0.00  0.00    +0.000 HD
ENDBRANCH   1  23
BRANCH  10  25
ATOM     25  O   UNL     1       7.126  13.381  26.171  0.00  0.00    +0.000 OA
BRANCH  25  26
ATOM     26  C   UNL     1       5.801  12.928  25.878  0.00  0.00    +0.000 C 
ATOM     27  C   UNL     1       5.916  11.478  25.381  0.00  0.00    +0.000 C 
ATOM     28  C   UNL     1       5.085  10.571  26.288  0.00  0.00    +0.000 C 
ATOM     29  C   UNL     1       4.726  11.403  27.503  0.00  0.00    +0.000 C 
ATOM     30  C   UNL     1       4.884  12.862  27.101  0.00  0.00    +0.000 C 
ENDBRANCH  25  26
ENDBRANCH  10  25
TORSDOF 4
ENDMDL
MODEL 4
REMARK VINA RESULT:      -6.0      3.422      8.122
REMARK  Name = 
REMARK  7 active torsions:
REMARK  status: ('A' for Active; 'I' for Inactive)
REMARK    1  A    between atoms: C_1  and  C_2
REMARK    2  A    between atoms: C_2  and  C_4
REMARK    3  A    between atoms: C_4  and  O_5
REMARK    4  A    between atoms: C_14  and  O_15
REMARK    5  A    between atoms: O_15  and  C_16
REMARK    6  A    between atoms: C_23  and  C_24
REMARK    7  A    between atoms: C_28  and  C_29
REMARK                            x       y       z     vdW  Elec       q    Type
REMARK                         _______ _______ _______ _____ _____    ______ ____
ROOT
ATOM      1  C   UNL     1       2.317  17.099  18.998  0.00  0.00    +0.000 C 
ATOM      2  C   UNL     1       1.407  18.111  19.730  0.00  0.00    +0.000 C 
ATOM      3  C   UNL     1       0.172  17.303  20.001  0.00  0.00    +0.000 C 
ATOM      4  C   UNL     1       0.804  16.048  20.560  0.00  0.00    +0.000 C 
ATOM      5  C   UNL     1      -0.175  14.965  20.836  0.00  0.00    +0.000 C 
ATOM      6  C   UNL     1      -1.331  15.469  21.668  0.00  0.00    +0.000 C 
ATOM      7  C   UNL     1      -2.448  14.725  21.077  0.00  0.00    +0.000 C 
ATOM      8  C   UNL     1      -2.342  13.382  21.028  0.00  0.00    +0.000 C 
ATOM      9  C   UNL     1      -3.624  12.663  21.110  0.00  0.00    +0.000 C 
ATOM     10  C   UNL     1      -4.106  12.798  22.366  0.00  0.00    +0.000 C 
ATOM     11  C   UNL     1      -3.097  12.225  23.377  0.00  0.00    +0.000 C 
ATOM     12  C   UNL     1      -1.526  12.127  22.961  0.00  0.00    +0.000 C 
ATOM     13  C   UNL     1      -1.043  12.653  21.525  0.00  0.00    +0.000 C 
ATOM     14  C   UNL     1      -0.704  11.459  20.611  0.00  0.00    +0.000 C 
ATOM     15  C   UNL     1       0.319  13.698  21.549  0.00  0.00    +0.000 C 
ATOM     16  C   UNL     1       1.776  13.374  20.984  0.00  0.00    +0.000 C 
ATOM     17  C   UNL     1       2.716  14.675  20.557  0.00  0.00    +0.000 C 
ATOM     18  C   UNL     1       1.938  15.635  19.574  0.00  0.00    +0.000 C 
ATOM     19  C   UNL     1       1.735  14.719  18.346  0.00  0.00    +0.000 C 
ENDROOT
BRANCH   1  21
ATOM     20  C   UNL     1       0.826  18.291  17.031  0.00  0.00    +0.000 C 
ATOM     21  C   UNL     1       2.053  17.506  17.479  0.00  0.00    +0.000 C 
ATOM     22  O   UNL     1       2.969  17.335  16.657  0.00  0.00    +0.000 OA
ENDBRANCH   1  21
BRANCH   1  23
ATOM     23  O   UNL     1       3.667  17.445  19.293  0.00  0.00    +0.000 OA
ATOM     24  H   UNL     1       3.995  17.904  18.486  0.00  0.00    +0.000 HD
ENDBRANCH   1  23
BRANCH  10  25
ATOM     25  O   UNL     1      -4.652  14.071  22.631  0.00  0.00    +0.000 OA
BRANCH  25  26
ATOM     26  C   UNL     1      -5.065  14.549  23.915  0.00  0.00    +0.000 C 
ATOM     27  C   UNL     1      -3.954  15.474  24.435  0.00  0.00    +0.000 C 
ATOM     28  C   UNL     1      -4.540  16.860  24.702  0.00  0.00    +0.000 C 
ATOM     29  C   UNL     1      -5.911  16.870  24.057  0.00  0.00    +0.000 C 
ATOM     30  C   UNL     1      -6.325  15.416  23.878  0.00  0.00    +0.000 C 
ENDBRANCH  25  26
ENDBRANCH  10  25
TORSDOF 4
ENDMDL
MODEL 5
REMARK VINA RESULT:      -6.0      3.367      5.989
REMARK  Name = 
REMARK  7 active torsions:
REMARK  status: ('A' for Active; 'I' for Inactive)
REMARK    1  A    between atoms: C_1  and  C_2
REMARK    2  A    between atoms: C_2  and  C_4
REMARK    3  A    between atoms: C_4  and  O_5
REMARK    4  A    between atoms: C_14  and  O_15
REMARK    5  A    between atoms: O_15  and  C_16
REMARK    6  A    between atoms: C_23  and  C_24
REMARK    7  A    between atoms: C_28  and  C_29
REMARK                            x       y       z     vdW  Elec       q    Type
REMARK                         _______ _______ _______ _____ _____    ______ ____
ROOT
ATOM      1  C   UNL     1      -6.244  11.318  18.632  0.00  0.00    +0.000 C 
ATOM      2  C   UNL     1      -6.227  12.589  19.511  0.00  0.00    +0.000 C 
ATOM      3  C   UNL     1      -4.852  12.554  20.110  0.00  0.00    +0.000 C 
ATOM      4  C   UNL     1      -4.038  12.274  18.866  0.00  0.00    +0.000 C 
ATOM      5  C   UNL     1      -2.593  12.064  19.140  0.00  0.00    +0.000 C 
ATOM      6  C   UNL     1      -2.025  13.183  19.982  0.00  0.00    +0.000 C 
ATOM      7  C   UNL     1      -1.094  12.443  20.841  0.00  0.00    +0.000 C 
ATOM      8  C   UNL     1      -0.166  11.678  20.234  0.00  0.00    +0.000 C 
ATOM      9  C   UNL     1       1.095  11.538  20.980  0.00  0.00    +0.000 C 
ATOM     10  C   UNL     1       1.740  12.727  20.950  0.00  0.00    +0.000 C 
ATOM     11  C   UNL     1       2.015  13.135  19.493  0.00  0.00    +0.000 C 
ATOM     12  C   UNL     1       1.079  12.525  18.307  0.00  0.00    +0.000 C 
ATOM     13  C   UNL     1      -0.129  11.534  18.670  0.00  0.00    +0.000 C 
ATOM     14  C   UNL     1       0.229  10.092  18.263  0.00  0.00    +0.000 C 
ATOM     15  C   UNL     1      -1.636  11.925  17.947  0.00  0.00    +0.000 C 
ATOM     16  C   UNL     1      -2.398  11.085  16.825  0.00  0.00    +0.000 C 
ATOM     17  C   UNL     1      -4.044  11.290  16.728  0.00  0.00    +0.000 C 
ATOM     18  C   UNL     1      -4.722  11.078  18.138  0.00  0.00    +0.000 C 
ATOM     19  C   UNL     1      -4.401   9.591  18.414  0.00  0.00    +0.000 C 
ENDROOT
BRANCH   1  21
ATOM     20  C   UNL     1      -7.747  10.737  20.849  0.00  0.00    +0.000 C 
ATOM     21  C   UNL     1      -6.992  10.297  19.600  0.00  0.00    +0.000 C 
ATOM     22  O   UNL     1      -7.119   9.118  19.226  0.00  0.00    +0.000 OA
ENDBRANCH   1  21
BRANCH   1  23
ATOM     23  O   UNL     1      -7.117  11.569  17.535  0.00  0.00    +0.000 OA
ATOM     24  H   UNL     1      -7.606  12.388  17.780  0.00  0.00    +0.000 HD
ENDBRANCH   1  23
BRANCH  10  25
ATOM     25  O   UNL     1       1.184  13.695  21.812  0.00  0.00    +0.000 OA
BRANCH  25  26
ATOM     26  C   UNL     1       1.081  15.094  21.534  0.00  0.00    +0.000 C 
ATOM     27  C   UNL     1       0.040  15.675  22.504  0.00  0.00    +0.000 C 
ATOM     28  C   UNL     1       0.692  16.780  23.337  0.00  0.00    +0.000 C 
ATOM     29  C   UNL     1       2.184  16.659  23.103  0.00  0.00    +0.000 C 
ATOM     30  C   UNL     1       2.366  15.877  21.809  0.00  0.00    +0.000 C 
ENDBRANCH  25  26
ENDBRANCH  10  25
TORSDOF 4
ENDMDL
MODEL 6
REMARK VINA RESULT:      -6.0      3.366      8.037
REMARK  Name = 
REMARK  7 active torsions:
REMARK  status: ('A' for Active; 'I' for Inactive)
REMARK    1  A    between atoms: C_1  and  C_2
REMARK    2  A    between atoms: C_2  and  C_4
REMARK    3  A    between atoms: C_4  and  O_5
REMARK    4  A    between atoms: C_14  and  O_15
REMARK    5  A    between atoms: O_15  and  C_16
REMARK    6  A    between atoms: C_23  and  C_24
REMARK    7  A    between atoms: C_28  and  C_29
REMARK                            x       y       z     vdW  Elec       q    Type
REMARK                         _______ _______ _______ _____ _____    ______ ____
ROOT
ATOM      1  C   UNL     1       2.405  17.036  18.881  0.00  0.00    +0.000 C 
ATOM      2  C   UNL     1       1.527  18.042  19.660  0.00  0.00    +0.000 C 
ATOM      3  C   UNL     1       0.296  17.238  19.959  0.00  0.00    +0.000 C 
ATOM      4  C   UNL     1       0.938  15.970  20.477  0.00  0.00    +0.000 C 
ATOM      5  C   UNL     1      -0.039  14.890  20.770  0.00  0.00    +0.000 C 
ATOM      6  C   UNL     1      -1.163  15.389  21.648  0.00  0.00    +0.000 C 
ATOM      7  C   UNL     1      -2.304  14.661  21.083  0.00  0.00    +0.000 C 
ATOM      8  C   UNL     1      -2.210  13.319  21.010  0.00  0.00    +0.000 C 
ATOM      9  C   UNL     1      -3.493  12.607  21.124  0.00  0.00    +0.000 C 
ATOM     10  C   UNL     1      -3.931  12.726  22.399  0.00  0.00    +0.000 C 
ATOM     11  C   UNL     1      -2.893  12.130  23.366  0.00  0.00    +0.000 C 
ATOM     12  C   UNL     1      -1.337  12.029  22.895  0.00  0.00    +0.000 C 
ATOM     13  C   UNL     1      -0.900  12.573  21.452  0.00  0.00    +0.000 C 
ATOM     14  C   UNL     1      -0.601  11.391  20.509  0.00  0.00    +0.000 C 
ATOM     15  C   UNL     1       0.470  13.608  21.446  0.00  0.00    +0.000 C 
ATOM     16  C   UNL     1       1.904  13.284  20.827  0.00  0.00    +0.000 C 
ATOM     17  C   UNL     1       2.839  14.585  20.389  0.00  0.00    +0.000 C 
ATOM     18  C   UNL     1       2.035  15.566  19.447  0.00  0.00    +0.000 C 
ATOM     19  C   UNL     1       1.784  14.671  18.213  0.00  0.00    +0.000 C 
ENDROOT
BRANCH   1  21
ATOM     20  C   UNL     1       0.852  18.261  16.984  0.00  0.00    +0.000 C 
ATOM     21  C   UNL     1       2.092  17.468  17.379  0.00  0.00    +0.000 C 
ATOM     22  O   UNL     1       2.981  17.312  16.525  0.00  0.00    +0.000 OA
ENDBRANCH   1  21
BRANCH   1  23
ATOM     23  O   UNL     1       3.766  17.369  19.136  0.00  0.00    +0.000 OA
ATOM     24  H   UNL     1       4.208  16.509  19.325  0.00  0.00    +0.000 HD
ENDBRANCH   1  23
BRANCH  10  25
ATOM     25  O   UNL     1      -4.459  13.998  22.701  0.00  0.00    +0.000 OA
BRANCH  25  26
ATOM     26  C   UNL     1      -5.358  14.292  23.775  0.00  0.00    +0.000 C 
ATOM     27  C   UNL     1      -6.211  15.493  23.339  0.00  0.00    +0.000 C 
ATOM     28  C   UNL     1      -7.687  15.098  23.372  0.00  0.00    +0.000 C 
ATOM     29  C   UNL     1      -7.717  13.590  23.520  0.00  0.00    +0.000 C 
ATOM     30  C   UNL     1      -6.360  13.173  24.068  0.00  0.00    +0.000 C 
ENDBRANCH  25  26
ENDBRANCH  10  25
TORSDOF 4
ENDMDL
MODEL 7
REMARK VINA RESULT:      -5.9      3.625      6.448
REMARK  Name = 
REMARK  7 active torsions:
REMARK  status: ('A' for Active; 'I' for Inactive)
REMARK    1  A    between atoms: C_1  and  C_2
REMARK    2  A    between atoms: C_2  and  C_4
REMARK    3  A    between atoms: C_4  and  O_5
REMARK    4  A    between atoms: C_14  and  O_15
REMARK    5  A    between atoms: O_15  and  C_16
REMARK    6  A    between atoms: C_23  and  C_24
REMARK    7  A    between atoms: C_28  and  C_29
REMARK                            x       y       z     vdW  Elec       q    Type
REMARK                         _______ _______ _______ _____ _____    ______ ____
ROOT
ATOM      1  C   UNL     1       0.433  11.888  20.247  0.00  0.00    +0.000 C 
ATOM      2  C   UNL     1       0.701  11.967  18.727  0.00  0.00    +0.000 C 
ATOM      3  C   UNL     1       1.604  10.792  18.492  0.00  0.00    +0.000 C 
ATOM      4  C   UNL     1       0.839   9.727  19.246  0.00  0.00    +0.000 C 
ATOM      5  C   UNL     1       1.544   8.421  19.303  0.00  0.00    +0.000 C 
ATOM      6  C   UNL     1       1.986   7.975  17.929  0.00  0.00    +0.000 C 
ATOM      7  C   UNL     1       3.281   7.358  18.236  0.00  0.00    +0.000 C 
ATOM      8  C   UNL     1       3.299   6.386  19.169  0.00  0.00    +0.000 C 
ATOM      9  C   UNL     1       4.343   5.367  18.971  0.00  0.00    +0.000 C 
ATOM     10  C   UNL     1       4.011   4.625  17.890  0.00  0.00    +0.000 C 
ATOM     11  C   UNL     1       2.640   3.962  18.112  0.00  0.00    +0.000 C 
ATOM     12  C   UNL     1       1.597   4.630  19.169  0.00  0.00    +0.000 C 
ATOM     13  C   UNL     1       1.993   5.979  19.941  0.00  0.00    +0.000 C 
ATOM     14  C   UNL     1       2.307   5.670  21.418  0.00  0.00    +0.000 C 
ATOM     15  C   UNL     1       0.805   7.217  19.905  0.00  0.00    +0.000 C 
ATOM     16  C   UNL     1      -0.046   7.755  21.144  0.00  0.00    +0.000 C 
ATOM     17  C   UNL     1      -0.646   9.299  21.022  0.00  0.00    +0.000 C 
ATOM     18  C   UNL     1       0.497  10.321  20.646  0.00  0.00    +0.000 C 
ATOM     19  C   UNL     1       1.418  10.221  21.883  0.00  0.00    +0.000 C 
ENDROOT
BRANCH   1  21
ATOM     20  C   UNL     1       2.705  13.399  19.985  0.00  0.00    +0.000 C 
ATOM     21  C   UNL     1       1.494  12.945  20.792  0.00  0.00    +0.000 C 
ATOM     22  O   UNL     1       1.227  13.558  21.840  0.00  0.00    +0.000 OA
ENDBRANCH   1  21
BRANCH   1  23
ATOM     23  O   UNL     1      -0.861  12.436  20.483  0.00  0.00    +0.000 OA
ATOM     24  H   UNL     1      -1.401  11.681  20.814  0.00  0.00    +0.000 HD
ENDBRANCH   1  23
BRANCH  10  25
ATOM     25  O   UNL     1       4.234   5.282  16.661  0.00  0.00    +0.000 OA
BRANCH  25  26
ATOM     26  C   UNL     1       5.499   5.417  16.009  0.00  0.00    +0.000 C 
ATOM     27  C   UNL     1       6.156   6.696  16.551  0.00  0.00    +0.000 C 
ATOM     28  C   UNL     1       7.504   6.339  17.179  0.00  0.00    +0.000 C 
ATOM     29  C   UNL     1       7.525   4.829  17.302  0.00  0.00    +0.000 C 
ATOM     30  C   UNL     1       6.485   4.292  16.329  0.00  0.00    +0.000 C 
ENDBRANCH  25  26
ENDBRANCH  10  25
TORSDOF 4
ENDMDL
MODEL 8
REMARK VINA RESULT:      -5.9      7.239      8.894
REMARK  Name = 
REMARK  7 active torsions:
REMARK  status: ('A' for Active; 'I' for Inactive)
REMARK    1  A    between atoms: C_1  and  C_2
REMARK    2  A    between atoms: C_2  and  C_4
REMARK    3  A    between atoms: C_4  and  O_5
REMARK    4  A    between atoms: C_14  and  O_15
REMARK    5  A    between atoms: O_15  and  C_16
REMARK    6  A    between atoms: C_23  and  C_24
REMARK    7  A    between atoms: C_28  and  C_29
REMARK                            x       y       z     vdW  Elec       q    Type
REMARK                         _______ _______ _______ _____ _____    ______ ____
ROOT
ATOM      1  C   UNL     1       2.479  15.896  20.660  0.00  0.00    +0.000 C 
ATOM      2  C   UNL     1       2.806  14.712  21.599  0.00  0.00    +0.000 C 
ATOM      3  C   UNL     1       4.199  14.343  21.185  0.00  0.00    +0.000 C 
ATOM      4  C   UNL     1       4.834  15.716  21.166  0.00  0.00    +0.000 C 
ATOM      5  C   UNL     1       6.235  15.714  20.672  0.00  0.00    +0.000 C 
ATOM      6  C   UNL     1       7.070  14.683  21.396  0.00  0.00    +0.000 C 
ATOM      7  C   UNL     1       7.925  14.198  20.307  0.00  0.00    +0.000 C 
ATOM      8  C   UNL     1       8.640  15.115  19.625  0.00  0.00    +0.000 C 
ATOM      9  C   UNL     1       9.916  14.618  19.086  0.00  0.00    +0.000 C 
ATOM     10  C   UNL     1      10.761  14.409  20.121  0.00  0.00    +0.000 C 
ATOM     11  C   UNL     1      10.973  15.721  20.896  0.00  0.00    +0.000 C 
ATOM     12  C   UNL     1       9.840  16.887  20.807  0.00  0.00    +0.000 C 
ATOM     13  C   UNL     1       8.509  16.647  19.945  0.00  0.00    +0.000 C 
ATOM     14  C   UNL     1       8.560  17.481  18.650  0.00  0.00    +0.000 C 
ATOM     15  C   UNL     1       7.040  17.019  20.751  0.00  0.00    +0.000 C 
ATOM     16  C   UNL     1       6.039  18.212  20.401  0.00  0.00    +0.000 C 
ATOM     17  C   UNL     1       4.457  18.020  20.867  0.00  0.00    +0.000 C 
ATOM     18  C   UNL     1       3.881  16.642  20.353  0.00  0.00    +0.000 C 
ATOM     19  C   UNL     1       3.949  16.833  18.820  0.00  0.00    +0.000 C 
ENDROOT
BRANCH   1  21
ATOM     20  C   UNL     1       1.680  13.642  19.321  0.00  0.00    +0.000 C 
ATOM     21  C   UNL     1       1.647  15.152  19.522  0.00  0.00    +0.000 C 
ATOM     22  O   UNL     1       0.800  15.806  18.890  0.00  0.00    +0.000 OA
ENDBRANCH   1  21
BRANCH   1  23
ATOM     23  O   UNL     1       1.570  16.750  21.350  0.00  0.00    +0.000 OA
ATOM     24  H   UNL     1       0.795  16.836  20.748  0.00  0.00    +0.000 HD
ENDBRANCH   1  23
BRANCH  10  25
ATOM     25  O   UNL     1      10.471  13.245  20.864  0.00  0.00    +0.000 OA
BRANCH  25  26
ATOM     26  C   UNL     1      10.845  11.913  20.503  0.00  0.00    +0.000 C 
ATOM     27  C   UNL     1       9.576  11.049  20.576  0.00  0.00    +0.000 C 
ATOM     28  C   UNL     1       9.324  10.413  19.209  0.00  0.00    +0.000 C 
ATOM     29  C   UNL     1      10.239  11.128  18.236  0.00  0.00    +0.000 C 
ATOM     30  C   UNL     1      11.340  11.778  19.062  0.00  0.00    +0.000 C 
ENDBRANCH  25  26
ENDBRANCH  10  25
TORSDOF 4
ENDMDL
MODEL 9
REMARK VINA RESULT:      -5.9      1.482      2.250
REMARK  Name = 
REMARK  7 active torsions:
REMARK  status: ('A' for Active; 'I' for Inactive)
REMARK    1  A    between atoms: C_1  and  C_2
REMARK    2  A    between atoms: C_2  and  C_4
REMARK    3  A    between atoms: C_4  and  O_5
REMARK    4  A    between atoms: C_14  and  O_15
REMARK    5  A    between atoms: O_15  and  C_16
REMARK    6  A    between atoms: C_23  and  C_24
REMARK    7  A    between atoms: C_28  and  C_29
REMARK                            x       y       z     vdW  Elec       q    Type
REMARK                         _______ _______ _______ _____ _____    ______ ____
ROOT
ATOM      1  C   UNL     1      -4.754  14.729  23.688  0.00  0.00    +0.000 C 
ATOM      2  C   UNL     1      -4.246  13.380  24.246  0.00  0.00    +0.000 C 
ATOM      3  C   UNL     1      -3.360  12.883  23.142  0.00  0.00    +0.000 C 
ATOM      4  C   UNL     1      -2.559  14.137  22.873  0.00  0.00    +0.000 C 
ATOM      5  C   UNL     1      -1.632  14.010  21.719  0.00  0.00    +0.000 C 
ATOM      6  C   UNL     1      -0.775  12.771  21.836  0.00  0.00    +0.000 C 
ATOM      7  C   UNL     1      -0.706  12.343  20.435  0.00  0.00    +0.000 C 
ATOM      8  C   UNL     1      -0.263  13.242  19.533  0.00  0.00    +0.000 C 
ATOM      9  C   UNL     1       0.435  12.657  18.377  0.00  0.00    +0.000 C 
ATOM     10  C   UNL     1       1.624  12.172  18.802  0.00  0.00    +0.000 C 
ATOM     11  C   UNL     1       2.459  13.304  19.424  0.00  0.00    +0.000 C 
ATOM     12  C   UNL     1       1.700  14.620  20.010  0.00  0.00    +0.000 C 
ATOM     13  C   UNL     1       0.099  14.709  19.962  0.00  0.00    +0.000 C 
ATOM     14  C   UNL     1      -0.342  15.717  18.882  0.00  0.00    +0.000 C 
ATOM     15  C   UNL     1      -0.652  15.159  21.438  0.00  0.00    +0.000 C 
ATOM     16  C   UNL     1      -1.426  16.523  21.735  0.00  0.00    +0.000 C 
ATOM     17  C   UNL     1      -2.559  16.489  22.949  0.00  0.00    +0.000 C 
ATOM     18  C   UNL     1      -3.581  15.305  22.735  0.00  0.00    +0.000 C 
ATOM     19  C   UNL     1      -4.258  15.719  21.408  0.00  0.00    +0.000 C 
ENDROOT
BRANCH   1  21
ATOM     20  C   UNL     1      -6.453  12.917  22.529  0.00  0.00    +0.000 C 
ATOM     21  C   UNL     1      -6.177  14.297  23.114  0.00  0.00    +0.000 C 
ATOM     22  O   UNL     1      -7.145  15.050  23.316  0.00  0.00    +0.000 OA
ENDBRANCH   1  21
BRANCH   1  23
ATOM     23  O   UNL     1      -4.996  15.587  24.799  0.00  0.00    +0.000 OA
ATOM     24  H   UNL     1      -4.191  16.152  24.865  0.00  0.00    +0.000 HD
ENDBRANCH   1  23
BRANCH  10  25
ATOM     25  O   UNL     1       1.519  10.961  19.519  0.00  0.00    +0.000 OA
BRANCH  25  26
ATOM     26  C   UNL     1       1.004   9.731  19.002  0.00  0.00    +0.000 C 
ATOM     27  C   UNL     1       1.901   9.321  17.823  0.00  0.00    +0.000 C 
ATOM     28  C   UNL     1       2.497   7.941  18.103  0.00  0.00    +0.000 C 
ATOM     29  C   UNL     1       2.222   7.652  19.565  0.00  0.00    +0.000 C 
ATOM     30  C   UNL     1       1.080   8.564  19.989  0.00  0.00    +0.000 C 
ENDBRANCH  25  26
ENDBRANCH  10  25
TORSDOF 4
ENDMDL
