MODEL 1
REMARK VINA RESULT:      -6.7      0.000      0.000
REMARK  Name = 
REMARK  18 active torsions:
REMARK  status: ('A' for Active; 'I' for Inactive)
REMARK    1  A    between atoms: C_1  and  C_2
REMARK    2  A    between atoms: C_2  and  C_3
REMARK    3  A    between atoms: C_3  and  C_4
REMARK    4  A    between atoms: C_4  and  C_5
REMARK    5  A    between atoms: C_5  and  C_6
REMARK    6  A    between atoms: C_6  and  C_7
REMARK    7  A    between atoms: C_7  and  C_8
REMARK    8  A    between atoms: C_8  and  C_9
REMARK    9  A    between atoms: C_9  and  C_10
REMARK   10  A    between atoms: C_10  and  C_11
REMARK   11  A    between atoms: C_11  and  C_12
REMARK   12  A    between atoms: C_12  and  C_13
REMARK   13  A    between atoms: C_13  and  C_14
REMARK   14  A    between atoms: C_14  and  C_15
REMARK   15  A    between atoms: C_15  and  C_16
REMARK   16  A    between atoms: C_16  and  O_18
REMARK   17  A    between atoms: O_18  and  C_19
REMARK   18  A    between atoms: C_25  and  N_26
REMARK                            x       y       z     vdW  Elec       q    Type
REMARK                         _______ _______ _______ _____ _____    ______ ____
ROOT
ATOM      1  C   UNL     1       1.897   6.802  19.982  0.00  0.00    +0.000 C 
ATOM      2  O   UNL     1       2.086   5.957  20.848  0.00  0.00    +0.000 OA
ENDROOT
BRANCH   1   3
ATOM      3  O   UNL     1       1.879   6.549  18.606  0.00  0.00    +0.000 OA
BRANCH   3   4
ATOM      4  C   UNL     1       2.237   5.236  18.219  0.00  0.00    +0.000 A 
ATOM      5  C   UNL     1       1.450   4.168  18.649  0.00  0.00    +0.000 A 
ATOM      6  C   UNL     1       1.807   2.860  18.298  0.00  0.00    +0.000 A 
ATOM      7  C   UNL     1       2.952   2.618  17.528  0.00  0.00    +0.000 A 
ATOM      8  C   UNL     1       3.765   3.683  17.126  0.00  0.00    +0.000 A 
ATOM      9  C   UNL     1       4.974   3.498  16.332  0.00  0.00    +0.000 A 
ATOM     10  C   UNL     1       5.650   4.574  15.910  0.00  0.00    +0.000 A 
ATOM     11  C   UNL     1       5.261   5.956  16.211  0.00  0.00    +0.000 A 
ATOM     12  O   UNL     1       5.778   6.950  15.718  0.00  0.00    +0.000 OA
ATOM     13  O   UNL     1       4.245   6.058  17.150  0.00  0.00    +0.000 OA
ATOM     14  C   UNL     1       3.410   4.976  17.501  0.00  0.00    +0.000 A 
BRANCH  10  15
ATOM     15  N   UNL     1       6.865   4.376  15.176  0.00  0.00    +0.000 N 
ATOM     16  O   UNL     1       6.786   4.211  13.961  0.00  0.00    +0.000 OA
ATOM     17  O   UNL     1       7.938   4.460  15.814  0.00  0.00    +0.000 OA
ENDBRANCH  10  15
ENDBRANCH   3   4
ENDBRANCH   1   3
BRANCH   1  18
ATOM     18  C   UNL     1       1.572   8.260  20.239  0.00  0.00    +0.000 C 
BRANCH  18  19
ATOM     19  C   UNL     1       1.039   8.413  21.659  0.00  0.00    +0.000 C 
BRANCH  19  20
ATOM     20  C   UNL     1      -0.332   9.069  21.714  0.00  0.00    +0.000 C 
BRANCH  20  21
ATOM     21  C   UNL     1      -0.503   9.799  23.044  0.00  0.00    +0.000 C 
BRANCH  21  22
ATOM     22  C   UNL     1      -0.863  11.256  22.807  0.00  0.00    +0.000 C 
BRANCH  22  23
ATOM     23  C   UNL     1      -0.083  11.812  21.626  0.00  0.00    +0.000 C 
BRANCH  23  24
ATOM     24  C   UNL     1      -0.968  12.735  20.806  0.00  0.00    +0.000 C 
BRANCH  24  25
ATOM     25  C   UNL     1      -1.933  11.921  19.962  0.00  0.00    +0.000 C 
BRANCH  25  26
ATOM     26  C   UNL     1      -1.383  11.756  18.557  0.00  0.00    +0.000 C 
BRANCH  26  27
ATOM     27  C   UNL     1      -1.283  10.281  18.208  0.00  0.00    +0.000 C 
BRANCH  27  28
ATOM     28  C   UNL     1      -2.435   9.880  17.301  0.00  0.00    +0.000 C 
BRANCH  28  29
ATOM     29  C   UNL     1      -2.861  11.061  16.443  0.00  0.00    +0.000 C 
BRANCH  29  30
ATOM     30  C   UNL     1      -4.376  11.199  16.451  0.00  0.00    +0.000 C 
BRANCH  30  32
ATOM     31  C   UNL     1      -5.487  12.232  18.435  0.00  0.00    +0.000 C 
ATOM     32  C   UNL     1      -4.931  10.950  17.846  0.00  0.00    +0.000 C 
ENDBRANCH  30  32
ENDBRANCH  29  30
ENDBRANCH  28  29
ENDBRANCH  27  28
ENDBRANCH  26  27
ENDBRANCH  25  26
ENDBRANCH  24  25
ENDBRANCH  23  24
ENDBRANCH  22  23
ENDBRANCH  21  22
ENDBRANCH  20  21
ENDBRANCH  19  20
ENDBRANCH  18  19
ENDBRANCH   1  18
TORSDOF 17
ENDMDL
MODEL 2
REMARK VINA RESULT:      -6.6      1.297      2.083
REMARK  Name = 
REMARK  18 active torsions:
REMARK  status: ('A' for Active; 'I' for Inactive)
REMARK    1  A    between atoms: C_1  and  C_2
REMARK    2  A    between atoms: C_2  and  C_3
REMARK    3  A    between atoms: C_3  and  C_4
REMARK    4  A    between atoms: C_4  and  C_5
REMARK    5  A    between atoms: C_5  and  C_6
REMARK    6  A    between atoms: C_6  and  C_7
REMARK    7  A    between atoms: C_7  and  C_8
REMARK    8  A    between atoms: C_8  and  C_9
REMARK    9  A    between atoms: C_9  and  C_10
REMARK   10  A    between atoms: C_10  and  C_11
REMARK   11  A    between atoms: C_11  and  C_12
REMARK   12  A    between atoms: C_12  and  C_13
REMARK   13  A    between atoms: C_13  and  C_14
REMARK   14  A    between atoms: C_14  and  C_15
REMARK   15  A    between atoms: C_15  and  C_16
REMARK   16  A    between atoms: C_16  and  O_18
REMARK   17  A    between atoms: O_18  and  C_19
REMARK   18  A    between atoms: C_25  and  N_26
REMARK                            x       y       z     vdW  Elec       q    Type
REMARK                         _______ _______ _______ _____ _____    ______ ____
ROOT
ATOM      1  C   UNL     1       2.030   8.626  18.318  0.00  0.00    +0.000 C 
ATOM      2  O   UNL     1       2.597   9.129  17.355  0.00  0.00    +0.000 OA
ENDROOT
BRANCH   1   3
ATOM      3  O   UNL     1       2.551   7.595  19.106  0.00  0.00    +0.000 OA
BRANCH   3   4
ATOM      4  C   UNL     1       2.573   6.315  18.506  0.00  0.00    +0.000 A 
ATOM      5  C   UNL     1       1.459   5.487  18.642  0.00  0.00    +0.000 A 
ATOM      6  C   UNL     1       1.475   4.206  18.077  0.00  0.00    +0.000 A 
ATOM      7  C   UNL     1       2.606   3.747  17.387  0.00  0.00    +0.000 A 
ATOM      8  C   UNL     1       3.740   4.560  17.280  0.00  0.00    +0.000 A 
ATOM      9  C   UNL     1       4.950   4.139  16.585  0.00  0.00    +0.000 A 
ATOM     10  C   UNL     1       5.960   5.007  16.447  0.00  0.00    +0.000 A 
ATOM     11  C   UNL     1       5.941   6.375  16.975  0.00  0.00    +0.000 A 
ATOM     12  O   UNL     1       6.789   7.227  16.737  0.00  0.00    +0.000 OA
ATOM     13  O   UNL     1       4.869   6.635  17.815  0.00  0.00    +0.000 OA
ATOM     14  C   UNL     1       3.717   5.822  17.866  0.00  0.00    +0.000 A 
BRANCH  10  15
ATOM     15  N   UNL     1       7.163   4.562  15.808  0.00  0.00    +0.000 N 
ATOM     16  O   UNL     1       7.204   4.574  14.580  0.00  0.00    +0.000 OA
ATOM     17  O   UNL     1       8.126   4.262  16.548  0.00  0.00    +0.000 OA
ENDBRANCH  10  15
ENDBRANCH   3   4
ENDBRANCH   1   3
BRANCH   1  18
ATOM     18  C   UNL     1       0.695   9.076  18.880  0.00  0.00    +0.000 C 
BRANCH  18  19
ATOM     19  C   UNL     1       0.884  10.389  19.631  0.00  0.00    +0.000 C 
BRANCH  19  20
ATOM     20  C   UNL     1       1.051  10.199  21.131  0.00  0.00    +0.000 C 
BRANCH  20  21
ATOM     21  C   UNL     1       0.022   9.193  21.642  0.00  0.00    +0.000 C 
BRANCH  21  22
ATOM     22  C   UNL     1      -0.724   9.758  22.838  0.00  0.00    +0.000 C 
BRANCH  22  23
ATOM     23  C   UNL     1      -0.721  11.279  22.799  0.00  0.00    +0.000 C 
BRANCH  23  24
ATOM     24  C   UNL     1      -2.130  11.807  23.003  0.00  0.00    +0.000 C 
BRANCH  24  25
ATOM     25  C   UNL     1      -2.344  13.063  22.177  0.00  0.00    +0.000 C 
BRANCH  25  26
ATOM     26  C   UNL     1      -1.376  13.087  21.008  0.00  0.00    +0.000 C 
BRANCH  26  27
ATOM     27  C   UNL     1      -2.144  13.156  19.700  0.00  0.00    +0.000 C 
BRANCH  27  28
ATOM     28  C   UNL     1      -2.381  11.755  19.159  0.00  0.00    +0.000 C 
BRANCH  28  29
ATOM     29  C   UNL     1      -3.784  11.645  18.585  0.00  0.00    +0.000 C 
BRANCH  29  30
ATOM     30  C   UNL     1      -3.874  10.461  17.634  0.00  0.00    +0.000 C 
BRANCH  30  32
ATOM     31  C   UNL     1      -2.785  10.411  15.387  0.00  0.00    +0.000 C 
ATOM     32  C   UNL     1      -3.959  10.935  16.190  0.00  0.00    +0.000 C 
ENDBRANCH  30  32
ENDBRANCH  29  30
ENDBRANCH  28  29
ENDBRANCH  27  28
ENDBRANCH  26  27
ENDBRANCH  25  26
ENDBRANCH  24  25
ENDBRANCH  23  24
ENDBRANCH  22  23
ENDBRANCH  21  22
ENDBRANCH  20  21
ENDBRANCH  19  20
ENDBRANCH  18  19
ENDBRANCH   1  18
TORSDOF 17
ENDMDL
MODEL 3
REMARK VINA RESULT:      -6.6      6.544      9.388
REMARK  Name = 
REMARK  18 active torsions:
REMARK  status: ('A' for Active; 'I' for Inactive)
REMARK    1  A    between atoms: C_1  and  C_2
REMARK    2  A    between atoms: C_2  and  C_3
REMARK    3  A    between atoms: C_3  and  C_4
REMARK    4  A    between atoms: C_4  and  C_5
REMARK    5  A    between atoms: C_5  and  C_6
REMARK    6  A    between atoms: C_6  and  C_7
REMARK    7  A    between atoms: C_7  and  C_8
REMARK    8  A    between atoms: C_8  and  C_9
REMARK    9  A    between atoms: C_9  and  C_10
REMARK   10  A    between atoms: C_10  and  C_11
REMARK   11  A    between atoms: C_11  and  C_12
REMARK   12  A    between atoms: C_12  and  C_13
REMARK   13  A    between atoms: C_13  and  C_14
REMARK   14  A    between atoms: C_14  and  C_15
REMARK   15  A    between atoms: C_15  and  C_16
REMARK   16  A    between atoms: C_16  and  O_18
REMARK   17  A    between atoms: O_18  and  C_19
REMARK   18  A    between atoms: C_25  and  N_26
REMARK                            x       y       z     vdW  Elec       q    Type
REMARK                         _______ _______ _______ _____ _____    ______ ____
ROOT
ATOM      1  C   UNL     1       7.687   7.635  17.778  0.00  0.00    +0.000 C 
ATOM      2  O   UNL     1       8.132   6.747  18.494  0.00  0.00    +0.000 OA
ENDROOT
BRANCH   1   3
ATOM      3  O   UNL     1       6.609   7.491  16.898  0.00  0.00    +0.000 OA
BRANCH   3   4
ATOM      4  C   UNL     1       6.319   6.166  16.496  0.00  0.00    +0.000 A 
ATOM      5  C   UNL     1       7.028   5.615  15.429  0.00  0.00    +0.000 A 
ATOM      6  C   UNL     1       6.734   4.314  15.001  0.00  0.00    +0.000 A 
ATOM      7  C   UNL     1       5.726   3.570  15.629  0.00  0.00    +0.000 A 
ATOM      8  C   UNL     1       4.987   4.133  16.675  0.00  0.00    +0.000 A 
ATOM      9  C   UNL     1       3.920   3.416  17.362  0.00  0.00    +0.000 A 
ATOM     10  C   UNL     1       3.319   3.988  18.413  0.00  0.00    +0.000 A 
ATOM     11  C   UNL     1       3.654   5.323  18.920  0.00  0.00    +0.000 A 
ATOM     12  O   UNL     1       3.221   5.804  19.960  0.00  0.00    +0.000 OA
ATOM     13  O   UNL     1       4.506   6.038  18.092  0.00  0.00    +0.000 OA
ATOM     14  C   UNL     1       5.275   5.434  17.075  0.00  0.00    +0.000 A 
BRANCH  10  15
ATOM     15  N   UNL     1       2.237   3.294  19.046  0.00  0.00    +0.000 N 
ATOM     16  O   UNL     1       1.094   3.692  18.835  0.00  0.00    +0.000 OA
ATOM     17  O   UNL     1       2.523   2.275  19.713  0.00  0.00    +0.000 OA
ENDBRANCH  10  15
ENDBRANCH   3   4
ENDBRANCH   1   3
BRANCH   1  18
ATOM     18  C   UNL     1       8.170   9.073  17.765  0.00  0.00    +0.000 C 
BRANCH  18  19
ATOM     19  C   UNL     1       8.947   9.352  19.047  0.00  0.00    +0.000 C 
BRANCH  19  20
ATOM     20  C   UNL     1       9.382  10.804  19.175  0.00  0.00    +0.000 C 
BRANCH  20  21
ATOM     21  C   UNL     1       9.795  11.343  17.808  0.00  0.00    +0.000 C 
BRANCH  21  22
ATOM     22  C   UNL     1      11.152  12.020  17.892  0.00  0.00    +0.000 C 
BRANCH  22  23
ATOM     23  C   UNL     1      11.774  11.798  19.262  0.00  0.00    +0.000 C 
BRANCH  23  24
ATOM     24  C   UNL     1      12.312  13.110  19.807  0.00  0.00    +0.000 C 
BRANCH  24  25
ATOM     25  C   UNL     1      11.967  14.250  18.864  0.00  0.00    +0.000 C 
BRANCH  25  26
ATOM     26  C   UNL     1      11.597  15.489  19.660  0.00  0.00    +0.000 C 
BRANCH  26  27
ATOM     27  C   UNL     1      10.197  15.945  19.289  0.00  0.00    +0.000 C 
BRANCH  27  28
ATOM     28  C   UNL     1       9.546  16.648  20.469  0.00  0.00    +0.000 C 
BRANCH  28  29
ATOM     29  C   UNL     1       8.211  15.998  20.795  0.00  0.00    +0.000 C 
BRANCH  29  30
ATOM     30  C   UNL     1       8.324  14.484  20.698  0.00  0.00    +0.000 C 
BRANCH  30  32
ATOM     31  C   UNL     1       9.431  12.699  22.049  0.00  0.00    +0.000 C 
ATOM     32  C   UNL     1       8.462  13.865  22.081  0.00  0.00    +0.000 C 
ENDBRANCH  30  32
ENDBRANCH  29  30
ENDBRANCH  28  29
ENDBRANCH  27  28
ENDBRANCH  26  27
ENDBRANCH  25  26
ENDBRANCH  24  25
ENDBRANCH  23  24
ENDBRANCH  22  23
ENDBRANCH  21  22
ENDBRANCH  20  21
ENDBRANCH  19  20
ENDBRANCH  18  19
ENDBRANCH   1  18
TORSDOF 17
ENDMDL
MODEL 4
REMARK VINA RESULT:      -6.6      1.591      2.701
REMARK  Name = 
REMARK  18 active torsions:
REMARK  status: ('A' for Active; 'I' for Inactive)
REMARK    1  A    between atoms: C_1  and  C_2
REMARK    2  A    between atoms: C_2  and  C_3
REMARK    3  A    between atoms: C_3  and  C_4
REMARK    4  A    between atoms: C_4  and  C_5
REMARK    5  A    between atoms: C_5  and  C_6
REMARK    6  A    between atoms: C_6  and  C_7
REMARK    7  A    between atoms: C_7  and  C_8
REMARK    8  A    between atoms: C_8  and  C_9
REMARK    9  A    between atoms: C_9  and  C_10
REMARK   10  A    between atoms: C_10  and  C_11
REMARK   11  A    between atoms: C_11  and  C_12
REMARK   12  A    between atoms: C_12  and  C_13
REMARK   13  A    between atoms: C_13  and  C_14
REMARK   14  A    between atoms: C_14  and  C_15
REMARK   15  A    between atoms: C_15  and  C_16
REMARK   16  A    between atoms: C_16  and  O_18
REMARK   17  A    between atoms: O_18  and  C_19
REMARK   18  A    between atoms: C_25  and  N_26
REMARK                            x       y       z     vdW  Elec       q    Type
REMARK                         _______ _______ _______ _____ _____    ______ ____
ROOT
ATOM      1  C   UNL     1       2.100   8.623  18.227  0.00  0.00    +0.000 C 
ATOM      2  O   UNL     1       2.353   8.667  17.029  0.00  0.00    +0.000 OA
ENDROOT
BRANCH   1   3
ATOM      3  O   UNL     1       2.459   7.578  19.084  0.00  0.00    +0.000 OA
BRANCH   3   4
ATOM      4  C   UNL     1       2.555   6.300  18.487  0.00  0.00    +0.000 A 
ATOM      5  C   UNL     1       1.459   5.440  18.555  0.00  0.00    +0.000 A 
ATOM      6  C   UNL     1       1.547   4.160  17.992  0.00  0.00    +0.000 A 
ATOM      7  C   UNL     1       2.730   3.736  17.372  0.00  0.00    +0.000 A 
ATOM      8  C   UNL     1       3.844   4.581  17.334  0.00  0.00    +0.000 A 
ATOM      9  C   UNL     1       5.106   4.198  16.714  0.00  0.00    +0.000 A 
ATOM     10  C   UNL     1       6.097   5.095  16.637  0.00  0.00    +0.000 A 
ATOM     11  C   UNL     1       6.006   6.461  17.162  0.00  0.00    +0.000 A 
ATOM     12  O   UNL     1       6.841   7.337  16.976  0.00  0.00    +0.000 OA
ATOM     13  O   UNL     1       4.878   6.688  17.936  0.00  0.00    +0.000 OA
ATOM     14  C   UNL     1       3.749   5.842  17.917  0.00  0.00    +0.000 A 
BRANCH  10  15
ATOM     15  N   UNL     1       7.349   4.686  16.072  0.00  0.00    +0.000 N 
ATOM     16  O   UNL     1       7.544   4.907  14.879  0.00  0.00    +0.000 OA
ATOM     17  O   UNL     1       8.197   4.199  16.853  0.00  0.00    +0.000 OA
ENDBRANCH  10  15
ENDBRANCH   3   4
ENDBRANCH   1   3
BRANCH   1  18
ATOM     18  C   UNL     1       1.419   9.723  19.018  0.00  0.00    +0.000 C 
BRANCH  18  19
ATOM     19  C   UNL     1      -0.075   9.710  18.713  0.00  0.00    +0.000 C 
BRANCH  19  20
ATOM     20  C   UNL     1      -0.910  10.376  19.796  0.00  0.00    +0.000 C 
BRANCH  20  21
ATOM     21  C   UNL     1      -0.524  11.849  19.914  0.00  0.00    +0.000 C 
BRANCH  21  22
ATOM     22  C   UNL     1      -1.741  12.734  19.709  0.00  0.00    +0.000 C 
BRANCH  22  23
ATOM     23  C   UNL     1      -2.786  12.458  20.778  0.00  0.00    +0.000 C 
BRANCH  23  24
ATOM     24  C   UNL     1      -3.880  13.511  20.721  0.00  0.00    +0.000 C 
BRANCH  24  25
ATOM     25  C   UNL     1      -5.238  12.849  20.572  0.00  0.00    +0.000 C 
BRANCH  25  26
ATOM     26  C   UNL     1      -5.812  13.143  19.198  0.00  0.00    +0.000 C 
BRANCH  26  27
ATOM     27  C   UNL     1      -6.718  12.005  18.760  0.00  0.00    +0.000 C 
BRANCH  27  28
ATOM     28  C   UNL     1      -5.893  10.894  18.131  0.00  0.00    +0.000 C 
BRANCH  28  29
ATOM     29  C   UNL     1      -4.737  11.484  17.339  0.00  0.00    +0.000 C 
BRANCH  29  30
ATOM     30  C   UNL     1      -3.588  10.490  17.264  0.00  0.00    +0.000 C 
BRANCH  30  32
ATOM     31  C   UNL     1      -2.999  10.149  14.860  0.00  0.00    +0.000 C 
ATOM     32  C   UNL     1      -2.626  10.863  16.144  0.00  0.00    +0.000 C 
ENDBRANCH  30  32
ENDBRANCH  29  30
ENDBRANCH  28  29
ENDBRANCH  27  28
ENDBRANCH  26  27
ENDBRANCH  25  26
ENDBRANCH  24  25
ENDBRANCH  23  24
ENDBRANCH  22  23
ENDBRANCH  21  22
ENDBRANCH  20  21
ENDBRANCH  19  20
ENDBRANCH  18  19
ENDBRANCH   1  18
TORSDOF 17
ENDMDL
MODEL 5
REMARK VINA RESULT:      -6.5      3.017      4.236
REMARK  Name = 
REMARK  18 active torsions:
REMARK  status: ('A' for Active; 'I' for Inactive)
REMARK    1  A    between atoms: C_1  and  C_2
REMARK    2  A    between atoms: C_2  and  C_3
REMARK    3  A    between atoms: C_3  and  C_4
REMARK    4  A    between atoms: C_4  and  C_5
REMARK    5  A    between atoms: C_5  and  C_6
REMARK    6  A    between atoms: C_6  and  C_7
REMARK    7  A    between atoms: C_7  and  C_8
REMARK    8  A    between atoms: C_8  and  C_9
REMARK    9  A    between atoms: C_9  and  C_10
REMARK   10  A    between atoms: C_10  and  C_11
REMARK   11  A    between atoms: C_11  and  C_12
REMARK   12  A    between atoms: C_12  and  C_13
REMARK   13  A    between atoms: C_13  and  C_14
REMARK   14  A    between atoms: C_14  and  C_15
REMARK   15  A    between atoms: C_15  and  C_16
REMARK   16  A    between atoms: C_16  and  O_18
REMARK   17  A    between atoms: O_18  and  C_19
REMARK   18  A    between atoms: C_25  and  N_26
REMARK                            x       y       z     vdW  Elec       q    Type
REMARK                         _______ _______ _______ _____ _____    ______ ____
ROOT
ATOM      1  C   UNL     1       2.007   8.400  18.405  0.00  0.00    +0.000 C 
ATOM      2  O   UNL     1       2.304   8.535  17.223  0.00  0.00    +0.000 OA
ENDROOT
BRANCH   1   3
ATOM      3  O   UNL     1       2.341   7.294  19.193  0.00  0.00    +0.000 OA
BRANCH   3   4
ATOM      4  C   UNL     1       2.501   6.072  18.500  0.00  0.00    +0.000 A 
ATOM      5  C   UNL     1       1.443   5.162  18.484  0.00  0.00    +0.000 A 
ATOM      6  C   UNL     1       1.595   3.936  17.825  0.00  0.00    +0.000 A 
ATOM      7  C   UNL     1       2.803   3.613  17.193  0.00  0.00    +0.000 A 
ATOM      8  C   UNL     1       3.879   4.506  17.238  0.00  0.00    +0.000 A 
ATOM      9  C   UNL     1       5.164   4.227  16.609  0.00  0.00    +0.000 A 
ATOM     10  C   UNL     1       6.115   5.169  16.617  0.00  0.00    +0.000 A 
ATOM     11  C   UNL     1       5.957   6.485  17.245  0.00  0.00    +0.000 A 
ATOM     12  O   UNL     1       6.755   7.409  17.140  0.00  0.00    +0.000 OA
ATOM     13  O   UNL     1       4.811   6.602  18.016  0.00  0.00    +0.000 OA
ATOM     14  C   UNL     1       3.721   5.712  17.915  0.00  0.00    +0.000 A 
BRANCH  10  15
ATOM     15  N   UNL     1       7.391   4.861  16.042  0.00  0.00    +0.000 N 
ATOM     16  O   UNL     1       8.179   4.195  16.708  0.00  0.00    +0.000 OA
ATOM     17  O   UNL     1       7.589   5.227  14.862  0.00  0.00    +0.000 OA
ENDBRANCH  10  15
ENDBRANCH   3   4
ENDBRANCH   1   3
BRANCH   1  18
ATOM     18  C   UNL     1       1.292   9.435  19.250  0.00  0.00    +0.000 C 
BRANCH  18  19
ATOM     19  C   UNL     1       0.209  10.105  18.413  0.00  0.00    +0.000 C 
BRANCH  19  20
ATOM     20  C   UNL     1      -1.021  10.486  19.223  0.00  0.00    +0.000 C 
BRANCH  20  21
ATOM     21  C   UNL     1      -1.561  11.831  18.742  0.00  0.00    +0.000 C 
BRANCH  21  22
ATOM     22  C   UNL     1      -0.455  12.646  18.094  0.00  0.00    +0.000 C 
BRANCH  22  23
ATOM     23  C   UNL     1      -0.315  13.995  18.782  0.00  0.00    +0.000 C 
BRANCH  23  24
ATOM     24  C   UNL     1       0.728  13.911  19.883  0.00  0.00    +0.000 C 
BRANCH  24  25
ATOM     25  C   UNL     1       2.031  13.361  19.330  0.00  0.00    +0.000 C 
BRANCH  25  26
ATOM     26  C   UNL     1       3.136  14.391  19.483  0.00  0.00    +0.000 C 
BRANCH  26  27
ATOM     27  C   UNL     1       3.919  14.509  18.186  0.00  0.00    +0.000 C 
BRANCH  27  28
ATOM     28  C   UNL     1       3.336  15.618  17.324  0.00  0.00    +0.000 C 
BRANCH  28  29
ATOM     29  C   UNL     1       2.880  16.776  18.198  0.00  0.00    +0.000 C 
BRANCH  29  30
ATOM     30  C   UNL     1       1.613  17.397  17.630  0.00  0.00    +0.000 C 
BRANCH  30  32
ATOM     31  C   UNL     1      -0.803  17.757  18.149  0.00  0.00    +0.000 C 
ATOM     32  C   UNL     1       0.591  17.637  18.732  0.00  0.00    +0.000 C 
ENDBRANCH  30  32
ENDBRANCH  29  30
ENDBRANCH  28  29
ENDBRANCH  27  28
ENDBRANCH  26  27
ENDBRANCH  25  26
ENDBRANCH  24  25
ENDBRANCH  23  24
ENDBRANCH  22  23
ENDBRANCH  21  22
ENDBRANCH  20  21
ENDBRANCH  19  20
ENDBRANCH  18  19
ENDBRANCH   1  18
TORSDOF 17
ENDMDL
MODEL 6
REMARK VINA RESULT:      -6.4      2.610      4.413
REMARK  Name = 
REMARK  18 active torsions:
REMARK  status: ('A' for Active; 'I' for Inactive)
REMARK    1  A    between atoms: C_1  and  C_2
REMARK    2  A    between atoms: C_2  and  C_3
REMARK    3  A    between atoms: C_3  and  C_4
REMARK    4  A    between atoms: C_4  and  C_5
REMARK    5  A    between atoms: C_5  and  C_6
REMARK    6  A    between atoms: C_6  and  C_7
REMARK    7  A    between atoms: C_7  and  C_8
REMARK    8  A    between atoms: C_8  and  C_9
REMARK    9  A    between atoms: C_9  and  C_10
REMARK   10  A    between atoms: C_10  and  C_11
REMARK   11  A    between atoms: C_11  and  C_12
REMARK   12  A    between atoms: C_12  and  C_13
REMARK   13  A    between atoms: C_13  and  C_14
REMARK   14  A    between atoms: C_14  and  C_15
REMARK   15  A    between atoms: C_15  and  C_16
REMARK   16  A    between atoms: C_16  and  O_18
REMARK   17  A    between atoms: O_18  and  C_19
REMARK   18  A    between atoms: C_25  and  N_26
REMARK                            x       y       z     vdW  Elec       q    Type
REMARK                         _______ _______ _______ _____ _____    ______ ____
ROOT
ATOM      1  C   UNL     1       0.875   9.281  22.441  0.00  0.00    +0.000 C 
ATOM      2  O   UNL     1       2.077   9.471  22.580  0.00  0.00    +0.000 OA
ENDROOT
BRANCH   1   3
ATOM      3  O   UNL     1       0.285   8.651  21.341  0.00  0.00    +0.000 OA
BRANCH   3   4
ATOM      4  C   UNL     1       1.100   8.533  20.191  0.00  0.00    +0.000 A 
ATOM      5  C   UNL     1       1.166   9.603  19.299  0.00  0.00    +0.000 A 
ATOM      6  C   UNL     1       1.947   9.492  18.142  0.00  0.00    +0.000 A 
ATOM      7  C   UNL     1       2.653   8.312  17.871  0.00  0.00    +0.000 A 
ATOM      8  C   UNL     1       2.560   7.223  18.744  0.00  0.00    +0.000 A 
ATOM      9  C   UNL     1       3.261   5.965  18.515  0.00  0.00    +0.000 A 
ATOM     10  C   UNL     1       3.196   5.002  19.442  0.00  0.00    +0.000 A 
ATOM     11  C   UNL     1       2.436   5.118  20.692  0.00  0.00    +0.000 A 
ATOM     12  O   UNL     1       2.479   4.313  21.613  0.00  0.00    +0.000 OA
ATOM     13  O   UNL     1       1.615   6.235  20.744  0.00  0.00    +0.000 OA
ATOM     14  C   UNL     1       1.763   7.340  19.879  0.00  0.00    +0.000 A 
BRANCH  10  15
ATOM     15  N   UNL     1       3.845   3.752  19.179  0.00  0.00    +0.000 N 
ATOM     16  O   UNL     1       3.175   2.843  18.696  0.00  0.00    +0.000 OA
ATOM     17  O   UNL     1       5.077   3.693  19.389  0.00  0.00    +0.000 OA
ENDBRANCH  10  15
ENDBRANCH   3   4
ENDBRANCH   1   3
BRANCH   1  18
ATOM     18  C   UNL     1      -0.189   9.623  23.467  0.00  0.00    +0.000 C 
BRANCH  18  19
ATOM     19  C   UNL     1      -1.223  10.544  22.829  0.00  0.00    +0.000 C 
BRANCH  19  20
ATOM     20  C   UNL     1      -0.708  11.958  22.611  0.00  0.00    +0.000 C 
BRANCH  20  21
ATOM     21  C   UNL     1      -1.884  12.930  22.538  0.00  0.00    +0.000 C 
BRANCH  21  22
ATOM     22  C   UNL     1      -2.913  12.444  21.532  0.00  0.00    +0.000 C 
BRANCH  22  23
ATOM     23  C   UNL     1      -3.365  13.588  20.637  0.00  0.00    +0.000 C 
BRANCH  23  24
ATOM     24  C   UNL     1      -4.873  13.748  20.721  0.00  0.00    +0.000 C 
BRANCH  24  25
ATOM     25  C   UNL     1      -5.496  12.517  21.357  0.00  0.00    +0.000 C 
BRANCH  25  26
ATOM     26  C   UNL     1      -6.453  11.857  20.382  0.00  0.00    +0.000 C 
BRANCH  26  27
ATOM     27  C   UNL     1      -6.308  12.484  19.007  0.00  0.00    +0.000 C 
BRANCH  27  28
ATOM     28  C   UNL     1      -6.225  11.400  17.944  0.00  0.00    +0.000 C 
BRANCH  28  29
ATOM     29  C   UNL     1      -5.092  11.702  16.976  0.00  0.00    +0.000 C 
BRANCH  29  30
ATOM     30  C   UNL     1      -3.748  11.512  17.662  0.00  0.00    +0.000 C 
BRANCH  30  32
ATOM     31  C   UNL     1      -1.886   9.917  17.182  0.00  0.00    +0.000 C 
ATOM     32  C   UNL     1      -3.329  10.049  17.628  0.00  0.00    +0.000 C 
ENDBRANCH  30  32
ENDBRANCH  29  30
ENDBRANCH  28  29
ENDBRANCH  27  28
ENDBRANCH  26  27
ENDBRANCH  25  26
ENDBRANCH  24  25
ENDBRANCH  23  24
ENDBRANCH  22  23
ENDBRANCH  21  22
ENDBRANCH  20  21
ENDBRANCH  19  20
ENDBRANCH  18  19
ENDBRANCH   1  18
TORSDOF 17
ENDMDL
MODEL 7
REMARK VINA RESULT:      -6.4      2.019      3.189
REMARK  Name = 
REMARK  18 active torsions:
REMARK  status: ('A' for Active; 'I' for Inactive)
REMARK    1  A    between atoms: C_1  and  C_2
REMARK    2  A    between atoms: C_2  and  C_3
REMARK    3  A    between atoms: C_3  and  C_4
REMARK    4  A    between atoms: C_4  and  C_5
REMARK    5  A    between atoms: C_5  and  C_6
REMARK    6  A    between atoms: C_6  and  C_7
REMARK    7  A    between atoms: C_7  and  C_8
REMARK    8  A    between atoms: C_8  and  C_9
REMARK    9  A    between atoms: C_9  and  C_10
REMARK   10  A    between atoms: C_10  and  C_11
REMARK   11  A    between atoms: C_11  and  C_12
REMARK   12  A    between atoms: C_12  and  C_13
REMARK   13  A    between atoms: C_13  and  C_14
REMARK   14  A    between atoms: C_14  and  C_15
REMARK   15  A    between atoms: C_15  and  C_16
REMARK   16  A    between atoms: C_16  and  O_18
REMARK   17  A    between atoms: O_18  and  C_19
REMARK   18  A    between atoms: C_25  and  N_26
REMARK                            x       y       z     vdW  Elec       q    Type
REMARK                         _______ _______ _______ _____ _____    ______ ____
ROOT
ATOM      1  C   UNL     1       1.969   7.422  20.021  0.00  0.00    +0.000 C 
ATOM      2  O   UNL     1       1.998   7.833  18.867  0.00  0.00    +0.000 OA
ENDROOT
BRANCH   1   3
ATOM      3  O   UNL     1       2.324   6.129  20.420  0.00  0.00    +0.000 OA
BRANCH   3   4
ATOM      4  C   UNL     1       2.413   5.170  19.384  0.00  0.00    +0.000 A 
ATOM      5  C   UNL     1       1.303   4.371  19.108  0.00  0.00    +0.000 A 
ATOM      6  C   UNL     1       1.383   3.398  18.104  0.00  0.00    +0.000 A 
ATOM      7  C   UNL     1       2.571   3.216  17.384  0.00  0.00    +0.000 A 
ATOM      8  C   UNL     1       3.698   3.990  17.681  0.00  0.00    +0.000 A 
ATOM      9  C   UNL     1       4.965   3.844  16.977  0.00  0.00    +0.000 A 
ATOM     10  C   UNL     1       5.970   4.683  17.257  0.00  0.00    +0.000 A 
ATOM     11  C   UNL     1       5.890   5.750  18.259  0.00  0.00    +0.000 A 
ATOM     12  O   UNL     1       6.741   6.614  18.428  0.00  0.00    +0.000 OA
ATOM     13  O   UNL     1       4.750   5.691  19.048  0.00  0.00    +0.000 OA
ATOM     14  C   UNL     1       3.610   4.938  18.697  0.00  0.00    +0.000 A 
BRANCH  10  15
ATOM     15  N   UNL     1       7.227   4.493  16.594  0.00  0.00    +0.000 N 
ATOM     16  O   UNL     1       7.284   4.721  15.388  0.00  0.00    +0.000 OA
ATOM     17  O   UNL     1       8.207   4.179  17.306  0.00  0.00    +0.000 OA
ENDBRANCH  10  15
ENDBRANCH   3   4
ENDBRANCH   1   3
BRANCH   1  18
ATOM     18  C   UNL     1       1.619   8.255  21.238  0.00  0.00    +0.000 C 
BRANCH  18  19
ATOM     19  C   UNL     1       0.162   8.694  21.143  0.00  0.00    +0.000 C 
BRANCH  19  20
ATOM     20  C   UNL     1      -0.396   9.199  22.465  0.00  0.00    +0.000 C 
BRANCH  20  21
ATOM     21  C   UNL     1      -0.365  10.725  22.491  0.00  0.00    +0.000 C 
BRANCH  21  22
ATOM     22  C   UNL     1      -1.611  11.270  23.167  0.00  0.00    +0.000 C 
BRANCH  22  23
ATOM     23  C   UNL     1      -1.849  12.716  22.759  0.00  0.00    +0.000 C 
BRANCH  23  24
ATOM     24  C   UNL     1      -2.982  12.792  21.750  0.00  0.00    +0.000 C 
BRANCH  24  25
ATOM     25  C   UNL     1      -2.450  13.231  20.396  0.00  0.00    +0.000 C 
BRANCH  25  26
ATOM     26  C   UNL     1      -2.378  12.042  19.456  0.00  0.00    +0.000 C 
BRANCH  26  27
ATOM     27  C   UNL     1      -0.929  11.724  19.131  0.00  0.00    +0.000 C 
BRANCH  27  28
ATOM     28  C   UNL     1      -0.161  13.006  18.856  0.00  0.00    +0.000 C 
BRANCH  28  29
ATOM     29  C   UNL     1       1.275  12.871  19.337  0.00  0.00    +0.000 C 
BRANCH  29  30
ATOM     30  C   UNL     1       2.238  13.030  18.171  0.00  0.00    +0.000 C 
BRANCH  30  32
ATOM     31  C   UNL     1       3.264  15.263  17.719  0.00  0.00    +0.000 C 
ATOM     32  C   UNL     1       3.366  13.987  18.532  0.00  0.00    +0.000 C 
ENDBRANCH  30  32
ENDBRANCH  29  30
ENDBRANCH  28  29
ENDBRANCH  27  28
ENDBRANCH  26  27
ENDBRANCH  25  26
ENDBRANCH  24  25
ENDBRANCH  23  24
ENDBRANCH  22  23
ENDBRANCH  21  22
ENDBRANCH  20  21
ENDBRANCH  19  20
ENDBRANCH  18  19
ENDBRANCH   1  18
TORSDOF 17
ENDMDL
MODEL 8
REMARK VINA RESULT:      -6.4      4.082      9.542
REMARK  Name = 
REMARK  18 active torsions:
REMARK  status: ('A' for Active; 'I' for Inactive)
REMARK    1  A    between atoms: C_1  and  C_2
REMARK    2  A    between atoms: C_2  and  C_3
REMARK    3  A    between atoms: C_3  and  C_4
REMARK    4  A    between atoms: C_4  and  C_5
REMARK    5  A    between atoms: C_5  and  C_6
REMARK    6  A    between atoms: C_6  and  C_7
REMARK    7  A    between atoms: C_7  and  C_8
REMARK    8  A    between atoms: C_8  and  C_9
REMARK    9  A    between atoms: C_9  and  C_10
REMARK   10  A    between atoms: C_10  and  C_11
REMARK   11  A    between atoms: C_11  and  C_12
REMARK   12  A    between atoms: C_12  and  C_13
REMARK   13  A    between atoms: C_13  and  C_14
REMARK   14  A    between atoms: C_14  and  C_15
REMARK   15  A    between atoms: C_15  and  C_16
REMARK   16  A    between atoms: C_16  and  O_18
REMARK   17  A    between atoms: O_18  and  C_19
REMARK   18  A    between atoms: C_25  and  N_26
REMARK                            x       y       z     vdW  Elec       q    Type
REMARK                         _______ _______ _______ _____ _____    ______ ____
ROOT
ATOM      1  C   UNL     1       2.048   8.905  18.009  0.00  0.00    +0.000 C 
ATOM      2  O   UNL     1       3.065   9.231  17.408  0.00  0.00    +0.000 OA
ENDROOT
BRANCH   1   3
ATOM      3  O   UNL     1       0.748   9.259  17.634  0.00  0.00    +0.000 OA
BRANCH   3   4
ATOM      4  C   UNL     1       0.080  10.153  18.502  0.00  0.00    +0.000 A 
ATOM      5  C   UNL     1       0.753  10.627  19.629  0.00  0.00    +0.000 A 
ATOM      6  C   UNL     1       0.096  11.492  20.514  0.00  0.00    +0.000 A 
ATOM      7  C   UNL     1      -1.231  11.874  20.280  0.00  0.00    +0.000 A 
ATOM      8  C   UNL     1      -1.922  11.372  19.172  0.00  0.00    +0.000 A 
ATOM      9  C   UNL     1      -3.306  11.723  18.879  0.00  0.00    +0.000 A 
ATOM     10  C   UNL     1      -3.870  11.273  17.751  0.00  0.00    +0.000 A 
ATOM     11  C   UNL     1      -3.182  10.419  16.777  0.00  0.00    +0.000 A 
ATOM     12  O   UNL     1      -3.627  10.117  15.676  0.00  0.00    +0.000 OA
ATOM     13  O   UNL     1      -1.959   9.937  17.221  0.00  0.00    +0.000 OA
ATOM     14  C   UNL     1      -1.264  10.496  18.314  0.00  0.00    +0.000 A 
BRANCH  10  15
ATOM     15  N   UNL     1      -5.247  11.582  17.502  0.00  0.00    +0.000 N 
ATOM     16  O   UNL     1      -6.100  10.823  17.956  0.00  0.00    +0.000 OA
ATOM     17  O   UNL     1      -5.494  12.651  16.901  0.00  0.00    +0.000 OA
ENDBRANCH  10  15
ENDBRANCH   3   4
ENDBRANCH   1   3
BRANCH   1  18
ATOM     18  C   UNL     1       2.002   7.999  19.224  0.00  0.00    +0.000 C 
BRANCH  18  19
ATOM     19  C   UNL     1       2.342   6.575  18.801  0.00  0.00    +0.000 C 
BRANCH  19  20
ATOM     20  C   UNL     1       2.675   5.668  19.975  0.00  0.00    +0.000 C 
BRANCH  20  21
ATOM     21  C   UNL     1       1.394   5.284  20.712  0.00  0.00    +0.000 C 
BRANCH  21  22
ATOM     22  C   UNL     1       0.887   3.936  20.229  0.00  0.00    +0.000 C 
BRANCH  22  23
ATOM     23  C   UNL     1       1.857   2.832  20.620  0.00  0.00    +0.000 C 
BRANCH  23  24
ATOM     24  C   UNL     1       2.289   2.059  19.385  0.00  0.00    +0.000 C 
BRANCH  24  25
ATOM     25  C   UNL     1       1.616   2.629  18.148  0.00  0.00    +0.000 C 
BRANCH  25  26
ATOM     26  C   UNL     1       2.644   3.317  17.268  0.00  0.00    +0.000 C 
BRANCH  26  27
ATOM     27  C   UNL     1       4.015   2.706  17.497  0.00  0.00    +0.000 C 
BRANCH  27  28
ATOM     28  C   UNL     1       5.099   3.681  17.067  0.00  0.00    +0.000 C 
BRANCH  28  29
ATOM     29  C   UNL     1       4.472   4.943  16.495  0.00  0.00    +0.000 C 
BRANCH  29  30
ATOM     30  C   UNL     1       5.555   5.919  16.062  0.00  0.00    +0.000 C 
BRANCH  30  32
ATOM     31  C   UNL     1       7.274   7.118  17.422  0.00  0.00    +0.000 C 
ATOM     32  C   UNL     1       5.792   6.971  17.137  0.00  0.00    +0.000 C 
ENDBRANCH  30  32
ENDBRANCH  29  30
ENDBRANCH  28  29
ENDBRANCH  27  28
ENDBRANCH  26  27
ENDBRANCH  25  26
ENDBRANCH  24  25
ENDBRANCH  23  24
ENDBRANCH  22  23
ENDBRANCH  21  22
ENDBRANCH  20  21
ENDBRANCH  19  20
ENDBRANCH  18  19
ENDBRANCH   1  18
TORSDOF 17
ENDMDL
MODEL 9
REMARK VINA RESULT:      -6.4      4.524      9.938
REMARK  Name = 
REMARK  18 active torsions:
REMARK  status: ('A' for Active; 'I' for Inactive)
REMARK    1  A    between atoms: C_1  and  C_2
REMARK    2  A    between atoms: C_2  and  C_3
REMARK    3  A    between atoms: C_3  and  C_4
REMARK    4  A    between atoms: C_4  and  C_5
REMARK    5  A    between atoms: C_5  and  C_6
REMARK    6  A    between atoms: C_6  and  C_7
REMARK    7  A    between atoms: C_7  and  C_8
REMARK    8  A    between atoms: C_8  and  C_9
REMARK    9  A    between atoms: C_9  and  C_10
REMARK   10  A    between atoms: C_10  and  C_11
REMARK   11  A    between atoms: C_11  and  C_12
REMARK   12  A    between atoms: C_12  and  C_13
REMARK   13  A    between atoms: C_13  and  C_14
REMARK   14  A    between atoms: C_14  and  C_15
REMARK   15  A    between atoms: C_15  and  C_16
REMARK   16  A    between atoms: C_16  and  O_18
REMARK   17  A    between atoms: O_18  and  C_19
REMARK   18  A    between atoms: C_25  and  N_26
REMARK                            x       y       z     vdW  Elec       q    Type
REMARK                         _______ _______ _______ _____ _____    ______ ____
ROOT
ATOM      1  C   UNL     1       1.341   9.686  18.531  0.00  0.00    +0.000 C 
ATOM      2  O   UNL     1       1.979  10.723  18.391  0.00  0.00    +0.000 OA
ENDROOT
BRANCH   1   3
ATOM      3  O   UNL     1       0.017   9.615  18.974  0.00  0.00    +0.000 OA
BRANCH   3   4
ATOM      4  C   UNL     1      -0.189   9.904  20.343  0.00  0.00    +0.000 A 
ATOM      5  C   UNL     1      -0.140   8.861  21.267  0.00  0.00    +0.000 A 
ATOM      6  C   UNL     1      -0.369   9.126  22.623  0.00  0.00    +0.000 A 
ATOM      7  C   UNL     1      -0.657  10.428  23.054  0.00  0.00    +0.000 A 
ATOM      8  C   UNL     1      -0.744  11.471  22.126  0.00  0.00    +0.000 A 
ATOM      9  C   UNL     1      -1.049  12.844  22.508  0.00  0.00    +0.000 A 
ATOM     10  C   UNL     1      -1.026  13.803  21.574  0.00  0.00    +0.000 A 
ATOM     11  C   UNL     1      -0.727  13.561  20.159  0.00  0.00    +0.000 A 
ATOM     12  O   UNL     1      -0.559  14.437  19.320  0.00  0.00    +0.000 OA
ATOM     13  O   UNL     1      -0.672  12.216  19.822  0.00  0.00    +0.000 OA
ATOM     14  C   UNL     1      -0.536  11.189  20.779  0.00  0.00    +0.000 A 
BRANCH  10  15
ATOM     15  N   UNL     1      -1.380  15.139  21.954  0.00  0.00    +0.000 N 
ATOM     16  O   UNL     1      -0.497  15.864  22.407  0.00  0.00    +0.000 OA
ATOM     17  O   UNL     1      -2.554  15.506  21.727  0.00  0.00    +0.000 OA
ENDBRANCH  10  15
ENDBRANCH   3   4
ENDBRANCH   1   3
BRANCH   1  18
ATOM     18  C   UNL     1       1.840   8.298  18.180  0.00  0.00    +0.000 C 
BRANCH  18  19
ATOM     19  C   UNL     1       2.346   7.612  19.443  0.00  0.00    +0.000 C 
BRANCH  19  20
ATOM     20  C   UNL     1       2.469   6.103  19.294  0.00  0.00    +0.000 C 
BRANCH  20  21
ATOM     21  C   UNL     1       2.027   5.419  20.585  0.00  0.00    +0.000 C 
BRANCH  21  22
ATOM     22  C   UNL     1       0.856   4.489  20.320  0.00  0.00    +0.000 C 
BRANCH  22  23
ATOM     23  C   UNL     1       1.327   3.044  20.256  0.00  0.00    +0.000 C 
BRANCH  23  24
ATOM     24  C   UNL     1       0.945   2.432  18.919  0.00  0.00    +0.000 C 
BRANCH  24  25
ATOM     25  C   UNL     1       2.031   2.700  17.891  0.00  0.00    +0.000 C 
BRANCH  25  26
ATOM     26  C   UNL     1       3.398   2.464  18.506  0.00  0.00    +0.000 C 
BRANCH  26  27
ATOM     27  C   UNL     1       4.482   2.968  17.569  0.00  0.00    +0.000 C 
BRANCH  27  28
ATOM     28  C   UNL     1       4.028   4.248  16.885  0.00  0.00    +0.000 C 
BRANCH  28  29
ATOM     29  C   UNL     1       5.170   4.843  16.076  0.00  0.00    +0.000 C 
BRANCH  29  30
ATOM     30  C   UNL     1       6.495   4.617  16.790  0.00  0.00    +0.000 C 
BRANCH  30  32
ATOM     31  C   UNL     1       7.640   5.874  18.619  0.00  0.00    +0.000 C 
ATOM     32  C   UNL     1       7.119   5.945  17.197  0.00  0.00    +0.000 C 
ENDBRANCH  30  32
ENDBRANCH  29  30
ENDBRANCH  28  29
ENDBRANCH  27  28
ENDBRANCH  26  27
ENDBRANCH  25  26
ENDBRANCH  24  25
ENDBRANCH  23  24
ENDBRANCH  22  23
ENDBRANCH  21  22
ENDBRANCH  20  21
ENDBRANCH  19  20
ENDBRANCH  18  19
ENDBRANCH   1  18
TORSDOF 17
ENDMDL
