MODEL 1
REMARK VINA RESULT:      -8.7      0.000      0.000
REMARK  Name = 
REMARK  11 active torsions:
REMARK  status: ('A' for Active; 'I' for Inactive)
REMARK    1  A    between atoms: C_1  and  O_2
REMARK    2  A    between atoms: O_2  and  C_3
REMARK    3  A    between atoms: C_6  and  S_7
REMARK    4  A    between atoms: S_7  and  N_10
REMARK    5  A    between atoms: N_10  and  C_11
REMARK    6  A    between atoms: C_17  and  C_18
REMARK    7  A    between atoms: C_18  and  C_19
REMARK    8  A    between atoms: N_27  and  C_28
REMARK    9  A    between atoms: C_28  and  C_29
REMARK   10  A    between atoms: C_29  and  C_30
REMARK   11  A    between atoms: C_30  and  O_32
REMARK                            x       y       z     vdW  Elec       q    Type
REMARK                         _______ _______ _______ _____ _____    ______ ____
ROOT
ATOM      1  C   UNL     1       2.027   8.283  18.947  0.00  0.00    +0.000 A 
ATOM      2  C   UNL     1       2.210   7.767  20.237  0.00  0.00    +0.000 A 
ATOM      3  C   UNL     1       2.246   6.380  20.485  0.00  0.00    +0.000 A 
ATOM      4  C   UNL     1       2.125   5.561  19.361  0.00  0.00    +0.000 A 
ATOM      5  C   UNL     1       2.381   6.088  18.081  0.00  0.00    +0.000 A 
ATOM      6  C   UNL     1       2.197   7.459  17.836  0.00  0.00    +0.000 A 
ATOM      7  C   UNL     1       2.868   4.939  17.381  0.00  0.00    +0.000 A 
ATOM      8  C   UNL     1       1.744   4.143  17.666  0.00  0.00    +0.000 A 
ATOM      9  N   UNL     1       1.829   4.219  19.092  0.00  0.00    +0.000 N 
ENDROOT
BRANCH   1  10
ATOM     10  N   UNL     1       1.577   9.635  18.780  0.00  0.00    +0.000 N 
ATOM     11  H   UNL     1       1.294   9.893  17.834  0.00  0.00    +0.000 HD
BRANCH  10  12
ATOM     12  S   UNL     1       0.345  10.164  19.850  0.00  0.00    +0.000 S 
ATOM     13  O   UNL     1       0.802  11.351  20.540  0.00  0.00    +0.000 OA
ATOM     14  O   UNL     1      -0.084   8.998  20.595  0.00  0.00    +0.000 OA
BRANCH  12  18
ATOM     15  C   UNL     1      -3.209  11.164  17.174  0.00  0.00    +0.000 A 
ATOM     16  C   UNL     1      -3.038  11.821  18.397  0.00  0.00    +0.000 A 
ATOM     17  C   UNL     1      -1.920  11.562  19.190  0.00  0.00    +0.000 A 
ATOM     18  C   UNL     1      -0.990  10.610  18.768  0.00  0.00    +0.000 A 
ATOM     19  C   UNL     1      -1.144   9.955  17.543  0.00  0.00    +0.000 A 
ATOM     20  C   UNL     1      -2.259  10.234  16.747  0.00  0.00    +0.000 A 
BRANCH  15  22
ATOM     21  C   UNL     1      -5.473  11.839  17.328  0.00  0.00    +0.000 C 
ATOM     22  O   UNL     1      -4.367  11.471  16.513  0.00  0.00    +0.000 OA
ENDBRANCH  15  22
ENDBRANCH  12  18
ENDBRANCH  10  12
ENDBRANCH   1  10
BRANCH   7  23
ATOM     23  C   UNL     1       4.258   4.329  17.714  0.00  0.00    +0.000 C 
BRANCH  23  24
ATOM     24  C   UNL     1       5.386   5.276  17.939  0.00  0.00    +0.000 A 
ATOM     25  C   UNL     1       6.151   5.034  19.109  0.00  0.00    +0.000 A 
ATOM     26  C   UNL     1       7.292   5.774  19.391  0.00  0.00    +0.000 A 
ATOM     27  C   UNL     1       7.683   6.750  18.493  0.00  0.00    +0.000 A 
ATOM     28  F   UNL     1       8.778   7.477  18.752  0.00  0.00    +0.000 F 
ATOM     29  C   UNL     1       6.973   6.976  17.315  0.00  0.00    +0.000 A 
ATOM     30  C   UNL     1       5.830   6.228  17.027  0.00  0.00    +0.000 A 
ENDBRANCH  23  24
ENDBRANCH   7  23
BRANCH   9  31
ATOM     31  C   UNL     1       2.203   3.012  19.825  0.00  0.00    +0.000 C 
BRANCH  31  32
ATOM     32  C   UNL     1       2.560   1.741  19.066  0.00  0.00    +0.000 C 
BRANCH  32  33
ATOM     33  C   UNL     1       4.012   1.415  19.381  0.00  0.00    +0.000 C 
ATOM     34  O   UNL     1       4.688   1.985  20.224  0.00  0.00    +0.000 OA
BRANCH  33  35
ATOM     35  O   UNL     1       4.512   0.407  18.642  0.00  0.00    +0.000 OA
ATOM     36  H   UNL     1       3.852  -0.197  18.273  0.00  0.00    +0.000 HD
ENDBRANCH  33  35
ENDBRANCH  32  33
ENDBRANCH  31  32
ENDBRANCH   9  31
TORSDOF 10
ENDMDL
MODEL 2
REMARK VINA RESULT:      -8.6      0.654      1.361
REMARK  Name = 
REMARK  11 active torsions:
REMARK  status: ('A' for Active; 'I' for Inactive)
REMARK    1  A    between atoms: C_1  and  O_2
REMARK    2  A    between atoms: O_2  and  C_3
REMARK    3  A    between atoms: C_6  and  S_7
REMARK    4  A    between atoms: S_7  and  N_10
REMARK    5  A    between atoms: N_10  and  C_11
REMARK    6  A    between atoms: C_17  and  C_18
REMARK    7  A    between atoms: C_18  and  C_19
REMARK    8  A    between atoms: N_27  and  C_28
REMARK    9  A    between atoms: C_28  and  C_29
REMARK   10  A    between atoms: C_29  and  C_30
REMARK   11  A    between atoms: C_30  and  O_32
REMARK                            x       y       z     vdW  Elec       q    Type
REMARK                         _______ _______ _______ _____ _____    ______ ____
ROOT
ATOM      1  C   UNL     1       2.170   7.842  18.831  0.00  0.00    +0.000 A 
ATOM      2  C   UNL     1       2.247   7.287  20.115  0.00  0.00    +0.000 A 
ATOM      3  C   UNL     1       2.295   5.894  20.322  0.00  0.00    +0.000 A 
ATOM      4  C   UNL     1       2.299   5.111  19.166  0.00  0.00    +0.000 A 
ATOM      5  C   UNL     1       2.658   5.686  17.933  0.00  0.00    +0.000 A 
ATOM      6  C   UNL     1       2.462   7.060  17.715  0.00  0.00    +0.000 A 
ATOM      7  C   UNL     1       3.237   4.572  17.246  0.00  0.00    +0.000 A 
ATOM      8  C   UNL     1       2.112   3.742  17.400  0.00  0.00    +0.000 A 
ATOM      9  N   UNL     1       2.063   3.772  18.829  0.00  0.00    +0.000 N 
ENDROOT
BRANCH   1  10
ATOM     10  N   UNL     1       1.703   9.188  18.666  0.00  0.00    +0.000 N 
ATOM     11  H   UNL     1       1.263   9.396  17.769  0.00  0.00    +0.000 HD
BRANCH  10  12
ATOM     12  S   UNL     1       0.674   9.792  19.898  0.00  0.00    +0.000 S 
ATOM     13  O   UNL     1       1.297  10.951  20.501  0.00  0.00    +0.000 OA
ATOM     14  O   UNL     1       0.289   8.657  20.709  0.00  0.00    +0.000 OA
BRANCH  12  18
ATOM     15  C   UNL     1      -2.924  11.281  17.524  0.00  0.00    +0.000 A 
ATOM     16  C   UNL     1      -2.124  10.249  17.023  0.00  0.00    +0.000 A 
ATOM     17  C   UNL     1      -1.059   9.750  17.773  0.00  0.00    +0.000 A 
ATOM     18  C   UNL     1      -0.776  10.317  19.017  0.00  0.00    +0.000 A 
ATOM     19  C   UNL     1      -1.574  11.341  19.533  0.00  0.00    +0.000 A 
ATOM     20  C   UNL     1      -2.650  11.824  18.782  0.00  0.00    +0.000 A 
BRANCH  15  22
ATOM     21  C   UNL     1      -5.244  11.492  17.105  0.00  0.00    +0.000 C 
ATOM     22  O   UNL     1      -3.906  11.713  16.675  0.00  0.00    +0.000 OA
ENDBRANCH  15  22
ENDBRANCH  12  18
ENDBRANCH  10  12
ENDBRANCH   1  10
BRANCH   7  23
ATOM     23  C   UNL     1       4.605   3.983  17.687  0.00  0.00    +0.000 C 
BRANCH  23  24
ATOM     24  C   UNL     1       5.726   4.940  17.903  0.00  0.00    +0.000 A 
ATOM     25  C   UNL     1       5.881   5.925  16.894  0.00  0.00    +0.000 A 
ATOM     26  C   UNL     1       6.819   6.941  17.014  0.00  0.00    +0.000 A 
ATOM     27  C   UNL     1       7.597   6.988  18.157  0.00  0.00    +0.000 A 
ATOM     28  F   UNL     1       8.510   7.959  18.287  0.00  0.00    +0.000 F 
ATOM     29  C   UNL     1       7.433   6.058  19.183  0.00  0.00    +0.000 A 
ATOM     30  C   UNL     1       6.485   5.039  19.065  0.00  0.00    +0.000 A 
ENDBRANCH  23  24
ENDBRANCH   7  23
BRANCH   9  31
ATOM     31  C   UNL     1       2.399   2.549  19.555  0.00  0.00    +0.000 C 
BRANCH  31  32
ATOM     32  C   UNL     1       3.269   2.620  20.803  0.00  0.00    +0.000 C 
BRANCH  32  33
ATOM     33  C   UNL     1       4.502   1.767  20.546  0.00  0.00    +0.000 C 
ATOM     34  O   UNL     1       5.350   1.496  21.382  0.00  0.00    +0.000 OA
BRANCH  33  35
ATOM     35  O   UNL     1       4.586   1.305  19.284  0.00  0.00    +0.000 OA
ATOM     36  H   UNL     1       3.948   1.686  18.665  0.00  0.00    +0.000 HD
ENDBRANCH  33  35
ENDBRANCH  32  33
ENDBRANCH  31  32
ENDBRANCH   9  31
TORSDOF 10
ENDMDL
MODEL 3
REMARK VINA RESULT:      -8.5      3.756      9.402
REMARK  Name = 
REMARK  11 active torsions:
REMARK  status: ('A' for Active; 'I' for Inactive)
REMARK    1  A    between atoms: C_1  and  O_2
REMARK    2  A    between atoms: O_2  and  C_3
REMARK    3  A    between atoms: C_6  and  S_7
REMARK    4  A    between atoms: S_7  and  N_10
REMARK    5  A    between atoms: N_10  and  C_11
REMARK    6  A    between atoms: C_17  and  C_18
REMARK    7  A    between atoms: C_18  and  C_19
REMARK    8  A    between atoms: N_27  and  C_28
REMARK    9  A    between atoms: C_28  and  C_29
REMARK   10  A    between atoms: C_29  and  C_30
REMARK   11  A    between atoms: C_30  and  O_32
REMARK                            x       y       z     vdW  Elec       q    Type
REMARK                         _______ _______ _______ _____ _____    ______ ____
ROOT
ATOM      1  C   UNL     1       2.145   7.501  19.899  0.00  0.00    +0.000 A 
ATOM      2  C   UNL     1       1.595   7.551  21.187  0.00  0.00    +0.000 A 
ATOM      3  C   UNL     1       0.920   8.692  21.663  0.00  0.00    +0.000 A 
ATOM      4  C   UNL     1       0.802   9.748  20.758  0.00  0.00    +0.000 A 
ATOM      5  C   UNL     1       0.966   9.509  19.380  0.00  0.00    +0.000 A 
ATOM      6  C   UNL     1       1.766   8.441  18.942  0.00  0.00    +0.000 A 
ATOM      7  C   UNL     1       0.110  10.503  18.806  0.00  0.00    +0.000 A 
ATOM      8  C   UNL     1       0.722  11.582  19.470  0.00  0.00    +0.000 A 
ATOM      9  N   UNL     1       0.505  11.115  20.804  0.00  0.00    +0.000 N 
ENDROOT
BRANCH   1  10
ATOM     10  N   UNL     1       3.163   6.536  19.598  0.00  0.00    +0.000 N 
ATOM     11  H   UNL     1       3.650   6.143  20.404  0.00  0.00    +0.000 HD
BRANCH  10  12
ATOM     12  S   UNL     1       2.700   5.231  18.586  0.00  0.00    +0.000 S 
ATOM     13  O   UNL     1       1.465   5.575  17.915  0.00  0.00    +0.000 OA
ATOM     14  O   UNL     1       2.791   4.031  19.392  0.00  0.00    +0.000 OA
BRANCH  12  18
ATOM     15  C   UNL     1       5.890   5.026  15.334  0.00  0.00    +0.000 A 
ATOM     16  C   UNL     1       5.416   6.263  15.782  0.00  0.00    +0.000 A 
ATOM     17  C   UNL     1       4.484   6.332  16.819  0.00  0.00    +0.000 A 
ATOM     18  C   UNL     1       4.001   5.149  17.381  0.00  0.00    +0.000 A 
ATOM     19  C   UNL     1       4.476   3.906  16.950  0.00  0.00    +0.000 A 
ATOM     20  C   UNL     1       5.422   3.848  15.923  0.00  0.00    +0.000 A 
BRANCH  15  22
ATOM     21  C   UNL     1       6.596   4.106  13.271  0.00  0.00    +0.000 C 
ATOM     22  O   UNL     1       6.764   5.090  14.284  0.00  0.00    +0.000 OA
ENDBRANCH  15  22
ENDBRANCH  12  18
ENDBRANCH  10  12
ENDBRANCH   1  10
BRANCH   7  23
ATOM     23  C   UNL     1      -1.434  10.394  18.926  0.00  0.00    +0.000 C 
BRANCH  23  24
ATOM     24  C   UNL     1      -2.232  10.540  17.676  0.00  0.00    +0.000 A 
ATOM     25  C   UNL     1      -1.848   9.684  16.612  0.00  0.00    +0.000 A 
ATOM     26  C   UNL     1      -2.566   9.640  15.425  0.00  0.00    +0.000 A 
ATOM     27  C   UNL     1      -3.685  10.443  15.302  0.00  0.00    +0.000 A 
ATOM     28  F   UNL     1      -4.387  10.417  14.162  0.00  0.00    +0.000 F 
ATOM     29  C   UNL     1      -4.109  11.259  16.349  0.00  0.00    +0.000 A 
ATOM     30  C   UNL     1      -3.391  11.299  17.547  0.00  0.00    +0.000 A 
ENDBRANCH  23  24
ENDBRANCH   7  23
BRANCH   9  31
ATOM     31  C   UNL     1      -0.452  11.839  21.639  0.00  0.00    +0.000 C 
BRANCH  31  32
ATOM     32  C   UNL     1      -1.305  11.082  22.648  0.00  0.00    +0.000 C 
BRANCH  32  33
ATOM     33  C   UNL     1      -2.255  12.087  23.283  0.00  0.00    +0.000 C 
ATOM     34  O   UNL     1      -3.360  11.818  23.728  0.00  0.00    +0.000 OA
BRANCH  33  35
ATOM     35  O   UNL     1      -1.763  13.339  23.332  0.00  0.00    +0.000 OA
ATOM     36  H   UNL     1      -1.936  13.878  22.547  0.00  0.00    +0.000 HD
ENDBRANCH  33  35
ENDBRANCH  32  33
ENDBRANCH  31  32
ENDBRANCH   9  31
TORSDOF 10
ENDMDL
MODEL 4
REMARK VINA RESULT:      -8.5      2.294      3.012
REMARK  Name = 
REMARK  11 active torsions:
REMARK  status: ('A' for Active; 'I' for Inactive)
REMARK    1  A    between atoms: C_1  and  O_2
REMARK    2  A    between atoms: O_2  and  C_3
REMARK    3  A    between atoms: C_6  and  S_7
REMARK    4  A    between atoms: S_7  and  N_10
REMARK    5  A    between atoms: N_10  and  C_11
REMARK    6  A    between atoms: C_17  and  C_18
REMARK    7  A    between atoms: C_18  and  C_19
REMARK    8  A    between atoms: N_27  and  C_28
REMARK    9  A    between atoms: C_28  and  C_29
REMARK   10  A    between atoms: C_29  and  C_30
REMARK   11  A    between atoms: C_30  and  O_32
REMARK                            x       y       z     vdW  Elec       q    Type
REMARK                         _______ _______ _______ _____ _____    ______ ____
ROOT
ATOM      1  C   UNL     1       1.797   7.820  19.651  0.00  0.00    +0.000 A 
ATOM      2  C   UNL     1       1.968   7.072  20.823  0.00  0.00    +0.000 A 
ATOM      3  C   UNL     1       2.104   5.670  20.798  0.00  0.00    +0.000 A 
ATOM      4  C   UNL     1       2.095   5.084  19.530  0.00  0.00    +0.000 A 
ATOM      5  C   UNL     1       2.359   5.872  18.394  0.00  0.00    +0.000 A 
ATOM      6  C   UNL     1       2.077   7.248  18.411  0.00  0.00    +0.000 A 
ATOM      7  C   UNL     1       2.965   4.921  17.512  0.00  0.00    +0.000 A 
ATOM      8  C   UNL     1       1.896   4.008  17.573  0.00  0.00    +0.000 A 
ATOM      9  N   UNL     1       1.918   3.805  18.989  0.00  0.00    +0.000 N 
ENDROOT
BRANCH   1  10
ATOM     10  N   UNL     1       1.248   9.144  19.727  0.00  0.00    +0.000 N 
ATOM     11  H   UNL     1       1.694   9.769  20.399  0.00  0.00    +0.000 HD
BRANCH  10  12
ATOM     12  S   UNL     1       1.106   9.994  18.244  0.00  0.00    +0.000 S 
ATOM     13  O   UNL     1      -0.234   9.816  17.729  0.00  0.00    +0.000 OA
ATOM     14  O   UNL     1       2.257   9.627  17.446  0.00  0.00    +0.000 OA
BRANCH  12  18
ATOM     15  C   UNL     1       1.519  14.417  19.278  0.00  0.00    +0.000 A 
ATOM     16  C   UNL     1       0.457  13.666  19.793  0.00  0.00    +0.000 A 
ATOM     17  C   UNL     1       0.361  12.299  19.528  0.00  0.00    +0.000 A 
ATOM     18  C   UNL     1       1.317  11.694  18.712  0.00  0.00    +0.000 A 
ATOM     19  C   UNL     1       2.389  12.431  18.200  0.00  0.00    +0.000 A 
ATOM     20  C   UNL     1       2.487  13.796  18.484  0.00  0.00    +0.000 A 
BRANCH  15  22
ATOM     21  C   UNL     1       1.885  16.632  18.530  0.00  0.00    +0.000 C 
ATOM     22  O   UNL     1       1.475  15.752  19.570  0.00  0.00    +0.000 OA
ENDBRANCH  15  22
ENDBRANCH  12  18
ENDBRANCH  10  12
ENDBRANCH   1  10
BRANCH   7  23
ATOM     23  C   UNL     1       4.384   4.356  17.796  0.00  0.00    +0.000 C 
BRANCH  23  24
ATOM     24  C   UNL     1       5.486   5.339  17.995  0.00  0.00    +0.000 A 
ATOM     25  C   UNL     1       6.357   5.057  19.078  0.00  0.00    +0.000 A 
ATOM     26  C   UNL     1       7.484   5.830  19.318  0.00  0.00    +0.000 A 
ATOM     27  C   UNL     1       7.757   6.882  18.462  0.00  0.00    +0.000 A 
ATOM     28  F   UNL     1       8.838   7.641  18.682  0.00  0.00    +0.000 F 
ATOM     29  C   UNL     1       6.942   7.151  17.364  0.00  0.00    +0.000 A 
ATOM     30  C   UNL     1       5.811   6.370  17.118  0.00  0.00    +0.000 A 
ENDBRANCH  23  24
ENDBRANCH   7  23
BRANCH   9  31
ATOM     31  C   UNL     1       2.357   2.505  19.492  0.00  0.00    +0.000 C 
BRANCH  31  32
ATOM     32  C   UNL     1       3.168   2.421  20.777  0.00  0.00    +0.000 C 
BRANCH  32  33
ATOM     33  C   UNL     1       4.495   1.761  20.434  0.00  0.00    +0.000 C 
ATOM     34  O   UNL     1       5.415   1.593  21.220  0.00  0.00    +0.000 OA
BRANCH  33  35
ATOM     35  O   UNL     1       4.579   1.350  19.155  0.00  0.00    +0.000 OA
ATOM     36  H   UNL     1       5.467   1.102  18.861  0.00  0.00    +0.000 HD
ENDBRANCH  33  35
ENDBRANCH  32  33
ENDBRANCH  31  32
ENDBRANCH   9  31
TORSDOF 10
ENDMDL
MODEL 5
REMARK VINA RESULT:      -8.5      1.327      1.468
REMARK  Name = 
REMARK  11 active torsions:
REMARK  status: ('A' for Active; 'I' for Inactive)
REMARK    1  A    between atoms: C_1  and  O_2
REMARK    2  A    between atoms: O_2  and  C_3
REMARK    3  A    between atoms: C_6  and  S_7
REMARK    4  A    between atoms: S_7  and  N_10
REMARK    5  A    between atoms: N_10  and  C_11
REMARK    6  A    between atoms: C_17  and  C_18
REMARK    7  A    between atoms: C_18  and  C_19
REMARK    8  A    between atoms: N_27  and  C_28
REMARK    9  A    between atoms: C_28  and  C_29
REMARK   10  A    between atoms: C_29  and  C_30
REMARK   11  A    between atoms: C_30  and  O_32
REMARK                            x       y       z     vdW  Elec       q    Type
REMARK                         _______ _______ _______ _____ _____    ______ ____
ROOT
ATOM      1  C   UNL     1       2.065   8.074  18.669  0.00  0.00    +0.000 A 
ATOM      2  C   UNL     1       2.144   7.560  19.970  0.00  0.00    +0.000 A 
ATOM      3  C   UNL     1       2.327   6.184  20.216  0.00  0.00    +0.000 A 
ATOM      4  C   UNL     1       2.462   5.380  19.083  0.00  0.00    +0.000 A 
ATOM      5  C   UNL     1       2.811   5.961  17.849  0.00  0.00    +0.000 A 
ATOM      6  C   UNL     1       2.484   7.302  17.587  0.00  0.00    +0.000 A 
ATOM      7  C   UNL     1       3.531   4.899  17.216  0.00  0.00    +0.000 A 
ATOM      8  C   UNL     1       2.492   3.959  17.348  0.00  0.00    +0.000 A 
ATOM      9  N   UNL     1       2.380   4.017  18.773  0.00  0.00    +0.000 N 
ENDROOT
BRANCH   1  10
ATOM     10  N   UNL     1       1.468   9.360  18.448  0.00  0.00    +0.000 N 
ATOM     11  H   UNL     1       0.965   9.468  17.567  0.00  0.00    +0.000 HD
BRANCH  10  12
ATOM     12  S   UNL     1       0.454   9.952  19.699  0.00  0.00    +0.000 S 
ATOM     13  O   UNL     1       1.109  11.072  20.341  0.00  0.00    +0.000 OA
ATOM     14  O   UNL     1       0.036   8.801  20.471  0.00  0.00    +0.000 OA
BRANCH  12  18
ATOM     15  C   UNL     1      -3.343  11.332  17.584  0.00  0.00    +0.000 A 
ATOM     16  C   UNL     1      -2.988  11.872  18.824  0.00  0.00    +0.000 A 
ATOM     17  C   UNL     1      -1.797  11.497  19.446  0.00  0.00    +0.000 A 
ATOM     18  C   UNL     1      -0.978  10.548  18.834  0.00  0.00    +0.000 A 
ATOM     19  C   UNL     1      -1.315  10.008  17.589  0.00  0.00    +0.000 A 
ATOM     20  C   UNL     1      -2.502  10.403  16.965  0.00  0.00    +0.000 A 
BRANCH  15  22
ATOM     21  C   UNL     1      -5.691  11.378  17.875  0.00  0.00    +0.000 C 
ATOM     22  O   UNL     1      -4.555  11.744  17.101  0.00  0.00    +0.000 OA
ENDBRANCH  15  22
ENDBRANCH  12  18
ENDBRANCH  10  12
ENDBRANCH   1  10
BRANCH   7  23
ATOM     23  C   UNL     1       4.933   4.466  17.728  0.00  0.00    +0.000 C 
BRANCH  23  24
ATOM     24  C   UNL     1       5.936   5.540  17.969  0.00  0.00    +0.000 A 
ATOM     25  C   UNL     1       6.842   5.292  19.033  0.00  0.00    +0.000 A 
ATOM     26  C   UNL     1       7.891   6.158  19.305  0.00  0.00    +0.000 A 
ATOM     27  C   UNL     1       8.052   7.272  18.501  0.00  0.00    +0.000 A 
ATOM     28  F   UNL     1       9.056   8.121  18.753  0.00  0.00    +0.000 F 
ATOM     29  C   UNL     1       7.203   7.515  17.422  0.00  0.00    +0.000 A 
ATOM     30  C   UNL     1       6.151   6.640  17.144  0.00  0.00    +0.000 A 
ENDBRANCH  23  24
ENDBRANCH   7  23
BRANCH   9  31
ATOM     31  C   UNL     1       2.810   2.853  19.545  0.00  0.00    +0.000 C 
BRANCH  31  32
ATOM     32  C   UNL     1       2.817   2.909  21.066  0.00  0.00    +0.000 C 
BRANCH  32  33
ATOM     33  C   UNL     1       1.391   2.665  21.537  0.00  0.00    +0.000 C 
ATOM     34  O   UNL     1       1.084   2.212  22.628  0.00  0.00    +0.000 OA
BRANCH  33  35
ATOM     35  O   UNL     1       0.457   3.010  20.631  0.00  0.00    +0.000 OA
ATOM     36  H   UNL     1      -0.107   3.753  20.886  0.00  0.00    +0.000 HD
ENDBRANCH  33  35
ENDBRANCH  32  33
ENDBRANCH  31  32
ENDBRANCH   9  31
TORSDOF 10
ENDMDL
MODEL 6
REMARK VINA RESULT:      -8.4      1.729      2.059
REMARK  Name = 
REMARK  11 active torsions:
REMARK  status: ('A' for Active; 'I' for Inactive)
REMARK    1  A    between atoms: C_1  and  O_2
REMARK    2  A    between atoms: O_2  and  C_3
REMARK    3  A    between atoms: C_6  and  S_7
REMARK    4  A    between atoms: S_7  and  N_10
REMARK    5  A    between atoms: N_10  and  C_11
REMARK    6  A    between atoms: C_17  and  C_18
REMARK    7  A    between atoms: C_18  and  C_19
REMARK    8  A    between atoms: N_27  and  C_28
REMARK    9  A    between atoms: C_28  and  C_29
REMARK   10  A    between atoms: C_29  and  C_30
REMARK   11  A    between atoms: C_30  and  O_32
REMARK                            x       y       z     vdW  Elec       q    Type
REMARK                         _______ _______ _______ _____ _____    ______ ____
ROOT
ATOM      1  C   UNL     1       1.803   7.764  19.731  0.00  0.00    +0.000 A 
ATOM      2  C   UNL     1       2.006   6.971  20.868  0.00  0.00    +0.000 A 
ATOM      3  C   UNL     1       2.200   5.578  20.779  0.00  0.00    +0.000 A 
ATOM      4  C   UNL     1       2.215   5.051  19.486  0.00  0.00    +0.000 A 
ATOM      5  C   UNL     1       2.446   5.900  18.387  0.00  0.00    +0.000 A 
ATOM      6  C   UNL     1       2.107   7.261  18.467  0.00  0.00    +0.000 A 
ATOM      7  C   UNL     1       3.091   5.017  17.464  0.00  0.00    +0.000 A 
ATOM      8  C   UNL     1       2.062   4.058  17.481  0.00  0.00    +0.000 A 
ATOM      9  N   UNL     1       2.092   3.792  18.887  0.00  0.00    +0.000 N 
ENDROOT
BRANCH   1  10
ATOM     10  N   UNL     1       1.199   9.058  19.866  0.00  0.00    +0.000 N 
ATOM     11  H   UNL     1       0.524   9.308  19.143  0.00  0.00    +0.000 HD
BRANCH  10  12
ATOM     12  S   UNL     1       0.483   9.408  21.385  0.00  0.00    +0.000 S 
ATOM     13  O   UNL     1       1.529   9.726  22.333  0.00  0.00    +0.000 OA
ATOM     14  O   UNL     1      -0.457   8.340  21.655  0.00  0.00    +0.000 OA
BRANCH  12  18
ATOM     15  C   UNL     1      -2.144  13.061  20.642  0.00  0.00    +0.000 A 
ATOM     16  C   UNL     1      -1.627  12.810  21.917  0.00  0.00    +0.000 A 
ATOM     17  C   UNL     1      -0.774  11.727  22.135  0.00  0.00    +0.000 A 
ATOM     18  C   UNL     1      -0.470  10.874  21.073  0.00  0.00    +0.000 A 
ATOM     19  C   UNL     1      -0.971  11.121  19.792  0.00  0.00    +0.000 A 
ATOM     20  C   UNL     1      -1.812  12.218  19.580  0.00  0.00    +0.000 A 
BRANCH  15  22
ATOM     21  C   UNL     1      -4.252  13.962  21.230  0.00  0.00    +0.000 C 
ATOM     22  O   UNL     1      -3.003  14.123  20.569  0.00  0.00    +0.000 OA
ENDBRANCH  15  22
ENDBRANCH  12  18
ENDBRANCH  10  12
ENDBRANCH   1  10
BRANCH   7  23
ATOM     23  C   UNL     1       4.532   4.500  17.725  0.00  0.00    +0.000 C 
BRANCH  23  24
ATOM     24  C   UNL     1       5.598   5.518  17.944  0.00  0.00    +0.000 A 
ATOM     25  C   UNL     1       6.593   5.156  18.887  0.00  0.00    +0.000 A 
ATOM     26  C   UNL     1       7.699   5.963  19.116  0.00  0.00    +0.000 A 
ATOM     27  C   UNL     1       7.823   7.133  18.387  0.00  0.00    +0.000 A 
ATOM     28  F   UNL     1       8.881   7.926  18.599  0.00  0.00    +0.000 F 
ATOM     29  C   UNL     1       6.882   7.488  17.423  0.00  0.00    +0.000 A 
ATOM     30  C   UNL     1       5.772   6.673  17.187  0.00  0.00    +0.000 A 
ENDBRANCH  23  24
ENDBRANCH   7  23
BRANCH   9  31
ATOM     31  C   UNL     1       2.585   2.490  19.330  0.00  0.00    +0.000 C 
BRANCH  31  32
ATOM     32  C   UNL     1       3.073   2.308  20.761  0.00  0.00    +0.000 C 
BRANCH  32  33
ATOM     33  C   UNL     1       4.537   1.900  20.694  0.00  0.00    +0.000 C 
ATOM     34  O   UNL     1       5.178   1.444  21.627  0.00  0.00    +0.000 OA
BRANCH  33  35
ATOM     35  O   UNL     1       5.090   2.074  19.479  0.00  0.00    +0.000 OA
ATOM     36  H   UNL     1       5.486   1.281  19.091  0.00  0.00    +0.000 HD
ENDBRANCH  33  35
ENDBRANCH  32  33
ENDBRANCH  31  32
ENDBRANCH   9  31
TORSDOF 10
ENDMDL
MODEL 7
REMARK VINA RESULT:      -8.3      0.847      1.249
REMARK  Name = 
REMARK  11 active torsions:
REMARK  status: ('A' for Active; 'I' for Inactive)
REMARK    1  A    between atoms: C_1  and  O_2
REMARK    2  A    between atoms: O_2  and  C_3
REMARK    3  A    between atoms: C_6  and  S_7
REMARK    4  A    between atoms: S_7  and  N_10
REMARK    5  A    between atoms: N_10  and  C_11
REMARK    6  A    between atoms: C_17  and  C_18
REMARK    7  A    between atoms: C_18  and  C_19
REMARK    8  A    between atoms: N_27  and  C_28
REMARK    9  A    between atoms: C_28  and  C_29
REMARK   10  A    between atoms: C_29  and  C_30
REMARK   11  A    between atoms: C_30  and  O_32
REMARK                            x       y       z     vdW  Elec       q    Type
REMARK                         _______ _______ _______ _____ _____    ______ ____
ROOT
ATOM      1  C   UNL     1       2.116   7.798  19.427  0.00  0.00    +0.000 A 
ATOM      2  C   UNL     1       2.175   7.043  20.606  0.00  0.00    +0.000 A 
ATOM      3  C   UNL     1       2.095   5.636  20.594  0.00  0.00    +0.000 A 
ATOM      4  C   UNL     1       1.992   5.047  19.332  0.00  0.00    +0.000 A 
ATOM      5  C   UNL     1       2.369   5.775  18.187  0.00  0.00    +0.000 A 
ATOM      6  C   UNL     1       2.300   7.178  18.192  0.00  0.00    +0.000 A 
ATOM      7  C   UNL     1       2.819   4.735  17.313  0.00  0.00    +0.000 A 
ATOM      8  C   UNL     1       1.624   3.996  17.386  0.00  0.00    +0.000 A 
ATOM      9  N   UNL     1       1.619   3.805  18.803  0.00  0.00    +0.000 N 
ENDROOT
BRANCH   1  10
ATOM     10  N   UNL     1       1.775   9.190  19.491  0.00  0.00    +0.000 N 
ATOM     11  H   UNL     1       1.529   9.626  18.602  0.00  0.00    +0.000 HD
BRANCH  10  12
ATOM     12  S   UNL     1       0.571   9.626  20.631  0.00  0.00    +0.000 S 
ATOM     13  O   UNL     1       1.112  10.629  21.523  0.00  0.00    +0.000 OA
ATOM     14  O   UNL     1       0.029   8.390  21.155  0.00  0.00    +0.000 OA
BRANCH  12  18
ATOM     15  C   UNL     1      -2.838  11.417  18.187  0.00  0.00    +0.000 A 
ATOM     16  C   UNL     1      -2.476  11.981  19.414  0.00  0.00    +0.000 A 
ATOM     17  C   UNL     1      -1.395  11.474  20.137  0.00  0.00    +0.000 A 
ATOM     18  C   UNL     1      -0.699  10.371  19.638  0.00  0.00    +0.000 A 
ATOM     19  C   UNL     1      -1.044   9.805  18.407  0.00  0.00    +0.000 A 
ATOM     20  C   UNL     1      -2.118  10.331  17.683  0.00  0.00    +0.000 A 
BRANCH  15  22
ATOM     21  C   UNL     1      -4.409  11.334  16.419  0.00  0.00    +0.000 C 
ATOM     22  O   UNL     1      -3.941  11.973  17.601  0.00  0.00    +0.000 OA
ENDBRANCH  15  22
ENDBRANCH  12  18
ENDBRANCH  10  12
ENDBRANCH   1  10
BRANCH   7  23
ATOM     23  C   UNL     1       4.136   3.963  17.600  0.00  0.00    +0.000 C 
BRANCH  23  24
ATOM     24  C   UNL     1       5.351   4.769  17.905  0.00  0.00    +0.000 A 
ATOM     25  C   UNL     1       5.783   5.628  16.862  0.00  0.00    +0.000 A 
ATOM     26  C   UNL     1       6.840   6.509  17.043  0.00  0.00    +0.000 A 
ATOM     27  C   UNL     1       7.461   6.549  18.279  0.00  0.00    +0.000 A 
ATOM     28  F   UNL     1       8.485   7.390  18.469  0.00  0.00    +0.000 F 
ATOM     29  C   UNL     1       7.026   5.747  19.333  0.00  0.00    +0.000 A 
ATOM     30  C   UNL     1       5.959   4.865  19.154  0.00  0.00    +0.000 A 
ENDBRANCH  23  24
ENDBRANCH   7  23
BRANCH   9  31
ATOM     31  C   UNL     1       1.857   2.458  19.318  0.00  0.00    +0.000 C 
BRANCH  31  32
ATOM     32  C   UNL     1       3.230   1.819  19.170  0.00  0.00    +0.000 C 
BRANCH  32  33
ATOM     33  C   UNL     1       3.966   2.014  20.487  0.00  0.00    +0.000 C 
ATOM     34  O   UNL     1       3.454   2.412  21.521  0.00  0.00    +0.000 OA
BRANCH  33  35
ATOM     35  O   UNL     1       5.272   1.690  20.428  0.00  0.00    +0.000 OA
ATOM     36  H   UNL     1       5.459   0.742  20.396  0.00  0.00    +0.000 HD
ENDBRANCH  33  35
ENDBRANCH  32  33
ENDBRANCH  31  32
ENDBRANCH   9  31
TORSDOF 10
ENDMDL
MODEL 8
REMARK VINA RESULT:      -8.3      1.225      1.773
REMARK  Name = 
REMARK  11 active torsions:
REMARK  status: ('A' for Active; 'I' for Inactive)
REMARK    1  A    between atoms: C_1  and  O_2
REMARK    2  A    between atoms: O_2  and  C_3
REMARK    3  A    between atoms: C_6  and  S_7
REMARK    4  A    between atoms: S_7  and  N_10
REMARK    5  A    between atoms: N_10  and  C_11
REMARK    6  A    between atoms: C_17  and  C_18
REMARK    7  A    between atoms: C_18  and  C_19
REMARK    8  A    between atoms: N_27  and  C_28
REMARK    9  A    between atoms: C_28  and  C_29
REMARK   10  A    between atoms: C_29  and  C_30
REMARK   11  A    between atoms: C_30  and  O_32
REMARK                            x       y       z     vdW  Elec       q    Type
REMARK                         _______ _______ _______ _____ _____    ______ ____
ROOT
ATOM      1  C   UNL     1       2.216   7.970  18.923  0.00  0.00    +0.000 A 
ATOM      2  C   UNL     1       2.073   7.284  20.136  0.00  0.00    +0.000 A 
ATOM      3  C   UNL     1       2.060   5.877  20.198  0.00  0.00    +0.000 A 
ATOM      4  C   UNL     1       2.237   5.216  18.981  0.00  0.00    +0.000 A 
ATOM      5  C   UNL     1       2.803   5.901  17.888  0.00  0.00    +0.000 A 
ATOM      6  C   UNL     1       2.671   7.297  17.790  0.00  0.00    +0.000 A 
ATOM      7  C   UNL     1       3.464   4.844  17.188  0.00  0.00    +0.000 A 
ATOM      8  C   UNL     1       2.313   4.043  17.071  0.00  0.00    +0.000 A 
ATOM      9  N   UNL     1       2.034   3.929  18.469  0.00  0.00    +0.000 N 
ENDROOT
BRANCH   1  10
ATOM     10  N   UNL     1       1.808   9.343  18.830  0.00  0.00    +0.000 N 
ATOM     11  H   UNL     1       1.471   9.642  17.914  0.00  0.00    +0.000 HD
BRANCH  10  12
ATOM     12  S   UNL     1       0.673   9.879  19.998  0.00  0.00    +0.000 S 
ATOM     13  O   UNL     1       1.190  11.067  20.642  0.00  0.00    +0.000 OA
ATOM     14  O   UNL     1       0.305   8.717  20.781  0.00  0.00    +0.000 OA
BRANCH  12  18
ATOM     15  C   UNL     1      -2.850  11.168  17.405  0.00  0.00    +0.000 A 
ATOM     16  C   UNL     1      -1.999  10.142  16.982  0.00  0.00    +0.000 A 
ATOM     17  C   UNL     1      -0.957   9.703  17.800  0.00  0.00    +0.000 A 
ATOM     18  C   UNL     1      -0.748  10.326  19.032  0.00  0.00    +0.000 A 
ATOM     19  C   UNL     1      -1.599  11.345  19.471  0.00  0.00    +0.000 A 
ATOM     20  C   UNL     1      -2.651  11.766  18.652  0.00  0.00    +0.000 A 
BRANCH  15  22
ATOM     21  C   UNL     1      -5.101  11.791  17.020  0.00  0.00    +0.000 C 
ATOM     22  O   UNL     1      -3.803  11.537  16.496  0.00  0.00    +0.000 OA
ENDBRANCH  15  22
ENDBRANCH  12  18
ENDBRANCH  10  12
ENDBRANCH   1  10
BRANCH   7  23
ATOM     23  C   UNL     1       4.731   4.164  17.776  0.00  0.00    +0.000 C 
BRANCH  23  24
ATOM     24  C   UNL     1       5.902   5.035  18.073  0.00  0.00    +0.000 A 
ATOM     25  C   UNL     1       6.150   6.057  17.120  0.00  0.00    +0.000 A 
ATOM     26  C   UNL     1       7.145   7.004  17.320  0.00  0.00    +0.000 A 
ATOM     27  C   UNL     1       7.888   6.944  18.485  0.00  0.00    +0.000 A 
ATOM     28  F   UNL     1       8.855   7.847  18.691  0.00  0.00    +0.000 F 
ATOM     29  C   UNL     1       7.633   5.978  19.457  0.00  0.00    +0.000 A 
ATOM     30  C   UNL     1       6.628   5.028  19.260  0.00  0.00    +0.000 A 
ENDBRANCH  23  24
ENDBRANCH   7  23
BRANCH   9  31
ATOM     31  C   UNL     1       2.224   2.627  19.105  0.00  0.00    +0.000 C 
BRANCH  31  32
ATOM     32  C   UNL     1       2.992   2.525  20.416  0.00  0.00    +0.000 C 
BRANCH  32  33
ATOM     33  C   UNL     1       2.024   2.871  21.537  0.00  0.00    +0.000 C 
ATOM     34  O   UNL     1       2.349   3.318  22.626  0.00  0.00    +0.000 OA
BRANCH  33  35
ATOM     35  O   UNL     1       0.734   2.652  21.224  0.00  0.00    +0.000 OA
ATOM     36  H   UNL     1       0.274   2.022  21.797  0.00  0.00    +0.000 HD
ENDBRANCH  33  35
ENDBRANCH  32  33
ENDBRANCH  31  32
ENDBRANCH   9  31
TORSDOF 10
ENDMDL
MODEL 9
REMARK VINA RESULT:      -8.3      1.955      2.416
REMARK  Name = 
REMARK  11 active torsions:
REMARK  status: ('A' for Active; 'I' for Inactive)
REMARK    1  A    between atoms: C_1  and  O_2
REMARK    2  A    between atoms: O_2  and  C_3
REMARK    3  A    between atoms: C_6  and  S_7
REMARK    4  A    between atoms: S_7  and  N_10
REMARK    5  A    between atoms: N_10  and  C_11
REMARK    6  A    between atoms: C_17  and  C_18
REMARK    7  A    between atoms: C_18  and  C_19
REMARK    8  A    between atoms: N_27  and  C_28
REMARK    9  A    between atoms: C_28  and  C_29
REMARK   10  A    between atoms: C_29  and  C_30
REMARK   11  A    between atoms: C_30  and  O_32
REMARK                            x       y       z     vdW  Elec       q    Type
REMARK                         _______ _______ _______ _____ _____    ______ ____
ROOT
ATOM      1  C   UNL     1       1.824   7.806  19.790  0.00  0.00    +0.000 A 
ATOM      2  C   UNL     1       1.844   6.973  20.917  0.00  0.00    +0.000 A 
ATOM      3  C   UNL     1       1.989   5.576  20.806  0.00  0.00    +0.000 A 
ATOM      4  C   UNL     1       2.147   5.085  19.509  0.00  0.00    +0.000 A 
ATOM      5  C   UNL     1       2.554   5.952  18.477  0.00  0.00    +0.000 A 
ATOM      6  C   UNL     1       2.265   7.325  18.559  0.00  0.00    +0.000 A 
ATOM      7  C   UNL     1       3.273   5.066  17.614  0.00  0.00    +0.000 A 
ATOM      8  C   UNL     1       2.210   4.156  17.469  0.00  0.00    +0.000 A 
ATOM      9  N   UNL     1       2.048   3.850  18.857  0.00  0.00    +0.000 N 
ENDROOT
BRANCH   1  10
ATOM     10  N   UNL     1       1.263   9.123  19.890  0.00  0.00    +0.000 N 
ATOM     11  H   UNL     1       0.618   9.386  19.145  0.00  0.00    +0.000 HD
BRANCH  10  12
ATOM     12  S   UNL     1       0.519   9.521  21.384  0.00  0.00    +0.000 S 
ATOM     13  O   UNL     1       1.543   9.646  22.398  0.00  0.00    +0.000 OA
ATOM     14  O   UNL     1      -0.580   8.594  21.557  0.00  0.00    +0.000 OA
BRANCH  12  18
ATOM     15  C   UNL     1      -1.502  13.536  20.617  0.00  0.00    +0.000 A 
ATOM     16  C   UNL     1      -1.352  13.058  21.923  0.00  0.00    +0.000 A 
ATOM     17  C   UNL     1      -0.681  11.859  22.166  0.00  0.00    +0.000 A 
ATOM     18  C   UNL     1      -0.191  11.121  21.087  0.00  0.00    +0.000 A 
ATOM     19  C   UNL     1      -0.325  11.593  19.778  0.00  0.00    +0.000 A 
ATOM     20  C   UNL     1      -0.985  12.804  19.546  0.00  0.00    +0.000 A 
BRANCH  15  22
ATOM     21  C   UNL     1      -2.734  15.229  21.722  0.00  0.00    +0.000 C 
ATOM     22  O   UNL     1      -2.218  14.697  20.507  0.00  0.00    +0.000 OA
ENDBRANCH  15  22
ENDBRANCH  12  18
ENDBRANCH  10  12
ENDBRANCH   1  10
BRANCH   7  23
ATOM     23  C   UNL     1       4.646   4.475  18.039  0.00  0.00    +0.000 C 
BRANCH  23  24
ATOM     24  C   UNL     1       5.816   5.397  18.050  0.00  0.00    +0.000 A 
ATOM     25  C   UNL     1       5.701   6.527  17.200  0.00  0.00    +0.000 A 
ATOM     26  C   UNL     1       6.670   7.521  17.186  0.00  0.00    +0.000 A 
ATOM     27  C   UNL     1       7.754   7.398  18.037  0.00  0.00    +0.000 A 
ATOM     28  F   UNL     1       8.700   8.345  18.032  0.00  0.00    +0.000 F 
ATOM     29  C   UNL     1       7.866   6.320  18.913  0.00  0.00    +0.000 A 
ATOM     30  C   UNL     1       6.888   5.323  18.933  0.00  0.00    +0.000 A 
ENDBRANCH  23  24
ENDBRANCH   7  23
BRANCH   9  31
ATOM     31  C   UNL     1       2.424   2.514  19.316  0.00  0.00    +0.000 C 
BRANCH  31  32
ATOM     32  C   UNL     1       3.154   2.343  20.641  0.00  0.00    +0.000 C 
BRANCH  32  33
ATOM     33  C   UNL     1       4.483   1.665  20.343  0.00  0.00    +0.000 C 
ATOM     34  O   UNL     1       5.394   1.533  21.145  0.00  0.00    +0.000 OA
BRANCH  33  35
ATOM     35  O   UNL     1       4.579   1.194  19.085  0.00  0.00    +0.000 OA
ATOM     36  H   UNL     1       4.273   1.799  18.396  0.00  0.00    +0.000 HD
ENDBRANCH  33  35
ENDBRANCH  32  33
ENDBRANCH  31  32
ENDBRANCH   9  31
TORSDOF 10
ENDMDL
