MODEL 1
REMARK VINA RESULT:      -9.6      0.000      0.000
REMARK  Name = 
REMARK  4 active torsions:
REMARK  status: ('A' for Active; 'I' for Inactive)
REMARK    1  A    between atoms: C_1  and  N_2
REMARK    2  A    between atoms: N_2  and  C_3
REMARK    3  A    between atoms: C_3  and  C_4
REMARK    4  A    between atoms: C_10  and  C_12
REMARK                            x       y       z     vdW  Elec       q    Type
REMARK                         _______ _______ _______ _____ _____    ______ ____
ROOT
ATOM      1  C   UNL     1       3.179   6.003  18.325  0.00  0.00    +0.000 A 
ATOM      2  N   UNL     1       4.438   6.405  18.076  0.00  0.00    +0.000 NA
ATOM      3  C   UNL     1       5.072   5.633  17.193  0.00  0.00    +0.000 A 
ATOM      4  C   UNL     1       5.734   6.247  16.148  0.00  0.00    +0.000 A 
ATOM      5  C   UNL     1       5.998   5.537  14.978  0.00  0.00    +0.000 A 
ATOM      6  C   UNL     1       5.769   4.161  14.924  0.00  0.00    +0.000 A 
ATOM      7  C   UNL     1       5.225   3.494  16.025  0.00  0.00    +0.000 A 
ATOM      8  C   UNL     1       4.783   4.245  17.121  0.00  0.00    +0.000 A 
ATOM      9  C   UNL     1       3.629   3.856  17.762  0.00  0.00    +0.000 A 
ATOM     10  C   UNL     1       2.699   4.868  17.714  0.00  0.00    +0.000 A 
ATOM     11  C   UNL     1       1.323   4.386  17.449  0.00  0.00    +0.000 C 
ATOM     12  C   UNL     1       0.843   3.529  18.600  0.00  0.00    +0.000 C 
ATOM     13  C   UNL     1       1.993   2.948  19.417  0.00  0.00    +0.000 A 
ATOM     14  C   UNL     1       1.688   2.583  20.734  0.00  0.00    +0.000 A 
ATOM     15  C   UNL     1       2.707   2.216  21.596  0.00  0.00    +0.000 A 
ATOM     16  C   UNL     1       4.019   2.128  21.121  0.00  0.00    +0.000 A 
ATOM     17  C   UNL     1       4.342   2.483  19.797  0.00  0.00    +0.000 A 
ATOM     18  C   UNL     1       3.351   2.967  18.937  0.00  0.00    +0.000 A 
ENDROOT
BRANCH   1  21
ATOM     19  C   UNL     1       1.408   8.490  20.626  0.00  0.00    +0.000 C 
ATOM     20  N   UNL     1       1.909   7.908  19.390  0.00  0.00    +0.000 N 
ATOM     21  C   UNL     1       2.423   6.597  19.461  0.00  0.00    +0.000 C 
ATOM     22  O   UNL     1       2.368   5.938  20.500  0.00  0.00    +0.000 OA
BRANCH  20  23
ATOM     23  C   UNL     1       1.916   8.786  18.213  0.00  0.00    +0.000 C 
BRANCH  23  24
ATOM     24  C   UNL     1       0.940   9.949  18.302  0.00  0.00    +0.000 A 
ATOM     25  C   UNL     1       1.327  11.232  18.722  0.00  0.00    +0.000 A 
ATOM     26  C   UNL     1       0.397  12.271  18.805  0.00  0.00    +0.000 A 
ATOM     27  C   UNL     1      -0.939  12.050  18.469  0.00  0.00    +0.000 A 
ATOM     28  C   UNL     1      -1.350  10.766  18.052  0.00  0.00    +0.000 A 
ATOM     29  C   UNL     1      -0.411   9.737  17.972  0.00  0.00    +0.000 A 
ENDBRANCH  23  24
ENDBRANCH  20  23
ENDBRANCH   1  21
TORSDOF 3
ENDMDL
MODEL 2
REMARK VINA RESULT:      -8.1      1.658      4.344
REMARK  Name = 
REMARK  4 active torsions:
REMARK  status: ('A' for Active; 'I' for Inactive)
REMARK    1  A    between atoms: C_1  and  N_2
REMARK    2  A    between atoms: N_2  and  C_3
REMARK    3  A    between atoms: C_3  and  C_4
REMARK    4  A    between atoms: C_10  and  C_12
REMARK                            x       y       z     vdW  Elec       q    Type
REMARK                         _______ _______ _______ _____ _____    ______ ____
ROOT
ATOM      1  C   UNL     1       3.032   5.774  18.107  0.00  0.00    +0.000 A 
ATOM      2  N   UNL     1       1.892   5.178  17.715  0.00  0.00    +0.000 NA
ATOM      3  C   UNL     1       1.888   3.861  17.926  0.00  0.00    +0.000 A 
ATOM      4  C   UNL     1       0.788   3.305  18.549  0.00  0.00    +0.000 A 
ATOM      5  C   UNL     1       0.906   2.081  19.207  0.00  0.00    +0.000 A 
ATOM      6  C   UNL     1       2.073   1.325  19.081  0.00  0.00    +0.000 A 
ATOM      7  C   UNL     1       3.150   1.812  18.337  0.00  0.00    +0.000 A 
ATOM      8  C   UNL     1       3.097   3.121  17.844  0.00  0.00    +0.000 A 
ATOM      9  C   UNL     1       4.246   3.878  17.863  0.00  0.00    +0.000 A 
ATOM     10  C   UNL     1       4.053   5.010  18.620  0.00  0.00    +0.000 A 
ATOM     11  C   UNL     1       5.214   5.345  19.476  0.00  0.00    +0.000 C 
ATOM     12  C   UNL     1       6.406   5.704  18.616  0.00  0.00    +0.000 C 
ATOM     13  C   UNL     1       6.304   5.132  17.205  0.00  0.00    +0.000 A 
ATOM     14  C   UNL     1       7.053   5.788  16.221  0.00  0.00    +0.000 A 
ATOM     15  C   UNL     1       6.880   5.448  14.890  0.00  0.00    +0.000 A 
ATOM     16  C   UNL     1       6.028   4.394  14.549  0.00  0.00    +0.000 A 
ATOM     17  C   UNL     1       5.273   3.717  15.527  0.00  0.00    +0.000 A 
ATOM     18  C   UNL     1       5.341   4.116  16.867  0.00  0.00    +0.000 A 
ENDROOT
BRANCH   1  21
ATOM     19  C   UNL     1       2.787   9.574  17.764  0.00  0.00    +0.000 C 
ATOM     20  N   UNL     1       2.657   8.258  18.369  0.00  0.00    +0.000 N 
ATOM     21  C   UNL     1       3.300   7.186  17.717  0.00  0.00    +0.000 C 
ATOM     22  O   UNL     1       4.015   7.366  16.731  0.00  0.00    +0.000 OA
BRANCH  20  23
ATOM     23  C   UNL     1       1.786   8.167  19.549  0.00  0.00    +0.000 C 
BRANCH  23  24
ATOM     24  C   UNL     1       0.827   9.336  19.701  0.00  0.00    +0.000 A 
ATOM     25  C   UNL     1      -0.031   9.752  18.670  0.00  0.00    +0.000 A 
ATOM     26  C   UNL     1      -0.887  10.842  18.844  0.00  0.00    +0.000 A 
ATOM     27  C   UNL     1      -0.905  11.539  20.052  0.00  0.00    +0.000 A 
ATOM     28  C   UNL     1      -0.046  11.143  21.099  0.00  0.00    +0.000 A 
ATOM     29  C   UNL     1       0.804  10.051  20.913  0.00  0.00    +0.000 A 
ENDBRANCH  23  24
ENDBRANCH  20  23
ENDBRANCH   1  21
TORSDOF 3
ENDMDL
MODEL 3
REMARK VINA RESULT:      -7.6      7.975     11.819
REMARK  Name = 
REMARK  4 active torsions:
REMARK  status: ('A' for Active; 'I' for Inactive)
REMARK    1  A    between atoms: C_1  and  N_2
REMARK    2  A    between atoms: N_2  and  C_3
REMARK    3  A    between atoms: C_3  and  C_4
REMARK    4  A    between atoms: C_10  and  C_12
REMARK                            x       y       z     vdW  Elec       q    Type
REMARK                         _______ _______ _______ _____ _____    ______ ____
ROOT
ATOM      1  C   UNL     1      -4.891  13.045  20.189  0.00  0.00    +0.000 A 
ATOM      2  N   UNL     1      -3.570  13.261  20.051  0.00  0.00    +0.000 NA
ATOM      3  C   UNL     1      -2.862  12.880  21.114  0.00  0.00    +0.000 A 
ATOM      4  C   UNL     1      -1.741  12.100  20.904  0.00  0.00    +0.000 A 
ATOM      5  C   UNL     1      -1.247  11.300  21.934  0.00  0.00    +0.000 A 
ATOM      6  C   UNL     1      -1.760  11.422  23.227  0.00  0.00    +0.000 A 
ATOM      7  C   UNL     1      -2.807  12.310  23.488  0.00  0.00    +0.000 A 
ATOM      8  C   UNL     1      -3.424  12.963  22.415  0.00  0.00    +0.000 A 
ATOM      9  C   UNL     1      -4.789  13.139  22.449  0.00  0.00    +0.000 A 
ATOM     10  C   UNL     1      -5.371  12.522  21.366  0.00  0.00    +0.000 A 
ATOM     11  C   UNL     1      -6.629  11.816  21.702  0.00  0.00    +0.000 C 
ATOM     12  C   UNL     1      -7.681  12.811  22.140  0.00  0.00    +0.000 C 
ATOM     13  C   UNL     1      -7.078  14.122  22.636  0.00  0.00    +0.000 A 
ATOM     14  C   UNL     1      -7.916  15.242  22.586  0.00  0.00    +0.000 A 
ATOM     15  C   UNL     1      -7.396  16.498  22.847  0.00  0.00    +0.000 A 
ATOM     16  C   UNL     1      -6.062  16.626  23.245  0.00  0.00    +0.000 A 
ATOM     17  C   UNL     1      -5.207  15.509  23.309  0.00  0.00    +0.000 A 
ATOM     18  C   UNL     1      -5.675  14.244  22.940  0.00  0.00    +0.000 A 
ENDROOT
BRANCH   1  21
ATOM     19  C   UNL     1      -7.098  13.584  17.114  0.00  0.00    +0.000 C 
ATOM     20  N   UNL     1      -6.381  12.868  18.157  0.00  0.00    +0.000 N 
ATOM     21  C   UNL     1      -5.843  13.637  19.209  0.00  0.00    +0.000 C 
ATOM     22  O   UNL     1      -6.048  14.848  19.292  0.00  0.00    +0.000 OA
BRANCH  20  23
ATOM     23  C   UNL     1      -6.207  11.423  17.955  0.00  0.00    +0.000 C 
BRANCH  23  24
ATOM     24  C   UNL     1      -4.851  11.036  17.387  0.00  0.00    +0.000 A 
ATOM     25  C   UNL     1      -4.410  11.461  16.123  0.00  0.00    +0.000 A 
ATOM     26  C   UNL     1      -3.163  11.072  15.629  0.00  0.00    +0.000 A 
ATOM     27  C   UNL     1      -2.329  10.251  16.388  0.00  0.00    +0.000 A 
ATOM     28  C   UNL     1      -2.756   9.806  17.658  0.00  0.00    +0.000 A 
ATOM     29  C   UNL     1      -4.004  10.204  18.141  0.00  0.00    +0.000 A 
ENDBRANCH  23  24
ENDBRANCH  20  23
ENDBRANCH   1  21
TORSDOF 3
ENDMDL
MODEL 4
REMARK VINA RESULT:      -7.5      9.471     12.328
REMARK  Name = 
REMARK  4 active torsions:
REMARK  status: ('A' for Active; 'I' for Inactive)
REMARK    1  A    between atoms: C_1  and  N_2
REMARK    2  A    between atoms: N_2  and  C_3
REMARK    3  A    between atoms: C_3  and  C_4
REMARK    4  A    between atoms: C_10  and  C_12
REMARK                            x       y       z     vdW  Elec       q    Type
REMARK                         _______ _______ _______ _____ _____    ______ ____
ROOT
ATOM      1  C   UNL     1       8.630  15.524  20.928  0.00  0.00    +0.000 A 
ATOM      2  N   UNL     1       8.649  16.835  21.228  0.00  0.00    +0.000 NA
ATOM      3  C   UNL     1       9.553  17.149  22.157  0.00  0.00    +0.000 A 
ATOM      4  C   UNL     1      10.394  18.216  21.911  0.00  0.00    +0.000 A 
ATOM      5  C   UNL     1      11.618  18.305  22.575  0.00  0.00    +0.000 A 
ATOM      6  C   UNL     1      11.916  17.428  23.620  0.00  0.00    +0.000 A 
ATOM      7  C   UNL     1      11.012  16.424  23.975  0.00  0.00    +0.000 A 
ATOM      8  C   UNL     1       9.878  16.220  23.180  0.00  0.00    +0.000 A 
ATOM      9  C   UNL     1       9.459  14.929  22.950  0.00  0.00    +0.000 A 
ATOM     10  C   UNL     1       9.467  14.665  21.600  0.00  0.00    +0.000 A 
ATOM     11  C   UNL     1       9.980  13.314  21.272  0.00  0.00    +0.000 C 
ATOM     12  C   UNL     1       9.049  12.258  21.826  0.00  0.00    +0.000 C 
ATOM     13  C   UNL     1       8.191  12.778  22.976  0.00  0.00    +0.000 A 
ATOM     14  C   UNL     1       6.998  12.085  23.215  0.00  0.00    +0.000 A 
ATOM     15  C   UNL     1       6.080  12.594  24.117  0.00  0.00    +0.000 A 
ATOM     16  C   UNL     1       6.390  13.745  24.846  0.00  0.00    +0.000 A 
ATOM     17  C   UNL     1       7.589  14.450  24.625  0.00  0.00    +0.000 A 
ATOM     18  C   UNL     1       8.484  14.023  23.638  0.00  0.00    +0.000 A 
ENDROOT
BRANCH   1  21
ATOM     19  C   UNL     1       6.437  14.525  17.960  0.00  0.00    +0.000 C 
ATOM     20  N   UNL     1       7.646  14.837  18.705  0.00  0.00    +0.000 N 
ATOM     21  C   UNL     1       7.521  14.970  20.104  0.00  0.00    +0.000 C 
ATOM     22  O   UNL     1       6.458  14.741  20.680  0.00  0.00    +0.000 OA
BRANCH  20  23
ATOM     23  C   UNL     1       8.858  15.080  17.910  0.00  0.00    +0.000 C 
BRANCH  23  24
ATOM     24  C   UNL     1       9.826  13.909  17.885  0.00  0.00    +0.000 A 
ATOM     25  C   UNL     1       9.397  12.572  17.854  0.00  0.00    +0.000 A 
ATOM     26  C   UNL     1      10.318  11.521  17.847  0.00  0.00    +0.000 A 
ATOM     27  C   UNL     1      11.688  11.785  17.869  0.00  0.00    +0.000 A 
ATOM     28  C   UNL     1      12.141  13.121  17.907  0.00  0.00    +0.000 A 
ATOM     29  C   UNL     1      11.210  14.162  17.912  0.00  0.00    +0.000 A 
ENDBRANCH  23  24
ENDBRANCH  20  23
ENDBRANCH   1  21
TORSDOF 3
ENDMDL
MODEL 5
REMARK VINA RESULT:      -7.5      8.047     11.939
REMARK  Name = 
REMARK  4 active torsions:
REMARK  status: ('A' for Active; 'I' for Inactive)
REMARK    1  A    between atoms: C_1  and  N_2
REMARK    2  A    between atoms: N_2  and  C_3
REMARK    3  A    between atoms: C_3  and  C_4
REMARK    4  A    between atoms: C_10  and  C_12
REMARK                            x       y       z     vdW  Elec       q    Type
REMARK                         _______ _______ _______ _____ _____    ______ ____
ROOT
ATOM      1  C   UNL     1      -5.756  13.368  20.095  0.00  0.00    +0.000 A 
ATOM      2  N   UNL     1      -6.683  14.335  19.975  0.00  0.00    +0.000 NA
ATOM      3  C   UNL     1      -6.158  15.557  19.886  0.00  0.00    +0.000 A 
ATOM      4  C   UNL     1      -6.608  16.387  18.878  0.00  0.00    +0.000 A 
ATOM      5  C   UNL     1      -5.812  17.445  18.439  0.00  0.00    +0.000 A 
ATOM      6  C   UNL     1      -4.650  17.786  19.135  0.00  0.00    +0.000 A 
ATOM      7  C   UNL     1      -4.250  17.039  20.245  0.00  0.00    +0.000 A 
ATOM      8  C   UNL     1      -4.947  15.866  20.560  0.00  0.00    +0.000 A 
ATOM      9  C   UNL     1      -4.233  14.776  21.004  0.00  0.00    +0.000 A 
ATOM     10  C   UNL     1      -4.426  13.710  20.157  0.00  0.00    +0.000 A 
ATOM     11  C   UNL     1      -3.187  12.941  19.893  0.00  0.00    +0.000 C 
ATOM     12  C   UNL     1      -2.702  12.287  21.168  0.00  0.00    +0.000 C 
ATOM     13  C   UNL     1      -3.232  12.979  22.421  0.00  0.00    +0.000 A 
ATOM     14  C   UNL     1      -3.268  12.201  23.584  0.00  0.00    +0.000 A 
ATOM     15  C   UNL     1      -3.897  12.691  24.716  0.00  0.00    +0.000 A 
ATOM     16  C   UNL     1      -4.411  13.991  24.715  0.00  0.00    +0.000 A 
ATOM     17  C   UNL     1      -4.375  14.790  23.556  0.00  0.00    +0.000 A 
ATOM     18  C   UNL     1      -3.849  14.279  22.365  0.00  0.00    +0.000 A 
ENDROOT
BRANCH   1  21
ATOM     19  C   UNL     1      -7.115   9.799  19.902  0.00  0.00    +0.000 C 
ATOM     20  N   UNL     1      -6.484  11.033  19.462  0.00  0.00    +0.000 N 
ATOM     21  C   UNL     1      -6.174  11.985  20.455  0.00  0.00    +0.000 C 
ATOM     22  O   UNL     1      -6.344  11.747  21.651  0.00  0.00    +0.000 OA
BRANCH  20  23
ATOM     23  C   UNL     1      -6.323  11.201  18.011  0.00  0.00    +0.000 C 
BRANCH  23  24
ATOM     24  C   UNL     1      -4.932  10.863  17.500  0.00  0.00    +0.000 A 
ATOM     25  C   UNL     1      -4.092   9.939  18.143  0.00  0.00    +0.000 A 
ATOM     26  C   UNL     1      -2.813   9.666  17.651  0.00  0.00    +0.000 A 
ATOM     27  C   UNL     1      -2.348  10.310  16.504  0.00  0.00    +0.000 A 
ATOM     28  C   UNL     1      -3.172  11.248  15.847  0.00  0.00    +0.000 A 
ATOM     29  C   UNL     1      -4.448  11.510  16.348  0.00  0.00    +0.000 A 
ENDBRANCH  23  24
ENDBRANCH  20  23
ENDBRANCH   1  21
TORSDOF 3
ENDMDL
MODEL 6
REMARK VINA RESULT:      -7.4      7.647     12.911
REMARK  Name = 
REMARK  4 active torsions:
REMARK  status: ('A' for Active; 'I' for Inactive)
REMARK    1  A    between atoms: C_1  and  N_2
REMARK    2  A    between atoms: N_2  and  C_3
REMARK    3  A    between atoms: C_3  and  C_4
REMARK    4  A    between atoms: C_10  and  C_12
REMARK                            x       y       z     vdW  Elec       q    Type
REMARK                         _______ _______ _______ _____ _____    ______ ____
ROOT
ATOM      1  C   UNL     1      -6.144  14.053  19.562  0.00  0.00    +0.000 A 
ATOM      2  N   UNL     1      -6.924  14.936  18.914  0.00  0.00    +0.000 NA
ATOM      3  C   UNL     1      -6.601  16.206  19.165  0.00  0.00    +0.000 A 
ATOM      4  C   UNL     1      -6.456  17.064  18.093  0.00  0.00    +0.000 A 
ATOM      5  C   UNL     1      -5.689  18.222  18.228  0.00  0.00    +0.000 A 
ATOM      6  C   UNL     1      -5.225  18.615  19.484  0.00  0.00    +0.000 A 
ATOM      7  C   UNL     1      -5.481  17.826  20.608  0.00  0.00    +0.000 A 
ATOM      8  C   UNL     1      -6.080  16.573  20.434  0.00  0.00    +0.000 A 
ATOM      9  C   UNL     1      -5.649  15.523  21.212  0.00  0.00    +0.000 A 
ATOM     10  C   UNL     1      -5.167  14.511  20.415  0.00  0.00    +0.000 A 
ATOM     11  C   UNL     1      -3.935  13.884  20.946  0.00  0.00    +0.000 C 
ATOM     12  C   UNL     1      -4.234  13.182  22.253  0.00  0.00    +0.000 C 
ATOM     13  C   UNL     1      -5.485  13.724  22.937  0.00  0.00    +0.000 A 
ATOM     14  C   UNL     1      -6.115  12.859  23.840  0.00  0.00    +0.000 A 
ATOM     15  C   UNL     1      -7.349  13.201  24.367  0.00  0.00    +0.000 A 
ATOM     16  C   UNL     1      -7.912  14.443  24.064  0.00  0.00    +0.000 A 
ATOM     17  C   UNL     1      -7.288  15.329  23.164  0.00  0.00    +0.000 A 
ATOM     18  C   UNL     1      -6.098  14.962  22.527  0.00  0.00    +0.000 A 
ENDROOT
BRANCH   1  21
ATOM     19  C   UNL     1      -6.831  10.439  18.522  0.00  0.00    +0.000 C 
ATOM     20  N   UNL     1      -6.209  11.753  18.520  0.00  0.00    +0.000 N 
ATOM     21  C   UNL     1      -6.524  12.614  19.592  0.00  0.00    +0.000 C 
ATOM     22  O   UNL     1      -7.219  12.239  20.536  0.00  0.00    +0.000 OA
BRANCH  20  23
ATOM     23  C   UNL     1      -5.392  12.085  17.345  0.00  0.00    +0.000 C 
BRANCH  23  24
ATOM     24  C   UNL     1      -4.049  11.373  17.304  0.00  0.00    +0.000 A 
ATOM     25  C   UNL     1      -3.659  10.552  16.234  0.00  0.00    +0.000 A 
ATOM     26  C   UNL     1      -2.423   9.902  16.241  0.00  0.00    +0.000 A 
ATOM     27  C   UNL     1      -1.550  10.059  17.317  0.00  0.00    +0.000 A 
ATOM     28  C   UNL     1      -1.925  10.874  18.407  0.00  0.00    +0.000 A 
ATOM     29  C   UNL     1      -3.162  11.519  18.387  0.00  0.00    +0.000 A 
ENDBRANCH  23  24
ENDBRANCH  20  23
ENDBRANCH   1  21
TORSDOF 3
ENDMDL
MODEL 7
REMARK VINA RESULT:      -7.3      9.140     11.754
REMARK  Name = 
REMARK  4 active torsions:
REMARK  status: ('A' for Active; 'I' for Inactive)
REMARK    1  A    between atoms: C_1  and  N_2
REMARK    2  A    between atoms: N_2  and  C_3
REMARK    3  A    between atoms: C_3  and  C_4
REMARK    4  A    between atoms: C_10  and  C_12
REMARK                            x       y       z     vdW  Elec       q    Type
REMARK                         _______ _______ _______ _____ _____    ______ ____
ROOT
ATOM      1  C   UNL     1       7.618  14.405  21.447  0.00  0.00    +0.000 A 
ATOM      2  N   UNL     1       6.523  13.852  21.999  0.00  0.00    +0.000 NA
ATOM      3  C   UNL     1       6.795  13.108  23.072  0.00  0.00    +0.000 A 
ATOM      4  C   UNL     1       6.042  13.311  24.212  0.00  0.00    +0.000 A 
ATOM      5  C   UNL     1       6.549  12.939  25.457  0.00  0.00    +0.000 A 
ATOM      6  C   UNL     1       7.727  12.194  25.542  0.00  0.00    +0.000 A 
ATOM      7  C   UNL     1       8.433  11.859  24.383  0.00  0.00    +0.000 A 
ATOM      8  C   UNL     1       8.023  12.400  23.160  0.00  0.00    +0.000 A 
ATOM      9  C   UNL     1       8.986  12.793  22.258  0.00  0.00    +0.000 A 
ATOM     10  C   UNL     1       8.855  14.133  21.982  0.00  0.00    +0.000 A 
ATOM     11  C   UNL     1      10.154  14.842  21.897  0.00  0.00    +0.000 C 
ATOM     12  C   UNL     1      10.952  14.323  20.721  0.00  0.00    +0.000 C 
ATOM     13  C   UNL     1      10.516  12.926  20.288  0.00  0.00    +0.000 A 
ATOM     14  C   UNL     1      10.813  12.572  18.967  0.00  0.00    +0.000 A 
ATOM     15  C   UNL     1      10.299  11.399  18.441  0.00  0.00    +0.000 A 
ATOM     16  C   UNL     1       9.563  10.537  19.258  0.00  0.00    +0.000 A 
ATOM     17  C   UNL     1       9.262  10.873  20.592  0.00  0.00    +0.000 A 
ATOM     18  C   UNL     1       9.671  12.104  21.117  0.00  0.00    +0.000 A 
ENDROOT
BRANCH   1  21
ATOM     19  C   UNL     1       6.841  16.878  18.637  0.00  0.00    +0.000 C 
ATOM     20  N   UNL     1       7.145  16.404  19.978  0.00  0.00    +0.000 N 
ATOM     21  C   UNL     1       7.524  15.053  20.110  0.00  0.00    +0.000 C 
ATOM     22  O   UNL     1       7.682  14.328  19.127  0.00  0.00    +0.000 OA
BRANCH  20  23
ATOM     23  C   UNL     1       6.930  17.362  21.071  0.00  0.00    +0.000 C 
BRANCH  23  24
ATOM     24  C   UNL     1       8.207  17.802  21.769  0.00  0.00    +0.000 A 
ATOM     25  C   UNL     1       9.339  18.245  21.067  0.00  0.00    +0.000 A 
ATOM     26  C   UNL     1      10.501  18.627  21.743  0.00  0.00    +0.000 A 
ATOM     27  C   UNL     1      10.554  18.575  23.136  0.00  0.00    +0.000 A 
ATOM     28  C   UNL     1       9.430  18.125  23.861  0.00  0.00    +0.000 A 
ATOM     29  C   UNL     1       8.275  17.748  23.173  0.00  0.00    +0.000 A 
ENDBRANCH  23  24
ENDBRANCH  20  23
ENDBRANCH   1  21
TORSDOF 3
ENDMDL
MODEL 8
REMARK VINA RESULT:      -7.3      8.596     11.055
REMARK  Name = 
REMARK  4 active torsions:
REMARK  status: ('A' for Active; 'I' for Inactive)
REMARK    1  A    between atoms: C_1  and  N_2
REMARK    2  A    between atoms: N_2  and  C_3
REMARK    3  A    between atoms: C_3  and  C_4
REMARK    4  A    between atoms: C_10  and  C_12
REMARK                            x       y       z     vdW  Elec       q    Type
REMARK                         _______ _______ _______ _____ _____    ______ ____
ROOT
ATOM      1  C   UNL     1       8.780  15.397  19.802  0.00  0.00    +0.000 A 
ATOM      2  N   UNL     1       9.744  16.135  20.381  0.00  0.00    +0.000 NA
ATOM      3  C   UNL     1      10.624  16.626  19.507  0.00  0.00    +0.000 A 
ATOM      4  C   UNL     1      10.940  17.969  19.587  0.00  0.00    +0.000 A 
ATOM      5  C   UNL     1      11.452  18.631  18.472  0.00  0.00    +0.000 A 
ATOM      6  C   UNL     1      11.824  17.910  17.336  0.00  0.00    +0.000 A 
ATOM      7  C   UNL     1      11.639  16.526  17.289  0.00  0.00    +0.000 A 
ATOM      8  C   UNL     1      10.948  15.899  18.332  0.00  0.00    +0.000 A 
ATOM      9  C   UNL     1      10.082  14.874  18.025  0.00  0.00    +0.000 A 
ATOM     10  C   UNL     1       8.811  15.189  18.443  0.00  0.00    +0.000 A 
ATOM     11  C   UNL     1       7.762  14.801  17.472  0.00  0.00    +0.000 C 
ATOM     12  C   UNL     1       7.716  13.295  17.333  0.00  0.00    +0.000 C 
ATOM     13  C   UNL     1       9.023  12.628  17.752  0.00  0.00    +0.000 A 
ATOM     14  C   UNL     1       8.932  11.284  18.133  0.00  0.00    +0.000 A 
ATOM     15  C   UNL     1      10.031  10.657  18.696  0.00  0.00    +0.000 A 
ATOM     16  C   UNL     1      11.245  11.342  18.794  0.00  0.00    +0.000 A 
ATOM     17  C   UNL     1      11.357  12.691  18.407  0.00  0.00    +0.000 A 
ATOM     18  C   UNL     1      10.234  13.385  17.943  0.00  0.00    +0.000 A 
ENDROOT
BRANCH   1  21
ATOM     19  C   UNL     1       5.942  14.314  22.123  0.00  0.00    +0.000 C 
ATOM     20  N   UNL     1       6.641  15.087  21.110  0.00  0.00    +0.000 N 
ATOM     21  C   UNL     1       7.871  14.575  20.648  0.00  0.00    +0.000 C 
ATOM     22  O   UNL     1       8.291  13.478  21.016  0.00  0.00    +0.000 OA
BRANCH  20  23
ATOM     23  C   UNL     1       6.038  16.376  20.742  0.00  0.00    +0.000 C 
BRANCH  23  24
ATOM     24  C   UNL     1       4.778  16.251  19.901  0.00  0.00    +0.000 A 
ATOM     25  C   UNL     1       3.518  16.672  20.357  0.00  0.00    +0.000 A 
ATOM     26  C   UNL     1       2.380  16.527  19.560  0.00  0.00    +0.000 A 
ATOM     27  C   UNL     1       2.478  15.960  18.290  0.00  0.00    +0.000 A 
ATOM     28  C   UNL     1       3.732  15.523  17.815  0.00  0.00    +0.000 A 
ATOM     29  C   UNL     1       4.862  15.675  18.620  0.00  0.00    +0.000 A 
ENDBRANCH  23  24
ENDBRANCH  20  23
ENDBRANCH   1  21
TORSDOF 3
ENDMDL
MODEL 9
REMARK VINA RESULT:      -7.2      6.835     10.709
REMARK  Name = 
REMARK  4 active torsions:
REMARK  status: ('A' for Active; 'I' for Inactive)
REMARK    1  A    between atoms: C_1  and  N_2
REMARK    2  A    between atoms: N_2  and  C_3
REMARK    3  A    between atoms: C_3  and  C_4
REMARK    4  A    between atoms: C_10  and  C_12
REMARK                            x       y       z     vdW  Elec       q    Type
REMARK                         _______ _______ _______ _____ _____    ______ ____
ROOT
ATOM      1  C   UNL     1       0.015  15.512  20.277  0.00  0.00    +0.000 A 
ATOM      2  N   UNL     1      -0.564  16.726  20.298  0.00  0.00    +0.000 NA
ATOM      3  C   UNL     1      -0.224  17.489  19.259  0.00  0.00    +0.000 A 
ATOM      4  C   UNL     1      -1.232  18.125  18.562  0.00  0.00    +0.000 A 
ATOM      5  C   UNL     1      -1.019  18.529  17.244  0.00  0.00    +0.000 A 
ATOM      6  C   UNL     1       0.260  18.466  16.688  0.00  0.00    +0.000 A 
ATOM      7  C   UNL     1       1.326  17.950  17.430  0.00  0.00    +0.000 A 
ATOM      8  C   UNL     1       1.065  17.370  18.676  0.00  0.00    +0.000 A 
ATOM      9  C   UNL     1       1.764  16.239  19.035  0.00  0.00    +0.000 A 
ATOM     10  C   UNL     1       0.893  15.200  19.265  0.00  0.00    +0.000 A 
ATOM     11  C   UNL     1       1.372  13.906  18.727  0.00  0.00    +0.000 C 
ATOM     12  C   UNL     1       2.626  13.474  19.454  0.00  0.00    +0.000 C 
ATOM     13  C   UNL     1       3.354  14.642  20.112  0.00  0.00    +0.000 A 
ATOM     14  C   UNL     1       4.196  14.318  21.182  0.00  0.00    +0.000 A 
ATOM     15  C   UNL     1       4.753  15.329  21.946  0.00  0.00    +0.000 A 
ATOM     16  C   UNL     1       4.542  16.664  21.588  0.00  0.00    +0.000 A 
ATOM     17  C   UNL     1       3.705  17.008  20.509  0.00  0.00    +0.000 A 
ATOM     18  C   UNL     1       3.037  16.010  19.790  0.00  0.00    +0.000 A 
ENDROOT
BRANCH   1  21
ATOM     19  C   UNL     1      -1.213  13.040  22.922  0.00  0.00    +0.000 C 
ATOM     20  N   UNL     1      -1.075  13.671  21.619  0.00  0.00    +0.000 N 
ATOM     21  C   UNL     1      -0.057  14.637  21.479  0.00  0.00    +0.000 C 
ATOM     22  O   UNL     1       0.739  14.871  22.388  0.00  0.00    +0.000 OA
BRANCH  20  23
ATOM     23  C   UNL     1      -2.077  13.305  20.608  0.00  0.00    +0.000 C 
BRANCH  23  24
ATOM     24  C   UNL     1      -1.658  12.151  19.712  0.00  0.00    +0.000 A 
ATOM     25  C   UNL     1      -0.622  11.266  20.050  0.00  0.00    +0.000 A 
ATOM     26  C   UNL     1      -0.256  10.226  19.192  0.00  0.00    +0.000 A 
ATOM     27  C   UNL     1      -0.920  10.048  17.979  0.00  0.00    +0.000 A 
ATOM     28  C   UNL     1      -1.959  10.930  17.615  0.00  0.00    +0.000 A 
ATOM     29  C   UNL     1      -2.316  11.964  18.482  0.00  0.00    +0.000 A 
ENDBRANCH  23  24
ENDBRANCH  20  23
ENDBRANCH   1  21
TORSDOF 3
ENDMDL
