MODEL 1
REMARK VINA RESULT:      -9.0      0.000      0.000
REMARK  Name = 
REMARK  8 active torsions:
REMARK  status: ('A' for Active; 'I' for Inactive)
REMARK    1  A    between atoms: C_1  and  C_2
REMARK    2  A    between atoms: C_2  and  C_3
REMARK    3  A    between atoms: C_6  and  C_7
REMARK    4  A    between atoms: C_6  and  C_8
REMARK    5  A    between atoms: C_11  and  C_12
REMARK    6  A    between atoms: C_12  and  C_14
REMARK    7  A    between atoms: C_19  and  C_20
REMARK    8  A    between atoms: C_20  and  O_22
REMARK                            x       y       z     vdW  Elec       q    Type
REMARK                         _______ _______ _______ _____ _____    ______ ____
ROOT
ATOM      1  C   UNL     1       0.504  11.099  18.760  0.00  0.00    +0.000 C 
ATOM      2  O   UNL     1       1.173  12.129  18.651  0.00  0.00    +0.000 OA
ENDROOT
BRANCH   1  13
ATOM      3  C   UNL     1      -5.591  12.522  17.465  0.00  0.00    +0.000 C 
ATOM      4  C   UNL     1      -5.287  11.728  18.755  0.00  0.00    +0.000 C 
ATOM      5  C   UNL     1      -6.049  10.383  18.684  0.00  0.00    +0.000 C 
ATOM      6  C   UNL     1      -5.837  12.490  19.981  0.00  0.00    +0.000 C 
ATOM      7  C   UNL     1      -4.977  13.693  20.345  0.00  0.00    +0.000 C 
ATOM      8  C   UNL     1      -3.543  13.283  20.741  0.00  0.00    +0.000 C 
ATOM      9  C   UNL     1      -2.713  14.588  20.812  0.00  0.00    +0.000 C 
ATOM     10  C   UNL     1      -3.543  12.631  22.145  0.00  0.00    +0.000 C 
ATOM     11  C   UNL     1      -2.956  12.286  19.729  0.00  0.00    +0.000 A 
ATOM     12  C   UNL     1      -1.558  12.081  19.694  0.00  0.00    +0.000 A 
ATOM     13  C   UNL     1      -0.965  11.201  18.785  0.00  0.00    +0.000 A 
ATOM     14  C   UNL     1      -1.769  10.437  17.958  0.00  0.00    +0.000 A 
ATOM     15  F   UNL     1      -1.259   9.521  17.125  0.00  0.00    +0.000 F 
ATOM     16  C   UNL     1      -3.149  10.614  17.968  0.00  0.00    +0.000 A 
ATOM     17  C   UNL     1      -3.767  11.530  18.846  0.00  0.00    +0.000 A 
ENDBRANCH   1  13
BRANCH   1  18
ATOM     18  C   UNL     1       1.202   9.798  18.854  0.00  0.00    +0.000 A 
ATOM     19  C   UNL     1       1.845   9.341  17.697  0.00  0.00    +0.000 A 
ATOM     20  C   UNL     1       2.554   8.149  17.722  0.00  0.00    +0.000 A 
ATOM     21  C   UNL     1       2.519   7.362  18.868  0.00  0.00    +0.000 A 
ATOM     22  C   UNL     1       3.148   6.134  18.848  0.00  0.00    +0.000 A 
ATOM     23  C   UNL     1       2.392   5.110  19.406  0.00  0.00    +0.000 A 
ATOM     24  C   UNL     1       1.666   5.385  20.568  0.00  0.00    +0.000 A 
ATOM     25  C   UNL     1       1.454   6.719  20.938  0.00  0.00    +0.000 A 
ATOM     26  C   UNL     1       1.736   7.717  19.986  0.00  0.00    +0.000 A 
ATOM     27  C   UNL     1       1.152   8.993  20.006  0.00  0.00    +0.000 A 
BRANCH  23  28
ATOM     28  C   UNL     1       1.837   4.114  18.443  0.00  0.00    +0.000 C 
ATOM     29  O   UNL     1       1.204   4.428  17.449  0.00  0.00    +0.000 OA
BRANCH  28  30
ATOM     30  O   UNL     1       2.152   2.830  18.737  0.00  0.00    +0.000 OA
ATOM     31  H   UNL     1       2.704   2.367  18.080  0.00  0.00    +0.000 HD
ENDBRANCH  28  30
ENDBRANCH  23  28
ENDBRANCH   1  18
TORSDOF 4
ENDMDL
MODEL 2
REMARK VINA RESULT:      -8.2      1.069      1.482
REMARK  Name = 
REMARK  8 active torsions:
REMARK  status: ('A' for Active; 'I' for Inactive)
REMARK    1  A    between atoms: C_1  and  C_2
REMARK    2  A    between atoms: C_2  and  C_3
REMARK    3  A    between atoms: C_6  and  C_7
REMARK    4  A    between atoms: C_6  and  C_8
REMARK    5  A    between atoms: C_11  and  C_12
REMARK    6  A    between atoms: C_12  and  C_14
REMARK    7  A    between atoms: C_19  and  C_20
REMARK    8  A    between atoms: C_20  and  O_22
REMARK                            x       y       z     vdW  Elec       q    Type
REMARK                         _______ _______ _______ _____ _____    ______ ____
ROOT
ATOM      1  C   UNL     1       0.750  11.296  18.794  0.00  0.00    +0.000 C 
ATOM      2  O   UNL     1       1.428  12.202  18.304  0.00  0.00    +0.000 OA
ENDROOT
BRANCH   1  13
ATOM      3  C   UNL     1      -4.882  14.085  19.957  0.00  0.00    +0.000 C 
ATOM      4  C   UNL     1      -4.593  12.721  20.623  0.00  0.00    +0.000 C 
ATOM      5  C   UNL     1      -5.684  11.722  20.166  0.00  0.00    +0.000 C 
ATOM      6  C   UNL     1      -4.718  12.851  22.157  0.00  0.00    +0.000 C 
ATOM      7  C   UNL     1      -3.526  13.568  22.773  0.00  0.00    +0.000 C 
ATOM      8  C   UNL     1      -2.205  12.802  22.544  0.00  0.00    +0.000 C 
ATOM      9  C   UNL     1      -1.061  13.757  22.964  0.00  0.00    +0.000 C 
ATOM     10  C   UNL     1      -2.151  11.550  23.453  0.00  0.00    +0.000 C 
ATOM     11  C   UNL     1      -2.072  12.360  21.078  0.00  0.00    +0.000 A 
ATOM     12  C   UNL     1      -0.803  11.989  20.582  0.00  0.00    +0.000 A 
ATOM     13  C   UNL     1      -0.617  11.595  19.254  0.00  0.00    +0.000 A 
ATOM     14  C   UNL     1      -1.716  11.473  18.423  0.00  0.00    +0.000 A 
ATOM     15  F   UNL     1      -1.606  11.024  17.166  0.00  0.00    +0.000 F 
ATOM     16  C   UNL     1      -2.980  11.831  18.881  0.00  0.00    +0.000 A 
ATOM     17  C   UNL     1      -3.186  12.275  20.204  0.00  0.00    +0.000 A 
ENDBRANCH   1  13
BRANCH   1  18
ATOM     18  C   UNL     1       1.332   9.939  18.892  0.00  0.00    +0.000 A 
ATOM     19  C   UNL     1       1.894   9.406  17.726  0.00  0.00    +0.000 A 
ATOM     20  C   UNL     1       2.494   8.156  17.754  0.00  0.00    +0.000 A 
ATOM     21  C   UNL     1       2.425   7.395  18.916  0.00  0.00    +0.000 A 
ATOM     22  C   UNL     1       2.942   6.115  18.902  0.00  0.00    +0.000 A 
ATOM     23  C   UNL     1       2.115   5.173  19.503  0.00  0.00    +0.000 A 
ATOM     24  C   UNL     1       1.454   5.533  20.680  0.00  0.00    +0.000 A 
ATOM     25  C   UNL     1       1.373   6.886  21.029  0.00  0.00    +0.000 A 
ATOM     26  C   UNL     1       1.713   7.838  20.050  0.00  0.00    +0.000 A 
ATOM     27  C   UNL     1       1.246   9.162  20.062  0.00  0.00    +0.000 A 
BRANCH  23  28
ATOM     28  C   UNL     1       1.443   4.215  18.577  0.00  0.00    +0.000 C 
ATOM     29  O   UNL     1       1.256   4.448  17.395  0.00  0.00    +0.000 OA
BRANCH  28  30
ATOM     30  O   UNL     1       1.113   3.034  19.153  0.00  0.00    +0.000 OA
ATOM     31  H   UNL     1       1.512   2.861  20.026  0.00  0.00    +0.000 HD
ENDBRANCH  28  30
ENDBRANCH  23  28
ENDBRANCH   1  18
TORSDOF 4
ENDMDL
MODEL 3
REMARK VINA RESULT:      -8.1      3.291      9.493
REMARK  Name = 
REMARK  8 active torsions:
REMARK  status: ('A' for Active; 'I' for Inactive)
REMARK    1  A    between atoms: C_1  and  C_2
REMARK    2  A    between atoms: C_2  and  C_3
REMARK    3  A    between atoms: C_6  and  C_7
REMARK    4  A    between atoms: C_6  and  C_8
REMARK    5  A    between atoms: C_11  and  C_12
REMARK    6  A    between atoms: C_12  and  C_14
REMARK    7  A    between atoms: C_19  and  C_20
REMARK    8  A    between atoms: C_20  and  O_22
REMARK                            x       y       z     vdW  Elec       q    Type
REMARK                         _______ _______ _______ _____ _____    ______ ____
ROOT
ATOM      1  C   UNL     1       2.352   6.104  20.155  0.00  0.00    +0.000 C 
ATOM      2  O   UNL     1       2.280   5.371  21.144  0.00  0.00    +0.000 OA
ENDROOT
BRANCH   1  13
ATOM      3  C   UNL     1       5.727   2.691  15.935  0.00  0.00    +0.000 C 
ATOM      4  C   UNL     1       5.663   4.223  15.748  0.00  0.00    +0.000 C 
ATOM      5  C   UNL     1       5.052   4.513  14.356  0.00  0.00    +0.000 C 
ATOM      6  C   UNL     1       7.093   4.810  15.741  0.00  0.00    +0.000 C 
ATOM      7  C   UNL     1       7.701   4.859  17.135  0.00  0.00    +0.000 C 
ATOM      8  C   UNL     1       6.900   5.773  18.087  0.00  0.00    +0.000 C 
ATOM      9  C   UNL     1       7.448   5.518  19.512  0.00  0.00    +0.000 C 
ATOM     10  C   UNL     1       7.145   7.260  17.730  0.00  0.00    +0.000 C 
ATOM     11  C   UNL     1       5.393   5.480  17.993  0.00  0.00    +0.000 A 
ATOM     12  C   UNL     1       4.539   5.924  19.026  0.00  0.00    +0.000 A 
ATOM     13  C   UNL     1       3.164   5.674  19.005  0.00  0.00    +0.000 A 
ATOM     14  C   UNL     1       2.606   5.056  17.900  0.00  0.00    +0.000 A 
ATOM     15  F   UNL     1       1.285   4.861  17.791  0.00  0.00    +0.000 F 
ATOM     16  C   UNL     1       3.419   4.606  16.865  0.00  0.00    +0.000 A 
ATOM     17  C   UNL     1       4.816   4.807  16.886  0.00  0.00    +0.000 A 
ENDBRANCH   1  13
BRANCH   1  18
ATOM     18  C   UNL     1       1.612   7.386  20.158  0.00  0.00    +0.000 A 
ATOM     19  C   UNL     1       1.854   8.258  19.090  0.00  0.00    +0.000 A 
ATOM     20  C   UNL     1       1.165   9.459  19.006  0.00  0.00    +0.000 A 
ATOM     21  C   UNL     1       0.327   9.835  20.049  0.00  0.00    +0.000 A 
ATOM     22  C   UNL     1      -0.278  11.075  19.999  0.00  0.00    +0.000 A 
ATOM     23  C   UNL     1      -0.225  11.771  21.201  0.00  0.00    +0.000 A 
ATOM     24  C   UNL     1      -0.432  11.058  22.385  0.00  0.00    +0.000 A 
ATOM     25  C   UNL     1      -0.353   9.660  22.360  0.00  0.00    +0.000 A 
ATOM     26  C   UNL     1       0.201   9.054  21.217  0.00  0.00    +0.000 A 
ATOM     27  C   UNL     1       0.778   7.775  21.222  0.00  0.00    +0.000 A 
BRANCH  23  28
ATOM     28  C   UNL     1       0.699  12.943  21.233  0.00  0.00    +0.000 C 
ATOM     29  O   UNL     1       1.913  12.835  21.237  0.00  0.00    +0.000 OA
BRANCH  28  30
ATOM     30  O   UNL     1       0.068  14.142  21.193  0.00  0.00    +0.000 OA
ATOM     31  H   UNL     1       0.192  14.659  20.376  0.00  0.00    +0.000 HD
ENDBRANCH  28  30
ENDBRANCH  23  28
ENDBRANCH   1  18
TORSDOF 4
ENDMDL
MODEL 4
REMARK VINA RESULT:      -8.1      2.624      8.728
REMARK  Name = 
REMARK  8 active torsions:
REMARK  status: ('A' for Active; 'I' for Inactive)
REMARK    1  A    between atoms: C_1  and  C_2
REMARK    2  A    between atoms: C_2  and  C_3
REMARK    3  A    between atoms: C_6  and  C_7
REMARK    4  A    between atoms: C_6  and  C_8
REMARK    5  A    between atoms: C_11  and  C_12
REMARK    6  A    between atoms: C_12  and  C_14
REMARK    7  A    between atoms: C_19  and  C_20
REMARK    8  A    between atoms: C_20  and  O_22
REMARK                            x       y       z     vdW  Elec       q    Type
REMARK                         _______ _______ _______ _____ _____    ______ ____
ROOT
ATOM      1  C   UNL     1       1.480   8.336  20.452  0.00  0.00    +0.000 C 
ATOM      2  O   UNL     1       1.726   8.494  21.650  0.00  0.00    +0.000 OA
ENDROOT
BRANCH   1  13
ATOM      3  C   UNL     1       2.817   3.684  16.278  0.00  0.00    +0.000 C 
ATOM      4  C   UNL     1       3.683   3.789  17.554  0.00  0.00    +0.000 C 
ATOM      5  C   UNL     1       5.155   3.994  17.121  0.00  0.00    +0.000 C 
ATOM      6  C   UNL     1       3.627   2.459  18.337  0.00  0.00    +0.000 C 
ATOM      7  C   UNL     1       2.307   2.279  19.072  0.00  0.00    +0.000 C 
ATOM      8  C   UNL     1       2.079   3.376  20.134  0.00  0.00    +0.000 C 
ATOM      9  C   UNL     1       0.609   3.242  20.601  0.00  0.00    +0.000 C 
ATOM     10  C   UNL     1       3.001   3.135  21.355  0.00  0.00    +0.000 C 
ATOM     11  C   UNL     1       2.372   4.770  19.557  0.00  0.00    +0.000 A 
ATOM     12  C   UNL     1       1.875   5.911  20.225  0.00  0.00    +0.000 A 
ATOM     13  C   UNL     1       2.094   7.203  19.740  0.00  0.00    +0.000 A 
ATOM     14  C   UNL     1       2.897   7.382  18.627  0.00  0.00    +0.000 A 
ATOM     15  F   UNL     1       3.205   8.601  18.165  0.00  0.00    +0.000 F 
ATOM     16  C   UNL     1       3.402   6.279  17.946  0.00  0.00    +0.000 A 
ATOM     17  C   UNL     1       3.156   4.963  18.392  0.00  0.00    +0.000 A 
ENDBRANCH   1  13
BRANCH   1  18
ATOM     18  C   UNL     1       0.569   9.287  19.777  0.00  0.00    +0.000 A 
ATOM     19  C   UNL     1       0.095  10.360  20.542  0.00  0.00    +0.000 A 
ATOM     20  C   UNL     1      -0.729  11.313  19.963  0.00  0.00    +0.000 A 
ATOM     21  C   UNL     1      -1.171  11.127  18.658  0.00  0.00    +0.000 A 
ATOM     22  C   UNL     1      -2.068  12.032  18.127  0.00  0.00    +0.000 A 
ATOM     23  C   UNL     1      -3.120  11.438  17.440  0.00  0.00    +0.000 A 
ATOM     24  C   UNL     1      -2.837  10.336  16.628  0.00  0.00    +0.000 A 
ATOM     25  C   UNL     1      -1.614   9.672  16.782  0.00  0.00    +0.000 A 
ATOM     26  C   UNL     1      -0.848   9.966  17.925  0.00  0.00    +0.000 A 
ATOM     27  C   UNL     1       0.109   9.090  18.463  0.00  0.00    +0.000 A 
BRANCH  23  28
ATOM     28  C   UNL     1      -4.451  11.500  18.111  0.00  0.00    +0.000 C 
ATOM     29  O   UNL     1      -5.141  10.516  18.317  0.00  0.00    +0.000 OA
BRANCH  28  30
ATOM     30  O   UNL     1      -4.799  12.740  18.530  0.00  0.00    +0.000 OA
ATOM     31  H   UNL     1      -4.644  13.462  17.893  0.00  0.00    +0.000 HD
ENDBRANCH  28  30
ENDBRANCH  23  28
ENDBRANCH   1  18
TORSDOF 4
ENDMDL
MODEL 5
REMARK VINA RESULT:      -7.8      2.642      4.212
REMARK  Name = 
REMARK  8 active torsions:
REMARK  status: ('A' for Active; 'I' for Inactive)
REMARK    1  A    between atoms: C_1  and  C_2
REMARK    2  A    between atoms: C_2  and  C_3
REMARK    3  A    between atoms: C_6  and  C_7
REMARK    4  A    between atoms: C_6  and  C_8
REMARK    5  A    between atoms: C_11  and  C_12
REMARK    6  A    between atoms: C_12  and  C_14
REMARK    7  A    between atoms: C_19  and  C_20
REMARK    8  A    between atoms: C_20  and  O_22
REMARK                            x       y       z     vdW  Elec       q    Type
REMARK                         _______ _______ _______ _____ _____    ______ ____
ROOT
ATOM      1  C   UNL     1       0.605   9.982  18.431  0.00  0.00    +0.000 C 
ATOM      2  O   UNL     1      -0.400   9.824  17.734  0.00  0.00    +0.000 OA
ENDROOT
BRANCH   1  13
ATOM      3  C   UNL     1       2.941  14.844  21.860  0.00  0.00    +0.000 C 
ATOM      4  C   UNL     1       1.713  15.110  20.961  0.00  0.00    +0.000 C 
ATOM      5  C   UNL     1       2.087  16.223  19.952  0.00  0.00    +0.000 C 
ATOM      6  C   UNL     1       0.546  15.654  21.815  0.00  0.00    +0.000 C 
ATOM      7  C   UNL     1      -0.117  14.564  22.645  0.00  0.00    +0.000 C 
ATOM      8  C   UNL     1      -0.747  13.465  21.764  0.00  0.00    +0.000 C 
ATOM      9  C   UNL     1      -1.130  12.303  22.712  0.00  0.00    +0.000 C 
ATOM     10  C   UNL     1      -2.039  13.993  21.095  0.00  0.00    +0.000 C 
ATOM     11  C   UNL     1       0.231  13.010  20.668  0.00  0.00    +0.000 A 
ATOM     12  C   UNL     1       0.005  11.781  20.009  0.00  0.00    +0.000 A 
ATOM     13  C   UNL     1       0.868  11.307  19.017  0.00  0.00    +0.000 A 
ATOM     14  C   UNL     1       1.920  12.101  18.599  0.00  0.00    +0.000 A 
ATOM     15  F   UNL     1       2.731  11.732  17.598  0.00  0.00    +0.000 F 
ATOM     16  C   UNL     1       2.171  13.317  19.227  0.00  0.00    +0.000 A 
ATOM     17  C   UNL     1       1.339  13.795  20.262  0.00  0.00    +0.000 A 
ENDBRANCH   1  13
BRANCH   1  18
ATOM     18  C   UNL     1       1.506   8.831  18.658  0.00  0.00    +0.000 A 
ATOM     19  C   UNL     1       2.406   8.520  17.632  0.00  0.00    +0.000 A 
ATOM     20  C   UNL     1       3.309   7.479  17.792  0.00  0.00    +0.000 A 
ATOM     21  C   UNL     1       3.229   6.680  18.927  0.00  0.00    +0.000 A 
ATOM     22  C   UNL     1       4.069   5.589  19.030  0.00  0.00    +0.000 A 
ATOM     23  C   UNL     1       3.432   4.434  19.469  0.00  0.00    +0.000 A 
ATOM     24  C   UNL     1       2.485   4.551  20.489  0.00  0.00    +0.000 A 
ATOM     25  C   UNL     1       1.971   5.816  20.799  0.00  0.00    +0.000 A 
ATOM     26  C   UNL     1       2.219   6.865  19.894  0.00  0.00    +0.000 A 
ATOM     27  C   UNL     1       1.414   8.011  19.798  0.00  0.00    +0.000 A 
BRANCH  23  28
ATOM     28  C   UNL     1       3.239   3.369  18.441  0.00  0.00    +0.000 C 
ATOM     29  O   UNL     1       2.146   3.061  17.997  0.00  0.00    +0.000 OA
BRANCH  28  30
ATOM     30  O   UNL     1       4.394   2.817  17.997  0.00  0.00    +0.000 OA
ATOM     31  H   UNL     1       4.341   2.358  17.138  0.00  0.00    +0.000 HD
ENDBRANCH  28  30
ENDBRANCH  23  28
ENDBRANCH   1  18
TORSDOF 4
ENDMDL
MODEL 6
REMARK VINA RESULT:      -7.8      3.062      9.454
REMARK  Name = 
REMARK  8 active torsions:
REMARK  status: ('A' for Active; 'I' for Inactive)
REMARK    1  A    between atoms: C_1  and  C_2
REMARK    2  A    between atoms: C_2  and  C_3
REMARK    3  A    between atoms: C_6  and  C_7
REMARK    4  A    between atoms: C_6  and  C_8
REMARK    5  A    between atoms: C_11  and  C_12
REMARK    6  A    between atoms: C_12  and  C_14
REMARK    7  A    between atoms: C_19  and  C_20
REMARK    8  A    between atoms: C_20  and  O_22
REMARK                            x       y       z     vdW  Elec       q    Type
REMARK                         _______ _______ _______ _____ _____    ______ ____
ROOT
ATOM      1  C   UNL     1       2.203   6.071  20.095  0.00  0.00    +0.000 C 
ATOM      2  O   UNL     1       1.847   5.233  20.927  0.00  0.00    +0.000 OA
ENDROOT
BRANCH   1  13
ATOM      3  C   UNL     1       5.698   2.672  15.963  0.00  0.00    +0.000 C 
ATOM      4  C   UNL     1       5.631   4.204  15.772  0.00  0.00    +0.000 C 
ATOM      5  C   UNL     1       5.052   4.489  14.365  0.00  0.00    +0.000 C 
ATOM      6  C   UNL     1       7.056   4.798  15.799  0.00  0.00    +0.000 C 
ATOM      7  C   UNL     1       7.630   4.853  17.208  0.00  0.00    +0.000 C 
ATOM      8  C   UNL     1       6.801   5.763  18.139  0.00  0.00    +0.000 C 
ATOM      9  C   UNL     1       7.317   5.513  19.577  0.00  0.00    +0.000 C 
ATOM     10  C   UNL     1       7.047   7.250  17.786  0.00  0.00    +0.000 C 
ATOM     11  C   UNL     1       5.299   5.462  18.008  0.00  0.00    +0.000 A 
ATOM     12  C   UNL     1       4.417   5.902  19.020  0.00  0.00    +0.000 A 
ATOM     13  C   UNL     1       3.045   5.644  18.965  0.00  0.00    +0.000 A 
ATOM     14  C   UNL     1       2.517   5.022  17.849  0.00  0.00    +0.000 A 
ATOM     15  F   UNL     1       1.200   4.820  17.708  0.00  0.00    +0.000 F 
ATOM     16  C   UNL     1       3.358   4.575  16.834  0.00  0.00    +0.000 A 
ATOM     17  C   UNL     1       4.753   4.785  16.889  0.00  0.00    +0.000 A 
ENDBRANCH   1  13
BRANCH   1  18
ATOM     18  C   UNL     1       1.763   7.475  20.260  0.00  0.00    +0.000 A 
ATOM     19  C   UNL     1       1.160   7.810  21.478  0.00  0.00    +0.000 A 
ATOM     20  C   UNL     1       0.760   9.116  21.718  0.00  0.00    +0.000 A 
ATOM     21  C   UNL     1       0.856  10.054  20.696  0.00  0.00    +0.000 A 
ATOM     22  C   UNL     1       0.366  11.325  20.916  0.00  0.00    +0.000 A 
ATOM     23  C   UNL     1      -0.390  11.822  19.861  0.00  0.00    +0.000 A 
ATOM     24  C   UNL     1       0.054  11.575  18.559  0.00  0.00    +0.000 A 
ATOM     25  C   UNL     1       1.021  10.585  18.346  0.00  0.00    +0.000 A 
ATOM     26  C   UNL     1       1.298   9.700  19.404  0.00  0.00    +0.000 A 
ATOM     27  C   UNL     1       1.844   8.419  19.221  0.00  0.00    +0.000 A 
BRANCH  23  28
ATOM     28  C   UNL     1      -1.859  11.916  20.102  0.00  0.00    +0.000 C 
ATOM     29  O   UNL     1      -2.339  12.295  21.157  0.00  0.00    +0.000 OA
BRANCH  28  30
ATOM     30  O   UNL     1      -2.615  11.603  19.023  0.00  0.00    +0.000 OA
ATOM     31  H   UNL     1      -2.894  12.354  18.467  0.00  0.00    +0.000 HD
ENDBRANCH  28  30
ENDBRANCH  23  28
ENDBRANCH   1  18
TORSDOF 4
ENDMDL
MODEL 7
REMARK VINA RESULT:      -7.8      1.478      2.934
REMARK  Name = 
REMARK  8 active torsions:
REMARK  status: ('A' for Active; 'I' for Inactive)
REMARK    1  A    between atoms: C_1  and  C_2
REMARK    2  A    between atoms: C_2  and  C_3
REMARK    3  A    between atoms: C_6  and  C_7
REMARK    4  A    between atoms: C_6  and  C_8
REMARK    5  A    between atoms: C_11  and  C_12
REMARK    6  A    between atoms: C_12  and  C_14
REMARK    7  A    between atoms: C_19  and  C_20
REMARK    8  A    between atoms: C_20  and  O_22
REMARK                            x       y       z     vdW  Elec       q    Type
REMARK                         _______ _______ _______ _____ _____    ______ ____
ROOT
ATOM      1  C   UNL     1       1.888  10.279  18.188  0.00  0.00    +0.000 C 
ATOM      2  O   UNL     1       2.617  10.890  17.402  0.00  0.00    +0.000 OA
ENDROOT
BRANCH   1  13
ATOM      3  C   UNL     1      -3.011  12.066  21.884  0.00  0.00    +0.000 C 
ATOM      4  C   UNL     1      -2.826  12.777  20.525  0.00  0.00    +0.000 C 
ATOM      5  C   UNL     1      -2.647  14.291  20.794  0.00  0.00    +0.000 C 
ATOM      6  C   UNL     1      -4.107  12.622  19.674  0.00  0.00    +0.000 C 
ATOM      7  C   UNL     1      -4.242  11.224  19.088  0.00  0.00    +0.000 C 
ATOM      8  C   UNL     1      -3.082  10.881  18.129  0.00  0.00    +0.000 C 
ATOM      9  C   UNL     1      -3.188   9.365  17.830  0.00  0.00    +0.000 C 
ATOM     10  C   UNL     1      -3.247  11.651  16.796  0.00  0.00    +0.000 C 
ATOM     11  C   UNL     1      -1.726  11.248  18.752  0.00  0.00    +0.000 A 
ATOM     12  C   UNL     1      -0.546  10.683  18.218  0.00  0.00    +0.000 A 
ATOM     13  C   UNL     1       0.714  10.965  18.753  0.00  0.00    +0.000 A 
ATOM     14  C   UNL     1       0.825  11.894  19.773  0.00  0.00    +0.000 A 
ATOM     15  F   UNL     1       2.013  12.261  20.269  0.00  0.00    +0.000 F 
ATOM     16  C   UNL     1      -0.318  12.468  20.321  0.00  0.00    +0.000 A 
ATOM     17  C   UNL     1      -1.604  12.164  19.828  0.00  0.00    +0.000 A 
ENDBRANCH   1  13
BRANCH   1  18
ATOM     18  C   UNL     1       2.216   8.877  18.526  0.00  0.00    +0.000 A 
ATOM     19  C   UNL     1       2.946   8.151  17.578  0.00  0.00    +0.000 A 
ATOM     20  C   UNL     1       3.324   6.844  17.845  0.00  0.00    +0.000 A 
ATOM     21  C   UNL     1       2.871   6.230  19.006  0.00  0.00    +0.000 A 
ATOM     22  C   UNL     1       3.174   4.899  19.214  0.00  0.00    +0.000 A 
ATOM     23  C   UNL     1       2.096   4.145  19.662  0.00  0.00    +0.000 A 
ATOM     24  C   UNL     1       1.242   4.714  20.610  0.00  0.00    +0.000 A 
ATOM     25  C   UNL     1       1.291   6.096  20.828  0.00  0.00    +0.000 A 
ATOM     26  C   UNL     1       1.991   6.883  19.895  0.00  0.00    +0.000 A 
ATOM     27  C   UNL     1       1.743   8.250  19.693  0.00  0.00    +0.000 A 
BRANCH  23  28
ATOM     28  C   UNL     1       1.519   3.188  18.673  0.00  0.00    +0.000 C 
ATOM     29  O   UNL     1       1.071   3.533  17.592  0.00  0.00    +0.000 OA
BRANCH  28  30
ATOM     30  O   UNL     1       1.593   1.890  19.055  0.00  0.00    +0.000 OA
ATOM     31  H   UNL     1       2.314   1.671  19.673  0.00  0.00    +0.000 HD
ENDBRANCH  28  30
ENDBRANCH  23  28
ENDBRANCH   1  18
TORSDOF 4
ENDMDL
MODEL 8
REMARK VINA RESULT:      -7.7      3.219      4.723
REMARK  Name = 
REMARK  8 active torsions:
REMARK  status: ('A' for Active; 'I' for Inactive)
REMARK    1  A    between atoms: C_1  and  C_2
REMARK    2  A    between atoms: C_2  and  C_3
REMARK    3  A    between atoms: C_6  and  C_7
REMARK    4  A    between atoms: C_6  and  C_8
REMARK    5  A    between atoms: C_11  and  C_12
REMARK    6  A    between atoms: C_12  and  C_14
REMARK    7  A    between atoms: C_19  and  C_20
REMARK    8  A    between atoms: C_20  and  O_22
REMARK                            x       y       z     vdW  Elec       q    Type
REMARK                         _______ _______ _______ _____ _____    ______ ____
ROOT
ATOM      1  C   UNL     1      -0.064  10.920  19.752  0.00  0.00    +0.000 C 
ATOM      2  O   UNL     1      -1.160  10.697  20.271  0.00  0.00    +0.000 OA
ENDROOT
BRANCH   1  13
ATOM      3  C   UNL     1       2.637  16.192  17.352  0.00  0.00    +0.000 C 
ATOM      4  C   UNL     1       1.691  16.345  18.564  0.00  0.00    +0.000 C 
ATOM      5  C   UNL     1       0.533  17.288  18.155  0.00  0.00    +0.000 C 
ATOM      6  C   UNL     1       2.438  17.033  19.728  0.00  0.00    +0.000 C 
ATOM      7  C   UNL     1       3.412  16.092  20.423  0.00  0.00    +0.000 C 
ATOM      8  C   UNL     1       2.695  14.886  21.066  0.00  0.00    +0.000 C 
ATOM      9  C   UNL     1       3.800  13.886  21.485  0.00  0.00    +0.000 C 
ATOM     10  C   UNL     1       1.937  15.334  22.340  0.00  0.00    +0.000 C 
ATOM     11  C   UNL     1       1.693  14.254  20.087  0.00  0.00    +0.000 A 
ATOM     12  C   UNL     1       1.221  12.945  20.332  0.00  0.00    +0.000 A 
ATOM     13  C   UNL     1       0.323  12.312  19.468  0.00  0.00    +0.000 A 
ATOM     14  C   UNL     1      -0.194  13.014  18.394  0.00  0.00    +0.000 A 
ATOM     15  F   UNL     1      -1.117  12.485  17.581  0.00  0.00    +0.000 F 
ATOM     16  C   UNL     1       0.250  14.306  18.125  0.00  0.00    +0.000 A 
ATOM     17  C   UNL     1       1.191  14.949  18.957  0.00  0.00    +0.000 A 
ENDBRANCH   1  13
BRANCH   1  18
ATOM     18  C   UNL     1       0.827   9.779  19.442  0.00  0.00    +0.000 A 
ATOM     19  C   UNL     1       1.298   9.684  18.128  0.00  0.00    +0.000 A 
ATOM     20  C   UNL     1       2.170   8.664  17.776  0.00  0.00    +0.000 A 
ATOM     21  C   UNL     1       2.471   7.677  18.707  0.00  0.00    +0.000 A 
ATOM     22  C   UNL     1       3.262   6.616  18.315  0.00  0.00    +0.000 A 
ATOM     23  C   UNL     1       2.788   5.380  18.739  0.00  0.00    +0.000 A 
ATOM     24  C   UNL     1       2.264   5.283  20.031  0.00  0.00    +0.000 A 
ATOM     25  C   UNL     1       1.928   6.456  20.718  0.00  0.00    +0.000 A 
ATOM     26  C   UNL     1       1.872   7.654  19.983  0.00  0.00    +0.000 A 
ATOM     27  C   UNL     1       1.118   8.771  20.379  0.00  0.00    +0.000 A 
BRANCH  23  28
ATOM     28  C   UNL     1       2.215   4.504  17.675  0.00  0.00    +0.000 C 
ATOM     29  O   UNL     1       1.023   4.455  17.422  0.00  0.00    +0.000 OA
BRANCH  28  30
ATOM     30  O   UNL     1       3.144   3.815  16.971  0.00  0.00    +0.000 OA
ATOM     31  H   UNL     1       3.035   2.846  16.959  0.00  0.00    +0.000 HD
ENDBRANCH  28  30
ENDBRANCH  23  28
ENDBRANCH   1  18
TORSDOF 4
ENDMDL
MODEL 9
REMARK VINA RESULT:      -7.6      1.896      3.687
REMARK  Name = 
REMARK  8 active torsions:
REMARK  status: ('A' for Active; 'I' for Inactive)
REMARK    1  A    between atoms: C_1  and  C_2
REMARK    2  A    between atoms: C_2  and  C_3
REMARK    3  A    between atoms: C_6  and  C_7
REMARK    4  A    between atoms: C_6  and  C_8
REMARK    5  A    between atoms: C_11  and  C_12
REMARK    6  A    between atoms: C_12  and  C_14
REMARK    7  A    between atoms: C_19  and  C_20
REMARK    8  A    between atoms: C_20  and  O_22
REMARK                            x       y       z     vdW  Elec       q    Type
REMARK                         _______ _______ _______ _____ _____    ______ ____
ROOT
ATOM      1  C   UNL     1       1.786   9.155  18.286  0.00  0.00    +0.000 C 
ATOM      2  O   UNL     1       2.646   9.556  17.498  0.00  0.00    +0.000 OA
ENDROOT
BRANCH   1  13
ATOM      3  C   UNL     1      -2.782  12.096  21.653  0.00  0.00    +0.000 C 
ATOM      4  C   UNL     1      -2.388  12.693  20.283  0.00  0.00    +0.000 C 
ATOM      5  C   UNL     1      -1.903  14.145  20.512  0.00  0.00    +0.000 C 
ATOM      6  C   UNL     1      -3.632  12.775  19.370  0.00  0.00    +0.000 C 
ATOM      7  C   UNL     1      -4.036  11.413  18.824  0.00  0.00    +0.000 C 
ATOM      8  C   UNL     1      -2.933  10.791  17.941  0.00  0.00    +0.000 C 
ATOM      9  C   UNL     1      -3.346   9.320  17.687  0.00  0.00    +0.000 C 
ATOM     10  C   UNL     1      -2.869  11.520  16.577  0.00  0.00    +0.000 C 
ATOM     11  C   UNL     1      -1.559  10.889  18.624  0.00  0.00    +0.000 A 
ATOM     12  C   UNL     1      -0.505  10.065  18.172  0.00  0.00    +0.000 A 
ATOM     13  C   UNL     1       0.761  10.098  18.764  0.00  0.00    +0.000 A 
ATOM     14  C   UNL     1       1.021  11.025  19.757  0.00  0.00    +0.000 A 
ATOM     15  F   UNL     1       2.237  11.154  20.305  0.00  0.00    +0.000 F 
ATOM     16  C   UNL     1       0.004  11.851  20.225  0.00  0.00    +0.000 A 
ATOM     17  C   UNL     1      -1.295  11.805  19.673  0.00  0.00    +0.000 A 
ENDBRANCH   1  13
BRANCH   1  18
ATOM     18  C   UNL     1       1.812   7.739  18.715  0.00  0.00    +0.000 A 
ATOM     19  C   UNL     1       1.935   7.496  20.088  0.00  0.00    +0.000 A 
ATOM     20  C   UNL     1       1.924   6.195  20.567  0.00  0.00    +0.000 A 
ATOM     21  C   UNL     1       1.911   5.139  19.662  0.00  0.00    +0.000 A 
ATOM     22  C   UNL     1       1.999   3.850  20.147  0.00  0.00    +0.000 A 
ATOM     23  C   UNL     1       2.889   3.048  19.442  0.00  0.00    +0.000 A 
ATOM     24  C   UNL     1       2.917   3.161  18.049  0.00  0.00    +0.000 A 
ATOM     25  C   UNL     1       2.318   4.273  17.445  0.00  0.00    +0.000 A 
ATOM     26  C   UNL     1       1.963   5.356  18.269  0.00  0.00    +0.000 A 
ATOM     27  C   UNL     1       1.816   6.671  17.800  0.00  0.00    +0.000 A 
BRANCH  23  28
ATOM     28  C   UNL     1       4.157   2.708  20.151  0.00  0.00    +0.000 C 
ATOM     29  O   UNL     1       4.188   2.135  21.227  0.00  0.00    +0.000 OA
BRANCH  28  30
ATOM     30  O   UNL     1       5.277   3.036  19.462  0.00  0.00    +0.000 OA
ATOM     31  H   UNL     1       5.323   3.955  19.140  0.00  0.00    +0.000 HD
ENDBRANCH  28  30
ENDBRANCH  23  28
ENDBRANCH   1  18
TORSDOF 4
ENDMDL
