MODEL 1
REMARK VINA RESULT:      -8.1      0.000      0.000
REMARK  Name = 
REMARK  4 active torsions:
REMARK  status: ('A' for Active; 'I' for Inactive)
REMARK    1  A    between atoms: C_3  and  S_4
REMARK    2  A    between atoms: S_4  and  C_5
REMARK    3  A    between atoms: C_11  and  C_12
REMARK    4  A    between atoms: N_17  and  C_18
REMARK                            x       y       z     vdW  Elec       q    Type
REMARK                         _______ _______ _______ _____ _____    ______ ____
ROOT
ATOM      1  O   UNL     1       2.832   8.021  17.944  0.00  0.00    +0.000 OA
ATOM      2  C   UNL     1       2.599   7.225  18.838  0.00  0.00    +0.000 A 
ATOM      3  C   UNL     1       3.101   5.818  18.868  0.00  0.00    +0.000 A 
ATOM      4  C   UNL     1       2.601   5.273  19.989  0.00  0.00    +0.000 A 
ATOM      5  N   UNL     1       1.914   6.217  20.769  0.00  0.00    +0.000 N 
ATOM      6  N   UNL     1       1.853   7.391  20.010  0.00  0.00    +0.000 N 
ATOM      7  H   UNL     1       1.005   5.873  21.093  0.00  0.00    +0.000 HD
ENDROOT
BRANCH   6   8
ATOM      8  C   UNL     1       1.271   8.566  20.528  0.00  0.00    +0.000 A 
ATOM      9  C   UNL     1       1.092   8.730  21.908  0.00  0.00    +0.000 A 
ATOM     10  C   UNL     1       0.454   9.863  22.422  0.00  0.00    +0.000 A 
ATOM     11  C   UNL     1      -0.012  10.850  21.560  0.00  0.00    +0.000 A 
ATOM     12  C   UNL     1       0.180  10.718  20.188  0.00  0.00    +0.000 A 
ATOM     13  C   UNL     1       0.829   9.589  19.675  0.00  0.00    +0.000 A 
ENDBRANCH   6   8
BRANCH   4  14
ATOM     14  C   UNL     1       2.660   3.826  20.375  0.00  0.00    +0.000 C 
ATOM     15  F   UNL     1       2.316   3.657  21.682  0.00  0.00    +0.000 F 
ATOM     16  F   UNL     1       1.794   3.068  19.658  0.00  0.00    +0.000 F 
ATOM     17  F   UNL     1       3.894   3.290  20.221  0.00  0.00    +0.000 F 
ENDBRANCH   4  14
BRANCH   3  18
ATOM     18  S   UNL     1       3.966   5.131  17.576  0.00  0.00    +0.000 S 
BRANCH  18  19
ATOM     19  C   UNL     1       5.602   5.747  17.942  0.00  0.00    +0.000 A 
ATOM     20  C   UNL     1       6.116   6.801  17.179  0.00  0.00    +0.000 A 
ATOM     21  C   UNL     1       7.365   7.352  17.479  0.00  0.00    +0.000 A 
ATOM     22  C   UNL     1       8.106   6.857  18.551  0.00  0.00    +0.000 A 
ATOM     23  C   UNL     1       7.603   5.807  19.318  0.00  0.00    +0.000 A 
ATOM     24  C   UNL     1       6.353   5.254  19.017  0.00  0.00    +0.000 A 
ENDBRANCH  18  19
ENDBRANCH   3  18
TORSDOF 4
ENDMDL
MODEL 2
REMARK VINA RESULT:      -8.1      0.134      1.015
REMARK  Name = 
REMARK  4 active torsions:
REMARK  status: ('A' for Active; 'I' for Inactive)
REMARK    1  A    between atoms: C_3  and  S_4
REMARK    2  A    between atoms: S_4  and  C_5
REMARK    3  A    between atoms: C_11  and  C_12
REMARK    4  A    between atoms: N_17  and  C_18
REMARK                            x       y       z     vdW  Elec       q    Type
REMARK                         _______ _______ _______ _____ _____    ______ ____
ROOT
ATOM      1  O   UNL     1       2.769   8.075  18.064  0.00  0.00    +0.000 OA
ATOM      2  C   UNL     1       2.519   7.269  18.944  0.00  0.00    +0.000 A 
ATOM      3  C   UNL     1       3.011   5.858  18.961  0.00  0.00    +0.000 A 
ATOM      4  C   UNL     1       2.492   5.300  20.067  0.00  0.00    +0.000 A 
ATOM      5  N   UNL     1       1.801   6.238  20.851  0.00  0.00    +0.000 N 
ATOM      6  N   UNL     1       1.757   7.423  20.108  0.00  0.00    +0.000 N 
ATOM      7  H   UNL     1       0.885   5.896  21.157  0.00  0.00    +0.000 HD
ENDROOT
BRANCH   6   8
ATOM      8  C   UNL     1       1.176   8.594  20.634  0.00  0.00    +0.000 A 
ATOM      9  C   UNL     1       1.000   8.750  22.015  0.00  0.00    +0.000 A 
ATOM     10  C   UNL     1       0.363   9.879  22.538  0.00  0.00    +0.000 A 
ATOM     11  C   UNL     1      -0.105  10.871  21.683  0.00  0.00    +0.000 A 
ATOM     12  C   UNL     1       0.085  10.748  20.310  0.00  0.00    +0.000 A 
ATOM     13  C   UNL     1       0.732   9.623  19.789  0.00  0.00    +0.000 A 
ENDBRANCH   6   8
BRANCH   4  14
ATOM     14  C   UNL     1       2.537   3.848  20.433  0.00  0.00    +0.000 C 
ATOM     15  F   UNL     1       2.179   3.664  21.734  0.00  0.00    +0.000 F 
ATOM     16  F   UNL     1       1.672   3.107  19.698  0.00  0.00    +0.000 F 
ATOM     17  F   UNL     1       3.769   3.305  20.284  0.00  0.00    +0.000 F 
ENDBRANCH   4  14
BRANCH   3  18
ATOM     18  S   UNL     1       3.889   5.184  17.670  0.00  0.00    +0.000 S 
BRANCH  18  19
ATOM     19  C   UNL     1       5.505   5.860  18.014  0.00  0.00    +0.000 A 
ATOM     20  C   UNL     1       6.260   5.316  19.057  0.00  0.00    +0.000 A 
ATOM     21  C   UNL     1       7.556   5.776  19.312  0.00  0.00    +0.000 A 
ATOM     22  C   UNL     1       8.108   6.779  18.518  0.00  0.00    +0.000 A 
ATOM     23  C   UNL     1       7.364   7.328  17.474  0.00  0.00    +0.000 A 
ATOM     24  C   UNL     1       6.067   6.870  17.220  0.00  0.00    +0.000 A 
ENDBRANCH  18  19
ENDBRANCH   3  18
TORSDOF 4
ENDMDL
MODEL 3
REMARK VINA RESULT:      -8.0      0.077      1.006
REMARK  Name = 
REMARK  4 active torsions:
REMARK  status: ('A' for Active; 'I' for Inactive)
REMARK    1  A    between atoms: C_3  and  S_4
REMARK    2  A    between atoms: S_4  and  C_5
REMARK    3  A    between atoms: C_11  and  C_12
REMARK    4  A    between atoms: N_17  and  C_18
REMARK                            x       y       z     vdW  Elec       q    Type
REMARK                         _______ _______ _______ _____ _____    ______ ____
ROOT
ATOM      1  O   UNL     1       2.788   8.026  17.930  0.00  0.00    +0.000 OA
ATOM      2  C   UNL     1       2.582   7.221  18.822  0.00  0.00    +0.000 A 
ATOM      3  C   UNL     1       3.118   5.827  18.842  0.00  0.00    +0.000 A 
ATOM      4  C   UNL     1       2.641   5.265  19.965  0.00  0.00    +0.000 A 
ATOM      5  N   UNL     1       1.939   6.190  20.755  0.00  0.00    +0.000 N 
ATOM      6  N   UNL     1       1.843   7.365  20.002  0.00  0.00    +0.000 N 
ATOM      7  H   UNL     1       1.041   5.823  21.085  0.00  0.00    +0.000 HD
ENDROOT
BRANCH   6   8
ATOM      8  C   UNL     1       1.238   8.523  20.529  0.00  0.00    +0.000 A 
ATOM      9  C   UNL     1       0.869   9.585  19.693  0.00  0.00    +0.000 A 
ATOM     10  C   UNL     1       0.332  10.764  20.218  0.00  0.00    +0.000 A 
ATOM     11  C   UNL     1       0.154  10.895  21.591  0.00  0.00    +0.000 A 
ATOM     12  C   UNL     1       0.489   9.842  22.437  0.00  0.00    +0.000 A 
ATOM     13  C   UNL     1       1.016   8.658  21.909  0.00  0.00    +0.000 A 
ENDBRANCH   6   8
BRANCH   4  14
ATOM     14  C   UNL     1       2.738   3.819  20.344  0.00  0.00    +0.000 C 
ATOM     15  F   UNL     1       2.379   3.632  21.645  0.00  0.00    +0.000 F 
ATOM     16  F   UNL     1       1.906   3.039  19.610  0.00  0.00    +0.000 F 
ATOM     17  F   UNL     1       3.990   3.321  20.207  0.00  0.00    +0.000 F 
ENDBRANCH   4  14
BRANCH   3  18
ATOM     18  S   UNL     1       3.986   5.166  17.539  0.00  0.00    +0.000 S 
BRANCH  18  19
ATOM     19  C   UNL     1       5.620   5.782  17.916  0.00  0.00    +0.000 A 
ATOM     20  C   UNL     1       6.127   6.854  17.176  0.00  0.00    +0.000 A 
ATOM     21  C   UNL     1       7.373   7.406  17.486  0.00  0.00    +0.000 A 
ATOM     22  C   UNL     1       8.118   6.893  18.547  0.00  0.00    +0.000 A 
ATOM     23  C   UNL     1       7.621   5.825  19.293  0.00  0.00    +0.000 A 
ATOM     24  C   UNL     1       6.374   5.271  18.981  0.00  0.00    +0.000 A 
ENDBRANCH  18  19
ENDBRANCH   3  18
TORSDOF 4
ENDMDL
MODEL 4
REMARK VINA RESULT:      -8.0      0.120      1.426
REMARK  Name = 
REMARK  4 active torsions:
REMARK  status: ('A' for Active; 'I' for Inactive)
REMARK    1  A    between atoms: C_3  and  S_4
REMARK    2  A    between atoms: S_4  and  C_5
REMARK    3  A    between atoms: C_11  and  C_12
REMARK    4  A    between atoms: N_17  and  C_18
REMARK                            x       y       z     vdW  Elec       q    Type
REMARK                         _______ _______ _______ _____ _____    ______ ____
ROOT
ATOM      1  O   UNL     1       2.813   8.036  18.054  0.00  0.00    +0.000 OA
ATOM      2  C   UNL     1       2.547   7.223  18.922  0.00  0.00    +0.000 A 
ATOM      3  C   UNL     1       3.039   5.812  18.936  0.00  0.00    +0.000 A 
ATOM      4  C   UNL     1       2.500   5.245  20.028  0.00  0.00    +0.000 A 
ATOM      5  N   UNL     1       1.796   6.177  20.808  0.00  0.00    +0.000 N 
ATOM      6  N   UNL     1       1.766   7.368  20.074  0.00  0.00    +0.000 N 
ATOM      7  H   UNL     1       0.875   5.833  21.096  0.00  0.00    +0.000 HD
ENDROOT
BRANCH   6   8
ATOM      8  C   UNL     1       1.176   8.536  20.599  0.00  0.00    +0.000 A 
ATOM      9  C   UNL     1       0.802   9.592  19.758  0.00  0.00    +0.000 A 
ATOM     10  C   UNL     1       0.280  10.779  20.280  0.00  0.00    +0.000 A 
ATOM     11  C   UNL     1       0.123  10.924  21.654  0.00  0.00    +0.000 A 
ATOM     12  C   UNL     1       0.463   9.876  22.505  0.00  0.00    +0.000 A 
ATOM     13  C   UNL     1       0.975   8.685  21.980  0.00  0.00    +0.000 A 
ENDBRANCH   6   8
BRANCH   4  14
ATOM     14  C   UNL     1       2.538   3.791  20.384  0.00  0.00    +0.000 C 
ATOM     15  F   UNL     1       2.089   3.588  21.654  0.00  0.00    +0.000 F 
ATOM     16  F   UNL     1       1.739   3.045  19.581  0.00  0.00    +0.000 F 
ATOM     17  F   UNL     1       3.785   3.265  20.320  0.00  0.00    +0.000 F 
ENDBRANCH   4  14
BRANCH   3  18
ATOM     18  S   UNL     1       3.938   5.147  17.656  0.00  0.00    +0.000 S 
BRANCH  18  19
ATOM     19  C   UNL     1       5.540   5.855  18.008  0.00  0.00    +0.000 A 
ATOM     20  C   UNL     1       6.303   5.319  19.050  0.00  0.00    +0.000 A 
ATOM     21  C   UNL     1       7.588   5.804  19.312  0.00  0.00    +0.000 A 
ATOM     22  C   UNL     1       8.122   6.823  18.526  0.00  0.00    +0.000 A 
ATOM     23  C   UNL     1       7.370   7.364  17.484  0.00  0.00    +0.000 A 
ATOM     24  C   UNL     1       6.082   6.880  17.223  0.00  0.00    +0.000 A 
ENDBRANCH  18  19
ENDBRANCH   3  18
TORSDOF 4
ENDMDL
MODEL 5
REMARK VINA RESULT:      -7.6      3.345      7.131
REMARK  Name = 
REMARK  4 active torsions:
REMARK  status: ('A' for Active; 'I' for Inactive)
REMARK    1  A    between atoms: C_3  and  S_4
REMARK    2  A    between atoms: S_4  and  C_5
REMARK    3  A    between atoms: C_11  and  C_12
REMARK    4  A    between atoms: N_17  and  C_18
REMARK                            x       y       z     vdW  Elec       q    Type
REMARK                         _______ _______ _______ _____ _____    ______ ____
ROOT
ATOM      1  O   UNL     1       2.440   8.641  17.363  0.00  0.00    +0.000 OA
ATOM      2  C   UNL     1       2.098   8.400  18.508  0.00  0.00    +0.000 A 
ATOM      3  C   UNL     1       1.362   9.356  19.388  0.00  0.00    +0.000 A 
ATOM      4  C   UNL     1       1.207   8.729  20.565  0.00  0.00    +0.000 A 
ATOM      5  N   UNL     1       1.662   7.401  20.515  0.00  0.00    +0.000 N 
ATOM      6  N   UNL     1       2.280   7.240  19.269  0.00  0.00    +0.000 N 
ATOM      7  H   UNL     1       2.252   7.157  21.315  0.00  0.00    +0.000 HD
ENDROOT
BRANCH   6   8
ATOM      8  C   UNL     1       2.803   5.994  18.869  0.00  0.00    +0.000 A 
ATOM      9  C   UNL     1       2.108   5.182  17.963  0.00  0.00    +0.000 A 
ATOM     10  C   UNL     1       2.588   3.916  17.614  0.00  0.00    +0.000 A 
ATOM     11  C   UNL     1       3.774   3.446  18.168  0.00  0.00    +0.000 A 
ATOM     12  C   UNL     1       4.493   4.248  19.049  0.00  0.00    +0.000 A 
ATOM     13  C   UNL     1       4.017   5.519  19.389  0.00  0.00    +0.000 A 
ENDBRANCH   6   8
BRANCH   4  14
ATOM     14  C   UNL     1       0.698   9.338  21.836  0.00  0.00    +0.000 C 
ATOM     15  F   UNL     1      -0.442   8.717  22.250  0.00  0.00    +0.000 F 
ATOM     16  F   UNL     1       1.584   9.213  22.855  0.00  0.00    +0.000 F 
ATOM     17  F   UNL     1       0.405  10.654  21.709  0.00  0.00    +0.000 F 
ENDBRANCH   4  14
BRANCH   3  18
ATOM     18  S   UNL     1       1.023  10.954  18.916  0.00  0.00    +0.000 S 
BRANCH  18  19
ATOM     19  C   UNL     1      -0.709  10.793  18.512  0.00  0.00    +0.000 A 
ATOM     20  C   UNL     1      -1.626  11.673  19.096  0.00  0.00    +0.000 A 
ATOM     21  C   UNL     1      -2.979  11.620  18.752  0.00  0.00    +0.000 A 
ATOM     22  C   UNL     1      -3.425  10.689  17.815  0.00  0.00    +0.000 A 
ATOM     23  C   UNL     1      -2.519   9.807  17.227  0.00  0.00    +0.000 A 
ATOM     24  C   UNL     1      -1.164   9.859  17.572  0.00  0.00    +0.000 A 
ENDBRANCH  18  19
ENDBRANCH   3  18
TORSDOF 4
ENDMDL
MODEL 6
REMARK VINA RESULT:      -7.5      4.424      7.626
REMARK  Name = 
REMARK  4 active torsions:
REMARK  status: ('A' for Active; 'I' for Inactive)
REMARK    1  A    between atoms: C_3  and  S_4
REMARK    2  A    between atoms: S_4  and  C_5
REMARK    3  A    between atoms: C_11  and  C_12
REMARK    4  A    between atoms: N_17  and  C_18
REMARK                            x       y       z     vdW  Elec       q    Type
REMARK                         _______ _______ _______ _____ _____    ______ ____
ROOT
ATOM      1  O   UNL     1       4.149   5.007  16.154  0.00  0.00    +0.000 OA
ATOM      2  C   UNL     1       5.303   5.063  16.544  0.00  0.00    +0.000 A 
ATOM      3  C   UNL     1       5.704   5.272  17.968  0.00  0.00    +0.000 A 
ATOM      4  C   UNL     1       7.046   5.306  17.972  0.00  0.00    +0.000 A 
ATOM      5  N   UNL     1       7.580   5.020  16.705  0.00  0.00    +0.000 N 
ATOM      6  N   UNL     1       6.497   4.953  15.822  0.00  0.00    +0.000 N 
ATOM      7  H   UNL     1       8.313   5.680  16.428  0.00  0.00    +0.000 HD
ENDROOT
BRANCH   6   8
ATOM      8  C   UNL     1       6.680   4.623  14.464  0.00  0.00    +0.000 A 
ATOM      9  C   UNL     1       7.634   5.291  13.686  0.00  0.00    +0.000 A 
ATOM     10  C   UNL     1       7.773   5.016  12.322  0.00  0.00    +0.000 A 
ATOM     11  C   UNL     1       6.959   4.064  11.719  0.00  0.00    +0.000 A 
ATOM     12  C   UNL     1       6.024   3.370  12.480  0.00  0.00    +0.000 A 
ATOM     13  C   UNL     1       5.893   3.639  13.847  0.00  0.00    +0.000 A 
ENDBRANCH   6   8
BRANCH   4  14
ATOM     14  C   UNL     1       7.922   5.681  19.128  0.00  0.00    +0.000 C 
ATOM     15  F   UNL     1       8.958   4.807  19.257  0.00  0.00    +0.000 F 
ATOM     16  F   UNL     1       8.482   6.906  18.972  0.00  0.00    +0.000 F 
ATOM     17  F   UNL     1       7.260   5.683  20.310  0.00  0.00    +0.000 F 
ENDBRANCH   4  14
BRANCH   3  18
ATOM     18  S   UNL     1       4.571   5.577  19.198  0.00  0.00    +0.000 S 
BRANCH  18  19
ATOM     19  C   UNL     1       3.515   4.150  19.003  0.00  0.00    +0.000 A 
ATOM     20  C   UNL     1       2.141   4.343  18.830  0.00  0.00    +0.000 A 
ATOM     21  C   UNL     1       1.293   3.254  18.607  0.00  0.00    +0.000 A 
ATOM     22  C   UNL     1       1.816   1.964  18.548  0.00  0.00    +0.000 A 
ATOM     23  C   UNL     1       3.185   1.761  18.719  0.00  0.00    +0.000 A 
ATOM     24  C   UNL     1       4.034   2.851  18.943  0.00  0.00    +0.000 A 
ENDBRANCH  18  19
ENDBRANCH   3  18
TORSDOF 4
ENDMDL
MODEL 7
REMARK VINA RESULT:      -7.5      1.031      1.279
REMARK  Name = 
REMARK  4 active torsions:
REMARK  status: ('A' for Active; 'I' for Inactive)
REMARK    1  A    between atoms: C_3  and  S_4
REMARK    2  A    between atoms: S_4  and  C_5
REMARK    3  A    between atoms: C_11  and  C_12
REMARK    4  A    between atoms: N_17  and  C_18
REMARK                            x       y       z     vdW  Elec       q    Type
REMARK                         _______ _______ _______ _____ _____    ______ ____
ROOT
ATOM      1  O   UNL     1       2.711   7.159  17.902  0.00  0.00    +0.000 OA
ATOM      2  C   UNL     1       2.474   6.520  18.912  0.00  0.00    +0.000 A 
ATOM      3  C   UNL     1       2.828   5.081  19.103  0.00  0.00    +0.000 A 
ATOM      4  C   UNL     1       2.371   4.747  20.321  0.00  0.00    +0.000 A 
ATOM      5  N   UNL     1       1.855   5.858  21.008  0.00  0.00    +0.000 N 
ATOM      6  N   UNL     1       1.851   6.922  20.099  0.00  0.00    +0.000 N 
ATOM      7  H   UNL     1       0.946   5.666  21.440  0.00  0.00    +0.000 HD
ENDROOT
BRANCH   6   8
ATOM      8  C   UNL     1       1.440   8.213  20.488  0.00  0.00    +0.000 A 
ATOM      9  C   UNL     1       1.265   8.534  21.840  0.00  0.00    +0.000 A 
ATOM     10  C   UNL     1       0.793   9.791  22.227  0.00  0.00    +0.000 A 
ATOM     11  C   UNL     1       0.491  10.748  21.263  0.00  0.00    +0.000 A 
ATOM     12  C   UNL     1       0.685  10.458  19.916  0.00  0.00    +0.000 A 
ATOM     13  C   UNL     1       1.168   9.203  19.531  0.00  0.00    +0.000 A 
ENDBRANCH   6   8
BRANCH   4  14
ATOM     14  C   UNL     1       2.313   3.367  20.900  0.00  0.00    +0.000 C 
ATOM     15  F   UNL     1       1.864   3.397  22.186  0.00  0.00    +0.000 F 
ATOM     16  F   UNL     1       1.457   2.562  20.223  0.00  0.00    +0.000 F 
ATOM     17  F   UNL     1       3.520   2.753  20.920  0.00  0.00    +0.000 F 
ENDBRANCH   4  14
BRANCH   3  18
ATOM     18  S   UNL     1       3.503   4.136  17.862  0.00  0.00    +0.000 S 
BRANCH  18  19
ATOM     19  C   UNL     1       5.217   4.618  18.009  0.00  0.00    +0.000 A 
ATOM     20  C   UNL     1       5.672   5.141  19.223  0.00  0.00    +0.000 A 
ATOM     21  C   UNL     1       7.020   5.466  19.396  0.00  0.00    +0.000 A 
ATOM     22  C   UNL     1       7.926   5.263  18.356  0.00  0.00    +0.000 A 
ATOM     23  C   UNL     1       7.482   4.742  17.141  0.00  0.00    +0.000 A 
ATOM     24  C   UNL     1       6.132   4.418  16.967  0.00  0.00    +0.000 A 
ENDBRANCH  18  19
ENDBRANCH   3  18
TORSDOF 4
ENDMDL
MODEL 8
REMARK VINA RESULT:      -7.5      3.316      7.101
REMARK  Name = 
REMARK  4 active torsions:
REMARK  status: ('A' for Active; 'I' for Inactive)
REMARK    1  A    between atoms: C_3  and  S_4
REMARK    2  A    between atoms: S_4  and  C_5
REMARK    3  A    between atoms: C_11  and  C_12
REMARK    4  A    between atoms: N_17  and  C_18
REMARK                            x       y       z     vdW  Elec       q    Type
REMARK                         _______ _______ _______ _____ _____    ______ ____
ROOT
ATOM      1  O   UNL     1       2.569   8.497  17.265  0.00  0.00    +0.000 OA
ATOM      2  C   UNL     1       2.191   8.316  18.410  0.00  0.00    +0.000 A 
ATOM      3  C   UNL     1       1.442   9.323  19.221  0.00  0.00    +0.000 A 
ATOM      4  C   UNL     1       1.246   8.755  20.423  0.00  0.00    +0.000 A 
ATOM      5  N   UNL     1       1.686   7.422  20.450  0.00  0.00    +0.000 N 
ATOM      6  N   UNL     1       2.337   7.193  19.233  0.00  0.00    +0.000 N 
ATOM      7  H   UNL     1       2.250   7.211  21.279  0.00  0.00    +0.000 HD
ENDROOT
BRANCH   6   8
ATOM      8  C   UNL     1       2.855   5.923  18.909  0.00  0.00    +0.000 A 
ATOM      9  C   UNL     1       4.084   5.495  19.430  0.00  0.00    +0.000 A 
ATOM     10  C   UNL     1       4.635   4.265  19.059  0.00  0.00    +0.000 A 
ATOM     11  C   UNL     1       3.961   3.444  18.161  0.00  0.00    +0.000 A 
ATOM     12  C   UNL     1       2.727   3.838  17.654  0.00  0.00    +0.000 A 
ATOM     13  C   UNL     1       2.171   5.065  18.034  0.00  0.00    +0.000 A 
ENDBRANCH   6   8
BRANCH   4  14
ATOM     14  C   UNL     1       0.709   9.432  21.647  0.00  0.00    +0.000 C 
ATOM     15  F   UNL     1       1.210   8.862  22.778  0.00  0.00    +0.000 F 
ATOM     16  F   UNL     1       1.055  10.742  21.702  0.00  0.00    +0.000 F 
ATOM     17  F   UNL     1      -0.641   9.362  21.737  0.00  0.00    +0.000 F 
ENDBRANCH   4  14
BRANCH   3  18
ATOM     18  S   UNL     1       1.138  10.899  18.662  0.00  0.00    +0.000 S 
BRANCH  18  19
ATOM     19  C   UNL     1      -0.631  10.805  18.434  0.00  0.00    +0.000 A 
ATOM     20  C   UNL     1      -1.448  11.744  19.072  0.00  0.00    +0.000 A 
ATOM     21  C   UNL     1      -2.830  11.742  18.864  0.00  0.00    +0.000 A 
ATOM     22  C   UNL     1      -3.404  10.805  18.007  0.00  0.00    +0.000 A 
ATOM     23  C   UNL     1      -2.599   9.865  17.364  0.00  0.00    +0.000 A 
ATOM     24  C   UNL     1      -1.216   9.865  17.575  0.00  0.00    +0.000 A 
ENDBRANCH  18  19
ENDBRANCH   3  18
TORSDOF 4
ENDMDL
MODEL 9
REMARK VINA RESULT:      -7.5      3.416      7.247
REMARK  Name = 
REMARK  4 active torsions:
REMARK  status: ('A' for Active; 'I' for Inactive)
REMARK    1  A    between atoms: C_3  and  S_4
REMARK    2  A    between atoms: S_4  and  C_5
REMARK    3  A    between atoms: C_11  and  C_12
REMARK    4  A    between atoms: N_17  and  C_18
REMARK                            x       y       z     vdW  Elec       q    Type
REMARK                         _______ _______ _______ _____ _____    ______ ____
ROOT
ATOM      1  O   UNL     1       2.203   9.249  17.134  0.00  0.00    +0.000 OA
ATOM      2  C   UNL     1       1.927   8.845  18.251  0.00  0.00    +0.000 A 
ATOM      3  C   UNL     1       1.134   9.616  19.255  0.00  0.00    +0.000 A 
ATOM      4  C   UNL     1       1.083   8.845  20.354  0.00  0.00    +0.000 A 
ATOM      5  N   UNL     1       1.664   7.585  20.137  0.00  0.00    +0.000 N 
ATOM      6  N   UNL     1       2.249   7.631  18.867  0.00  0.00    +0.000 N 
ATOM      7  H   UNL     1       2.303   7.312  20.889  0.00  0.00    +0.000 HD
ENDROOT
BRANCH   6   8
ATOM      8  C   UNL     1       2.876   6.498  18.310  0.00  0.00    +0.000 A 
ATOM      9  C   UNL     1       4.174   6.579  17.789  0.00  0.00    +0.000 A 
ATOM     10  C   UNL     1       4.775   5.476  17.175  0.00  0.00    +0.000 A 
ATOM     11  C   UNL     1       4.084   4.273  17.076  0.00  0.00    +0.000 A 
ATOM     12  C   UNL     1       2.804   4.164  17.612  0.00  0.00    +0.000 A 
ATOM     13  C   UNL     1       2.208   5.265  18.236  0.00  0.00    +0.000 A 
ENDBRANCH   6   8
BRANCH   4  14
ATOM     14  C   UNL     1       0.563   9.250  21.699  0.00  0.00    +0.000 C 
ATOM     15  F   UNL     1      -0.606   8.611  21.982  0.00  0.00    +0.000 F 
ATOM     16  F   UNL     1       1.419   8.925  22.700  0.00  0.00    +0.000 F 
ATOM     17  F   UNL     1       0.316  10.579  21.790  0.00  0.00    +0.000 F 
ENDBRANCH   4  14
BRANCH   3  18
ATOM     18  S   UNL     1       0.624  11.214  18.982  0.00  0.00    +0.000 S 
BRANCH  18  19
ATOM     19  C   UNL     1      -1.056  10.914  18.456  0.00  0.00    +0.000 A 
ATOM     20  C   UNL     1      -2.087  11.679  19.009  0.00  0.00    +0.000 A 
ATOM     21  C   UNL     1      -3.405  11.518  18.573  0.00  0.00    +0.000 A 
ATOM     22  C   UNL     1      -3.700  10.594  17.572  0.00  0.00    +0.000 A 
ATOM     23  C   UNL     1      -2.679   9.826  17.013  0.00  0.00    +0.000 A 
ATOM     24  C   UNL     1      -1.360   9.986  17.451  0.00  0.00    +0.000 A 
ENDBRANCH  18  19
ENDBRANCH   3  18
TORSDOF 4
ENDMDL
