MODEL 1
REMARK VINA RESULT:      -7.7      0.000      0.000
REMARK  Name = 
REMARK  8 active torsions:
REMARK  status: ('A' for Active; 'I' for Inactive)
REMARK    1  A    between atoms: C_1  and  C_2
REMARK    2  A    between atoms: C_2  and  O_3
REMARK    3  A    between atoms: O_3  and  C_4
REMARK    4  A    between atoms: C_7  and  C_8
REMARK    5  A    between atoms: N_10  and  C_11
REMARK    6  A    between atoms: C_15  and  C_16
REMARK    7  A    between atoms: C_16  and  C_17
REMARK    8  A    between atoms: C_21  and  N_22
REMARK                            x       y       z     vdW  Elec       q    Type
REMARK                         _______ _______ _______ _____ _____    ______ ____
ROOT
ATOM      1  C   UNL     1       3.266   6.637  18.454  0.00  0.00    +0.000 C 
ATOM      2  O   UNL     1       2.976   5.497  18.802  0.00  0.00    +0.000 OA
ATOM      3  N   UNL     1       4.435   7.030  17.820  0.00  0.00    +0.000 N 
ATOM      4  H   UNL     1       4.652   8.019  17.777  0.00  0.00    +0.000 HD
ENDROOT
BRANCH   1   8
ATOM      5  C   UNL     1       0.539   9.840  19.355  0.00  0.00    +0.000 A 
ATOM      6  C   UNL     1       1.160   9.732  18.109  0.00  0.00    +0.000 A 
ATOM      7  C   UNL     1       2.023   8.668  17.843  0.00  0.00    +0.000 A 
ATOM      8  C   UNL     1       2.307   7.705  18.824  0.00  0.00    +0.000 A 
ATOM      9  C   UNL     1       1.749   7.828  20.096  0.00  0.00    +0.000 A 
ATOM     10  C   UNL     1       0.880   8.906  20.343  0.00  0.00    +0.000 A 
BRANCH  10  11
ATOM     11  N   UNL     1       0.304   9.014  21.670  0.00  0.00    +0.000 N 
ATOM     12  O   UNL     1      -0.703   8.340  21.920  0.00  0.00    +0.000 OA
ATOM     13  O   UNL     1       0.827   9.838  22.434  0.00  0.00    +0.000 OA
ENDBRANCH  10  11
BRANCH   5  14
ATOM     14  O   UNL     1      -0.389  10.802  19.642  0.00  0.00    +0.000 OA
BRANCH  14  16
ATOM     15  C   UNL     1      -2.190  10.246  18.166  0.00  0.00    +0.000 C 
ATOM     16  C   UNL     1      -1.147  11.282  18.525  0.00  0.00    +0.000 C 
ENDBRANCH  14  16
ENDBRANCH   5  14
ENDBRANCH   1   8
BRANCH   3  17
ATOM     17  C   UNL     1       5.468   6.140  17.426  0.00  0.00    +0.000 A 
ATOM     18  C   UNL     1       6.347   5.558  18.342  0.00  0.00    +0.000 A 
ATOM     19  C   UNL     1       7.382   4.729  17.915  0.00  0.00    +0.000 A 
ATOM     20  C   UNL     1       7.553   4.461  16.558  0.00  0.00    +0.000 A 
ATOM     21  C   UNL     1       6.677   5.017  15.624  0.00  0.00    +0.000 A 
ATOM     22  C   UNL     1       5.620   5.841  16.068  0.00  0.00    +0.000 A 
BRANCH  21  23
ATOM     23  C   UNL     1       6.816   4.782  14.151  0.00  0.00    +0.000 C 
ATOM     24  C   UNL     1       5.977   3.747  13.439  0.00  0.00    +0.000 C 
ATOM     25  O   UNL     1       7.649   5.435  13.520  0.00  0.00    +0.000 OA
ENDBRANCH  21  23
ENDBRANCH   3  17
TORSDOF 6
ENDMDL
MODEL 2
REMARK VINA RESULT:      -7.6      2.929      4.138
REMARK  Name = 
REMARK  8 active torsions:
REMARK  status: ('A' for Active; 'I' for Inactive)
REMARK    1  A    between atoms: C_1  and  C_2
REMARK    2  A    between atoms: C_2  and  O_3
REMARK    3  A    between atoms: O_3  and  C_4
REMARK    4  A    between atoms: C_7  and  C_8
REMARK    5  A    between atoms: N_10  and  C_11
REMARK    6  A    between atoms: C_15  and  C_16
REMARK    7  A    between atoms: C_16  and  C_17
REMARK    8  A    between atoms: C_21  and  N_22
REMARK                            x       y       z     vdW  Elec       q    Type
REMARK                         _______ _______ _______ _____ _____    ______ ____
ROOT
ATOM      1  C   UNL     1       4.401   4.279  16.804  0.00  0.00    +0.000 C 
ATOM      2  O   UNL     1       4.607   3.070  16.839  0.00  0.00    +0.000 OA
ATOM      3  N   UNL     1       4.896   5.169  15.863  0.00  0.00    +0.000 N 
ATOM      4  H   UNL     1       4.834   6.162  16.059  0.00  0.00    +0.000 HD
ENDROOT
BRANCH   1   8
ATOM      5  C   UNL     1       2.203   6.119  20.012  0.00  0.00    +0.000 A 
ATOM      6  C   UNL     1       2.840   6.878  19.028  0.00  0.00    +0.000 A 
ATOM      7  C   UNL     1       3.527   6.247  17.989  0.00  0.00    +0.000 A 
ATOM      8  C   UNL     1       3.616   4.848  17.925  0.00  0.00    +0.000 A 
ATOM      9  C   UNL     1       3.042   4.072  18.932  0.00  0.00    +0.000 A 
ATOM     10  C   UNL     1       2.352   4.725  19.968  0.00  0.00    +0.000 A 
BRANCH  10  11
ATOM     11  N   UNL     1       1.755   3.901  21.002  0.00  0.00    +0.000 N 
ATOM     12  O   UNL     1       2.375   3.767  22.064  0.00  0.00    +0.000 OA
ATOM     13  O   UNL     1       0.694   3.330  20.709  0.00  0.00    +0.000 OA
ENDBRANCH  10  11
BRANCH   5  14
ATOM     14  O   UNL     1       1.434   6.675  20.997  0.00  0.00    +0.000 OA
BRANCH  14  16
ATOM     15  C   UNL     1      -0.002   8.524  21.500  0.00  0.00    +0.000 C 
ATOM     16  C   UNL     1       1.361   8.105  20.990  0.00  0.00    +0.000 C 
ENDBRANCH  14  16
ENDBRANCH   5  14
ENDBRANCH   1   8
BRANCH   3  17
ATOM     17  C   UNL     1       5.688   4.794  14.748  0.00  0.00    +0.000 A 
ATOM     18  C   UNL     1       6.992   5.259  14.563  0.00  0.00    +0.000 A 
ATOM     19  C   UNL     1       7.724   4.911  13.430  0.00  0.00    +0.000 A 
ATOM     20  C   UNL     1       7.164   4.083  12.459  0.00  0.00    +0.000 A 
ATOM     21  C   UNL     1       5.868   3.591  12.628  0.00  0.00    +0.000 A 
ATOM     22  C   UNL     1       5.141   3.934  13.789  0.00  0.00    +0.000 A 
BRANCH  21  23
ATOM     23  C   UNL     1       5.202   2.711  11.614  0.00  0.00    +0.000 C 
ATOM     24  C   UNL     1       3.890   3.101  10.978  0.00  0.00    +0.000 C 
ATOM     25  O   UNL     1       5.733   1.639  11.317  0.00  0.00    +0.000 OA
ENDBRANCH  21  23
ENDBRANCH   3  17
TORSDOF 6
ENDMDL
MODEL 3
REMARK VINA RESULT:      -7.5      2.083      2.833
REMARK  Name = 
REMARK  8 active torsions:
REMARK  status: ('A' for Active; 'I' for Inactive)
REMARK    1  A    between atoms: C_1  and  C_2
REMARK    2  A    between atoms: C_2  and  O_3
REMARK    3  A    between atoms: O_3  and  C_4
REMARK    4  A    between atoms: C_7  and  C_8
REMARK    5  A    between atoms: N_10  and  C_11
REMARK    6  A    between atoms: C_15  and  C_16
REMARK    7  A    between atoms: C_16  and  C_17
REMARK    8  A    between atoms: C_21  and  N_22
REMARK                            x       y       z     vdW  Elec       q    Type
REMARK                         _______ _______ _______ _____ _____    ______ ____
ROOT
ATOM      1  C   UNL     1       2.287   8.182  18.295  0.00  0.00    +0.000 C 
ATOM      2  O   UNL     1       2.613   8.651  17.208  0.00  0.00    +0.000 OA
ATOM      3  N   UNL     1       2.588   6.912  18.764  0.00  0.00    +0.000 N 
ATOM      4  H   UNL     1       2.088   6.567  19.576  0.00  0.00    +0.000 HD
ENDROOT
BRANCH   1   8
ATOM      5  C   UNL     1      -0.215  10.795  20.622  0.00  0.00    +0.000 A 
ATOM      6  C   UNL     1       0.148  11.102  19.309  0.00  0.00    +0.000 A 
ATOM      7  C   UNL     1       0.945  10.221  18.576  0.00  0.00    +0.000 A 
ATOM      8  C   UNL     1       1.417   9.029  19.145  0.00  0.00    +0.000 A 
ATOM      9  C   UNL     1       1.121   8.732  20.475  0.00  0.00    +0.000 A 
ATOM     10  C   UNL     1       0.316   9.631  21.197  0.00  0.00    +0.000 A 
BRANCH  10  11
ATOM     11  N   UNL     1       0.012   9.302  22.577  0.00  0.00    +0.000 N 
ATOM     12  O   UNL     1       0.749   9.762  23.456  0.00  0.00    +0.000 OA
ATOM     13  O   UNL     1      -0.930   8.517  22.762  0.00  0.00    +0.000 OA
ENDBRANCH  10  11
BRANCH   5  14
ATOM     14  O   UNL     1      -1.071  11.568  21.356  0.00  0.00    +0.000 OA
BRANCH  14  16
ATOM     15  C   UNL     1      -1.313  13.147  23.140  0.00  0.00    +0.000 C 
ATOM     16  C   UNL     1      -0.499  12.751  21.926  0.00  0.00    +0.000 C 
ENDBRANCH  14  16
ENDBRANCH   5  14
ENDBRANCH   1   8
BRANCH   3  17
ATOM     17  C   UNL     1       3.381   5.968  18.063  0.00  0.00    +0.000 A 
ATOM     18  C   UNL     1       2.899   4.710  17.695  0.00  0.00    +0.000 A 
ATOM     19  C   UNL     1       3.721   3.787  17.051  0.00  0.00    +0.000 A 
ATOM     20  C   UNL     1       5.044   4.110  16.757  0.00  0.00    +0.000 A 
ATOM     21  C   UNL     1       5.545   5.367  17.099  0.00  0.00    +0.000 A 
ATOM     22  C   UNL     1       4.699   6.303  17.735  0.00  0.00    +0.000 A 
BRANCH  21  23
ATOM     23  C   UNL     1       6.962   5.771  16.827  0.00  0.00    +0.000 C 
ATOM     24  C   UNL     1       7.541   7.041  17.404  0.00  0.00    +0.000 C 
ATOM     25  O   UNL     1       7.654   5.057  16.098  0.00  0.00    +0.000 OA
ENDBRANCH  21  23
ENDBRANCH   3  17
TORSDOF 6
ENDMDL
MODEL 4
REMARK VINA RESULT:      -7.4      2.127      8.197
REMARK  Name = 
REMARK  8 active torsions:
REMARK  status: ('A' for Active; 'I' for Inactive)
REMARK    1  A    between atoms: C_1  and  C_2
REMARK    2  A    between atoms: C_2  and  O_3
REMARK    3  A    between atoms: O_3  and  C_4
REMARK    4  A    between atoms: C_7  and  C_8
REMARK    5  A    between atoms: N_10  and  C_11
REMARK    6  A    between atoms: C_15  and  C_16
REMARK    7  A    between atoms: C_16  and  C_17
REMARK    8  A    between atoms: C_21  and  N_22
REMARK                            x       y       z     vdW  Elec       q    Type
REMARK                         _______ _______ _______ _____ _____    ______ ____
ROOT
ATOM      1  C   UNL     1       2.224   7.782  18.933  0.00  0.00    +0.000 C 
ATOM      2  O   UNL     1       1.861   7.582  20.088  0.00  0.00    +0.000 OA
ATOM      3  N   UNL     1       1.769   8.787  18.093  0.00  0.00    +0.000 N 
ATOM      4  H   UNL     1       1.981   8.721  17.104  0.00  0.00    +0.000 HD
ENDROOT
BRANCH   1   8
ATOM      5  C   UNL     1       5.017   5.067  17.108  0.00  0.00    +0.000 A 
ATOM      6  C   UNL     1       4.850   6.374  16.643  0.00  0.00    +0.000 A 
ATOM      7  C   UNL     1       3.950   7.234  17.272  0.00  0.00    +0.000 A 
ATOM      8  C   UNL     1       3.177   6.803  18.361  0.00  0.00    +0.000 A 
ATOM      9  C   UNL     1       3.280   5.484  18.802  0.00  0.00    +0.000 A 
ATOM     10  C   UNL     1       4.194   4.632  18.156  0.00  0.00    +0.000 A 
BRANCH  10  11
ATOM     11  N   UNL     1       4.291   3.265  18.634  0.00  0.00    +0.000 N 
ATOM     12  O   UNL     1       3.584   2.410  18.088  0.00  0.00    +0.000 OA
ATOM     13  O   UNL     1       5.029   3.074  19.611  0.00  0.00    +0.000 OA
ENDBRANCH  10  11
BRANCH   5  14
ATOM     14  O   UNL     1       5.951   4.210  16.597  0.00  0.00    +0.000 OA
BRANCH  14  16
ATOM     15  C   UNL     1       6.271   3.947  14.238  0.00  0.00    +0.000 C 
ATOM     16  C   UNL     1       6.697   4.704  15.479  0.00  0.00    +0.000 C 
ENDBRANCH  14  16
ENDBRANCH   5  14
ENDBRANCH   1   8
BRANCH   3  17
ATOM     17  C   UNL     1       0.834   9.785  18.473  0.00  0.00    +0.000 A 
ATOM     18  C   UNL     1       1.098  10.715  19.481  0.00  0.00    +0.000 A 
ATOM     19  C   UNL     1       0.137  11.649  19.863  0.00  0.00    +0.000 A 
ATOM     20  C   UNL     1      -1.107  11.673  19.237  0.00  0.00    +0.000 A 
ATOM     21  C   UNL     1      -1.389  10.766  18.215  0.00  0.00    +0.000 A 
ATOM     22  C   UNL     1      -0.403   9.834  17.821  0.00  0.00    +0.000 A 
BRANCH  21  23
ATOM     23  C   UNL     1      -2.713  10.728  17.514  0.00  0.00    +0.000 C 
ATOM     24  C   UNL     1      -2.940   9.838  16.315  0.00  0.00    +0.000 C 
ATOM     25  O   UNL     1      -3.620  11.458  17.917  0.00  0.00    +0.000 OA
ENDBRANCH  21  23
ENDBRANCH   3  17
TORSDOF 6
ENDMDL
MODEL 5
REMARK VINA RESULT:      -7.4      2.493      3.529
REMARK  Name = 
REMARK  8 active torsions:
REMARK  status: ('A' for Active; 'I' for Inactive)
REMARK    1  A    between atoms: C_1  and  C_2
REMARK    2  A    between atoms: C_2  and  O_3
REMARK    3  A    between atoms: O_3  and  C_4
REMARK    4  A    between atoms: C_7  and  C_8
REMARK    5  A    between atoms: N_10  and  C_11
REMARK    6  A    between atoms: C_15  and  C_16
REMARK    7  A    between atoms: C_16  and  C_17
REMARK    8  A    between atoms: C_21  and  N_22
REMARK                            x       y       z     vdW  Elec       q    Type
REMARK                         _______ _______ _______ _____ _____    ______ ____
ROOT
ATOM      1  C   UNL     1       2.062   7.897  18.856  0.00  0.00    +0.000 C 
ATOM      2  O   UNL     1       2.157   8.287  17.696  0.00  0.00    +0.000 OA
ATOM      3  N   UNL     1       2.390   6.634  19.327  0.00  0.00    +0.000 N 
ATOM      4  H   UNL     1       2.070   6.366  20.251  0.00  0.00    +0.000 HD
ENDROOT
BRANCH   1   8
ATOM      5  C   UNL     1       0.292  10.487  21.799  0.00  0.00    +0.000 A 
ATOM      6  C   UNL     1       0.706   9.190  22.114  0.00  0.00    +0.000 A 
ATOM      7  C   UNL     1       1.296   8.385  21.139  0.00  0.00    +0.000 A 
ATOM      8  C   UNL     1       1.460   8.844  19.824  0.00  0.00    +0.000 A 
ATOM      9  C   UNL     1       0.996  10.111  19.471  0.00  0.00    +0.000 A 
ATOM     10  C   UNL     1       0.407  10.909  20.467  0.00  0.00    +0.000 A 
BRANCH  10  11
ATOM     11  N   UNL     1      -0.063  12.226  20.083  0.00  0.00    +0.000 N 
ATOM     12  O   UNL     1      -1.243  12.339  19.730  0.00  0.00    +0.000 OA
ATOM     13  O   UNL     1       0.784  13.131  20.066  0.00  0.00    +0.000 OA
ENDBRANCH  10  11
BRANCH   5  14
ATOM     14  O   UNL     1      -0.202  11.356  22.732  0.00  0.00    +0.000 OA
BRANCH  14  16
ATOM     15  C   UNL     1      -2.372  12.302  23.090  0.00  0.00    +0.000 C 
ATOM     16  C   UNL     1      -1.516  11.060  23.218  0.00  0.00    +0.000 C 
ENDBRANCH  14  16
ENDBRANCH   5  14
ENDBRANCH   1   8
BRANCH   3  17
ATOM     17  C   UNL     1       2.946   5.603  18.528  0.00  0.00    +0.000 A 
ATOM     18  C   UNL     1       2.170   4.581  17.976  0.00  0.00    +0.000 A 
ATOM     19  C   UNL     1       2.756   3.555  17.237  0.00  0.00    +0.000 A 
ATOM     20  C   UNL     1       4.134   3.536  17.032  0.00  0.00    +0.000 A 
ATOM     21  C   UNL     1       4.929   4.554  17.559  0.00  0.00    +0.000 A 
ATOM     22  C   UNL     1       4.325   5.601  18.290  0.00  0.00    +0.000 A 
BRANCH  21  23
ATOM     23  C   UNL     1       6.418   4.583  17.388  0.00  0.00    +0.000 C 
ATOM     24  C   UNL     1       7.048   4.726  16.023  0.00  0.00    +0.000 C 
ATOM     25  O   UNL     1       7.133   4.467  18.385  0.00  0.00    +0.000 OA
ENDBRANCH  21  23
ENDBRANCH   3  17
TORSDOF 6
ENDMDL
MODEL 6
REMARK VINA RESULT:      -7.3      3.037      8.312
REMARK  Name = 
REMARK  8 active torsions:
REMARK  status: ('A' for Active; 'I' for Inactive)
REMARK    1  A    between atoms: C_1  and  C_2
REMARK    2  A    between atoms: C_2  and  O_3
REMARK    3  A    between atoms: O_3  and  C_4
REMARK    4  A    between atoms: C_7  and  C_8
REMARK    5  A    between atoms: N_10  and  C_11
REMARK    6  A    between atoms: C_15  and  C_16
REMARK    7  A    between atoms: C_16  and  C_17
REMARK    8  A    between atoms: C_21  and  N_22
REMARK                            x       y       z     vdW  Elec       q    Type
REMARK                         _______ _______ _______ _____ _____    ______ ____
ROOT
ATOM      1  C   UNL     1       2.135   8.458  18.144  0.00  0.00    +0.000 C 
ATOM      2  O   UNL     1       2.472   9.012  17.101  0.00  0.00    +0.000 OA
ATOM      3  N   UNL     1       1.250   8.955  19.088  0.00  0.00    +0.000 N 
ATOM      4  H   UNL     1       1.217   8.510  19.999  0.00  0.00    +0.000 HD
ENDROOT
BRANCH   1   8
ATOM      5  C   UNL     1       3.998   4.739  19.242  0.00  0.00    +0.000 A 
ATOM      6  C   UNL     1       2.996   5.318  20.023  0.00  0.00    +0.000 A 
ATOM      7  C   UNL     1       2.398   6.515  19.626  0.00  0.00    +0.000 A 
ATOM      8  C   UNL     1       2.806   7.174  18.456  0.00  0.00    +0.000 A 
ATOM      9  C   UNL     1       3.849   6.648  17.695  0.00  0.00    +0.000 A 
ATOM     10  C   UNL     1       4.438   5.440  18.110  0.00  0.00    +0.000 A 
BRANCH  10  11
ATOM     11  N   UNL     1       5.517   4.905  17.301  0.00  0.00    +0.000 N 
ATOM     12  O   UNL     1       5.219   4.164  16.356  0.00  0.00    +0.000 OA
ATOM     13  O   UNL     1       6.669   5.175  17.670  0.00  0.00    +0.000 OA
ENDBRANCH  10  11
BRANCH   5  14
ATOM     14  O   UNL     1       4.552   3.522  19.526  0.00  0.00    +0.000 OA
BRANCH  14  16
ATOM     15  C   UNL     1       3.281   1.895  18.313  0.00  0.00    +0.000 C 
ATOM     16  C   UNL     1       3.624   2.443  19.682  0.00  0.00    +0.000 C 
ENDBRANCH  14  16
ENDBRANCH   5  14
ENDBRANCH   1   8
BRANCH   3  17
ATOM     17  C   UNL     1       0.549  10.181  18.959  0.00  0.00    +0.000 A 
ATOM     18  C   UNL     1       0.996  11.367  19.546  0.00  0.00    +0.000 A 
ATOM     19  C   UNL     1       0.255  12.543  19.442  0.00  0.00    +0.000 A 
ATOM     20  C   UNL     1      -0.948  12.554  18.739  0.00  0.00    +0.000 A 
ATOM     21  C   UNL     1      -1.408  11.386  18.128  0.00  0.00    +0.000 A 
ATOM     22  C   UNL     1      -0.642  10.204  18.224  0.00  0.00    +0.000 A 
BRANCH  21  23
ATOM     23  C   UNL     1      -2.701  11.328  17.373  0.00  0.00    +0.000 C 
ATOM     24  C   UNL     1      -2.745  10.899  15.925  0.00  0.00    +0.000 C 
ATOM     25  O   UNL     1      -3.740  11.659  17.946  0.00  0.00    +0.000 OA
ENDBRANCH  21  23
ENDBRANCH   3  17
TORSDOF 6
ENDMDL
MODEL 7
REMARK VINA RESULT:      -7.3      2.417      3.570
REMARK  Name = 
REMARK  8 active torsions:
REMARK  status: ('A' for Active; 'I' for Inactive)
REMARK    1  A    between atoms: C_1  and  C_2
REMARK    2  A    between atoms: C_2  and  O_3
REMARK    3  A    between atoms: O_3  and  C_4
REMARK    4  A    between atoms: C_7  and  C_8
REMARK    5  A    between atoms: N_10  and  C_11
REMARK    6  A    between atoms: C_15  and  C_16
REMARK    7  A    between atoms: C_16  and  C_17
REMARK    8  A    between atoms: C_21  and  N_22
REMARK                            x       y       z     vdW  Elec       q    Type
REMARK                         _______ _______ _______ _____ _____    ______ ____
ROOT
ATOM      1  C   UNL     1       2.295   8.125  18.299  0.00  0.00    +0.000 C 
ATOM      2  O   UNL     1       2.639   8.457  17.169  0.00  0.00    +0.000 OA
ATOM      3  N   UNL     1       2.552   6.907  18.910  0.00  0.00    +0.000 N 
ATOM      4  H   UNL     1       2.039   6.672  19.752  0.00  0.00    +0.000 HD
ENDROOT
BRANCH   1   8
ATOM      5  C   UNL     1      -0.170  10.785  20.613  0.00  0.00    +0.000 A 
ATOM      6  C   UNL     1       0.356   9.610  21.156  0.00  0.00    +0.000 A 
ATOM      7  C   UNL     1       1.169   8.781  20.383  0.00  0.00    +0.000 A 
ATOM      8  C   UNL     1       1.453   9.091  19.044  0.00  0.00    +0.000 A 
ATOM      9  C   UNL     1       0.887  10.224  18.462  0.00  0.00    +0.000 A 
ATOM     10  C   UNL     1       0.072  11.049  19.257  0.00  0.00    +0.000 A 
BRANCH  10  11
ATOM     11  N   UNL     1      -0.502  12.228  18.636  0.00  0.00    +0.000 N 
ATOM     12  O   UNL     1      -1.623  12.124  18.126  0.00  0.00    +0.000 OA
ATOM     13  O   UNL     1       0.217  13.237  18.599  0.00  0.00    +0.000 OA
ENDBRANCH  10  11
BRANCH   5  14
ATOM     14  O   UNL     1      -0.891  11.685  21.347  0.00  0.00    +0.000 OA
BRANCH  14  16
ATOM     15  C   UNL     1      -2.351  11.870  23.236  0.00  0.00    +0.000 C 
ATOM     16  C   UNL     1      -0.998  11.397  22.745  0.00  0.00    +0.000 C 
ENDBRANCH  14  16
ENDBRANCH   5  14
ENDBRANCH   1   8
BRANCH   3  17
ATOM     17  C   UNL     1       3.313   5.863  18.324  0.00  0.00    +0.000 A 
ATOM     18  C   UNL     1       2.723   4.731  17.759  0.00  0.00    +0.000 A 
ATOM     19  C   UNL     1       3.504   3.701  17.237  0.00  0.00    +0.000 A 
ATOM     20  C   UNL     1       4.894   3.789  17.266  0.00  0.00    +0.000 A 
ATOM     21  C   UNL     1       5.508   4.918  17.810  0.00  0.00    +0.000 A 
ATOM     22  C   UNL     1       4.709   5.966  18.320  0.00  0.00    +0.000 A 
BRANCH  21  23
ATOM     23  C   UNL     1       6.997   5.067  17.886  0.00  0.00    +0.000 C 
ATOM     24  C   UNL     1       7.652   5.832  19.012  0.00  0.00    +0.000 C 
ATOM     25  O   UNL     1       7.691   4.571  16.997  0.00  0.00    +0.000 OA
ENDBRANCH  21  23
ENDBRANCH   3  17
TORSDOF 6
ENDMDL
MODEL 8
REMARK VINA RESULT:      -7.2      2.420      8.276
REMARK  Name = 
REMARK  8 active torsions:
REMARK  status: ('A' for Active; 'I' for Inactive)
REMARK    1  A    between atoms: C_1  and  C_2
REMARK    2  A    between atoms: C_2  and  O_3
REMARK    3  A    between atoms: O_3  and  C_4
REMARK    4  A    between atoms: C_7  and  C_8
REMARK    5  A    between atoms: N_10  and  C_11
REMARK    6  A    between atoms: C_15  and  C_16
REMARK    7  A    between atoms: C_16  and  C_17
REMARK    8  A    between atoms: C_21  and  N_22
REMARK                            x       y       z     vdW  Elec       q    Type
REMARK                         _______ _______ _______ _____ _____    ______ ____
ROOT
ATOM      1  C   UNL     1       2.149   7.892  18.764  0.00  0.00    +0.000 C 
ATOM      2  O   UNL     1       1.935   7.819  19.971  0.00  0.00    +0.000 OA
ATOM      3  N   UNL     1       1.648   8.851  17.898  0.00  0.00    +0.000 N 
ATOM      4  H   UNL     1       1.720   8.684  16.900  0.00  0.00    +0.000 HD
ENDROOT
BRANCH   1   8
ATOM      5  C   UNL     1       4.574   4.858  16.914  0.00  0.00    +0.000 A 
ATOM      6  C   UNL     1       4.823   6.218  16.719  0.00  0.00    +0.000 A 
ATOM      7  C   UNL     1       4.029   7.176  17.352  0.00  0.00    +0.000 A 
ATOM      8  C   UNL     1       2.954   6.797  18.170  0.00  0.00    +0.000 A 
ATOM      9  C   UNL     1       2.647   5.446  18.328  0.00  0.00    +0.000 A 
ATOM     10  C   UNL     1       3.460   4.497  17.684  0.00  0.00    +0.000 A 
BRANCH  10  11
ATOM     11  N   UNL     1       3.129   3.095  17.866  0.00  0.00    +0.000 N 
ATOM     12  O   UNL     1       2.268   2.604  17.127  0.00  0.00    +0.000 OA
ATOM     13  O   UNL     1       3.690   2.514  18.807  0.00  0.00    +0.000 OA
ENDBRANCH  10  11
BRANCH   5  14
ATOM     14  O   UNL     1       5.375   3.875  16.401  0.00  0.00    +0.000 OA
BRANCH  14  16
ATOM     15  C   UNL     1       6.179   3.930  14.146  0.00  0.00    +0.000 C 
ATOM     16  C   UNL     1       6.458   4.327  15.581  0.00  0.00    +0.000 C 
ENDBRANCH  14  16
ENDBRANCH   5  14
ENDBRANCH   1   8
BRANCH   3  17
ATOM     17  C   UNL     1       0.838   9.944  18.298  0.00  0.00    +0.000 A 
ATOM     18  C   UNL     1      -0.530  10.004  18.025  0.00  0.00    +0.000 A 
ATOM     19  C   UNL     1      -1.286  11.117  18.388  0.00  0.00    +0.000 A 
ATOM     20  C   UNL     1      -0.685  12.192  19.039  0.00  0.00    +0.000 A 
ATOM     21  C   UNL     1       0.678  12.150  19.339  0.00  0.00    +0.000 A 
ATOM     22  C   UNL     1       1.432  11.010  18.984  0.00  0.00    +0.000 A 
BRANCH  21  23
ATOM     23  C   UNL     1       1.388  13.279  20.022  0.00  0.00    +0.000 C 
ATOM     24  C   UNL     1       1.413  14.665  19.425  0.00  0.00    +0.000 C 
ATOM     25  O   UNL     1       1.978  13.056  21.081  0.00  0.00    +0.000 OA
ENDBRANCH  21  23
ENDBRANCH   3  17
TORSDOF 6
ENDMDL
MODEL 9
REMARK VINA RESULT:      -7.2      2.115      8.330
REMARK  Name = 
REMARK  8 active torsions:
REMARK  status: ('A' for Active; 'I' for Inactive)
REMARK    1  A    between atoms: C_1  and  C_2
REMARK    2  A    between atoms: C_2  and  O_3
REMARK    3  A    between atoms: O_3  and  C_4
REMARK    4  A    between atoms: C_7  and  C_8
REMARK    5  A    between atoms: N_10  and  C_11
REMARK    6  A    between atoms: C_15  and  C_16
REMARK    7  A    between atoms: C_16  and  C_17
REMARK    8  A    between atoms: C_21  and  N_22
REMARK                            x       y       z     vdW  Elec       q    Type
REMARK                         _______ _______ _______ _____ _____    ______ ____
ROOT
ATOM      1  C   UNL     1       2.610   6.233  19.206  0.00  0.00    +0.000 C 
ATOM      2  O   UNL     1       1.923   5.488  19.899  0.00  0.00    +0.000 OA
ATOM      3  N   UNL     1       2.499   7.613  19.125  0.00  0.00    +0.000 N 
ATOM      4  H   UNL     1       2.972   8.091  18.367  0.00  0.00    +0.000 HD
ENDROOT
BRANCH   1   8
ATOM      5  C   UNL     1       5.323   4.192  16.564  0.00  0.00    +0.000 A 
ATOM      6  C   UNL     1       3.961   3.887  16.598  0.00  0.00    +0.000 A 
ATOM      7  C   UNL     1       3.105   4.583  17.453  0.00  0.00    +0.000 A 
ATOM      8  C   UNL     1       3.595   5.580  18.311  0.00  0.00    +0.000 A 
ATOM      9  C   UNL     1       4.961   5.858  18.340  0.00  0.00    +0.000 A 
ATOM     10  C   UNL     1       5.806   5.147  17.470  0.00  0.00    +0.000 A 
BRANCH  10  11
ATOM     11  N   UNL     1       7.224   5.454  17.509  0.00  0.00    +0.000 N 
ATOM     12  O   UNL     1       7.622   6.428  16.859  0.00  0.00    +0.000 OA
ATOM     13  O   UNL     1       7.943   4.664  18.138  0.00  0.00    +0.000 OA
ENDBRANCH  10  11
BRANCH   5  14
ATOM     14  O   UNL     1       6.192   3.614  15.680  0.00  0.00    +0.000 OA
BRANCH  14  16
ATOM     15  C   UNL     1       5.853   3.622  13.310  0.00  0.00    +0.000 C 
ATOM     16  C   UNL     1       6.450   4.363  14.488  0.00  0.00    +0.000 C 
ENDBRANCH  14  16
ENDBRANCH   5  14
ENDBRANCH   1   8
BRANCH   3  17
ATOM     17  C   UNL     1       1.588   8.387  19.889  0.00  0.00    +0.000 A 
ATOM     18  C   UNL     1       1.445   8.232  21.269  0.00  0.00    +0.000 A 
ATOM     19  C   UNL     1       0.504   8.974  21.980  0.00  0.00    +0.000 A 
ATOM     20  C   UNL     1      -0.309   9.893  21.321  0.00  0.00    +0.000 A 
ATOM     21  C   UNL     1      -0.174  10.080  19.944  0.00  0.00    +0.000 A 
ATOM     22  C   UNL     1       0.795   9.337  19.235  0.00  0.00    +0.000 A 
BRANCH  21  23
ATOM     23  C   UNL     1      -1.028  11.040  19.173  0.00  0.00    +0.000 C 
ATOM     24  C   UNL     1      -1.565  12.299  19.811  0.00  0.00    +0.000 C 
ATOM     25  O   UNL     1      -1.310  10.777  18.003  0.00  0.00    +0.000 OA
ENDBRANCH  21  23
ENDBRANCH   3  17
TORSDOF 6
ENDMDL
