MODEL 1
REMARK VINA RESULT:      -8.2      0.000      0.000
REMARK  Name = 
REMARK  5 active torsions:
REMARK  status: ('A' for Active; 'I' for Inactive)
REMARK    1  A    between atoms: C_2  and  C_3
REMARK    2  A    between atoms: C_3  and  C_4
REMARK    3  A    between atoms: C_4  and  C_5
REMARK    4  A    between atoms: C_5  and  N_6
REMARK    5  A    between atoms: N_21  and  C_22
REMARK                            x       y       z     vdW  Elec       q    Type
REMARK                         _______ _______ _______ _____ _____    ______ ____
ROOT
ATOM      1  C   UNL     1       1.876   5.990  20.983  0.00  0.00    +0.000 C 
ENDROOT
BRANCH   1   3
ATOM      2  O   UNL     1       0.868   4.054  19.978  0.00  0.00    +0.000 OA
ATOM      3  C   UNL     1       1.684   4.968  19.874  0.00  0.00    +0.000 C 
ATOM      4  N   UNL     1       2.485   5.090  18.760  0.00  0.00    +0.000 N 
ATOM      5  C   UNL     1       3.421   6.188  18.476  0.00  0.00    +0.000 C 
ATOM      6  C   UNL     1       4.824   5.659  18.110  0.00  0.00    +0.000 C 
ATOM      7  N   UNL     1       4.700   4.647  17.051  0.00  0.00    +0.000 N 
ATOM      8  C   UNL     1       3.800   3.525  17.366  0.00  0.00    +0.000 C 
ATOM      9  C   UNL     1       2.404   4.067  17.708  0.00  0.00    +0.000 C 
BRANCH   7  10
ATOM     10  C   UNL     1       5.489   4.642  15.921  0.00  0.00    +0.000 A 
ATOM     11  C   UNL     1       6.747   5.266  15.918  0.00  0.00    +0.000 A 
ATOM     12  C   UNL     1       7.573   5.266  14.791  0.00  0.00    +0.000 A 
ATOM     13  C   UNL     1       7.152   4.633  13.627  0.00  0.00    +0.000 A 
ATOM     14  C   UNL     1       5.914   4.002  13.608  0.00  0.00    +0.000 A 
ATOM     15 CL   UNL     1       5.380   3.218  12.171  0.00  0.00    +0.000 Cl
ATOM     16  C   UNL     1       5.094   4.001  14.740  0.00  0.00    +0.000 A 
ENDBRANCH   7  10
ENDBRANCH   1   3
BRANCH   1  17
ATOM     17  C   UNL     1       0.901   7.162  20.897  0.00  0.00    +0.000 C 
BRANCH  17  18
ATOM     18  C   UNL     1       1.534   8.492  21.326  0.00  0.00    +0.000 C 
BRANCH  18  19
ATOM     19  N   UNL     1       0.623   9.624  21.118  0.00  0.00    +0.000 N 
ATOM     20  C   UNL     1       0.408  10.164  19.849  0.00  0.00    +0.000 A 
ATOM     21  S   UNL     1       1.118   9.705  18.400  0.00  0.00    +0.000 S 
ATOM     22  N   UNL     1      -0.496  11.187  19.761  0.00  0.00    +0.000 N 
ATOM     23  C   UNL     1      -1.200  11.701  20.843  0.00  0.00    +0.000 A 
ATOM     24  C   UNL     1      -2.143  12.708  20.639  0.00  0.00    +0.000 A 
ATOM     25  C   UNL     1      -2.851  13.216  21.731  0.00  0.00    +0.000 A 
ATOM     26  C   UNL     1      -2.608  12.729  23.015  0.00  0.00    +0.000 A 
ATOM     27  C   UNL     1      -1.659  11.724  23.214  0.00  0.00    +0.000 A 
ATOM     28  C   UNL     1      -0.960  11.209  22.117  0.00  0.00    +0.000 A 
ATOM     29  C   UNL     1       0.028  10.130  22.285  0.00  0.00    +0.000 A 
ATOM     30  O   UNL     1       0.283   9.730  23.418  0.00  0.00    +0.000 OA
ATOM     31  H   UNL     1      -0.656  11.559  18.831  0.00  0.00    +0.000 HD
ENDBRANCH  18  19
ENDBRANCH  17  18
ENDBRANCH   1  17
TORSDOF 5
ENDMDL
MODEL 2
REMARK VINA RESULT:      -8.0      4.088      8.912
REMARK  Name = 
REMARK  5 active torsions:
REMARK  status: ('A' for Active; 'I' for Inactive)
REMARK    1  A    between atoms: C_2  and  C_3
REMARK    2  A    between atoms: C_3  and  C_4
REMARK    3  A    between atoms: C_4  and  C_5
REMARK    4  A    between atoms: C_5  and  N_6
REMARK    5  A    between atoms: N_21  and  C_22
REMARK                            x       y       z     vdW  Elec       q    Type
REMARK                         _______ _______ _______ _____ _____    ______ ____
ROOT
ATOM      1  C   UNL     1       1.615   4.948  17.738  0.00  0.00    +0.000 C 
ENDROOT
BRANCH   1   3
ATOM      2  O   UNL     1       1.669   5.005  20.139  0.00  0.00    +0.000 OA
ATOM      3  C   UNL     1       1.761   5.634  19.087  0.00  0.00    +0.000 C 
ATOM      4  N   UNL     1       1.970   6.995  19.080  0.00  0.00    +0.000 N 
ATOM      5  C   UNL     1       2.196   7.837  17.896  0.00  0.00    +0.000 C 
ATOM      6  C   UNL     1       1.255   9.060  17.879  0.00  0.00    +0.000 C 
ATOM      7  N   UNL     1       1.338   9.755  19.171  0.00  0.00    +0.000 N 
ATOM      8  C   UNL     1       1.058   8.915  20.348  0.00  0.00    +0.000 C 
ATOM      9  C   UNL     1       2.018   7.715  20.361  0.00  0.00    +0.000 C 
BRANCH   7  10
ATOM     10  C   UNL     1       1.490  11.121  19.281  0.00  0.00    +0.000 A 
ATOM     11  C   UNL     1       2.158  11.853  18.286  0.00  0.00    +0.000 A 
ATOM     12  C   UNL     1       2.316  13.239  18.365  0.00  0.00    +0.000 A 
ATOM     13  C   UNL     1       1.803  13.930  19.457  0.00  0.00    +0.000 A 
ATOM     14  C   UNL     1       1.132  13.228  20.451  0.00  0.00    +0.000 A 
ATOM     15 CL   UNL     1       0.496  14.074  21.809  0.00  0.00    +0.000 Cl
ATOM     16  C   UNL     1       0.972  11.842  20.364  0.00  0.00    +0.000 A 
ENDBRANCH   7  10
ENDBRANCH   1   3
BRANCH   1  17
ATOM     17  C   UNL     1       1.997   3.470  17.769  0.00  0.00    +0.000 C 
BRANCH  17  18
ATOM     18  C   UNL     1       3.359   3.197  17.118  0.00  0.00    +0.000 C 
BRANCH  18  19
ATOM     19  N   UNL     1       4.440   3.935  17.782  0.00  0.00    +0.000 N 
ATOM     20  C   UNL     1       4.899   3.574  19.050  0.00  0.00    +0.000 A 
ATOM     21  S   UNL     1       4.333   2.341  20.037  0.00  0.00    +0.000 S 
ATOM     22  N   UNL     1       5.941   4.299  19.557  0.00  0.00    +0.000 N 
ATOM     23  C   UNL     1       6.558   5.350  18.889  0.00  0.00    +0.000 A 
ATOM     24  C   UNL     1       7.653   5.990  19.468  0.00  0.00    +0.000 A 
ATOM     25  C   UNL     1       8.271   7.042  18.788  0.00  0.00    +0.000 A 
ATOM     26  C   UNL     1       7.791   7.456  17.546  0.00  0.00    +0.000 A 
ATOM     27  C   UNL     1       6.692   6.813  16.972  0.00  0.00    +0.000 A 
ATOM     28  C   UNL     1       6.082   5.753  17.650  0.00  0.00    +0.000 A 
ATOM     29  C   UNL     1       4.938   5.034  17.064  0.00  0.00    +0.000 A 
ATOM     30  O   UNL     1       4.478   5.424  15.994  0.00  0.00    +0.000 OA
ATOM     31  H   UNL     1       6.276   4.016  20.471  0.00  0.00    +0.000 HD
ENDBRANCH  18  19
ENDBRANCH  17  18
ENDBRANCH   1  17
TORSDOF 5
ENDMDL
MODEL 3
REMARK VINA RESULT:      -8.0      3.992     10.465
REMARK  Name = 
REMARK  5 active torsions:
REMARK  status: ('A' for Active; 'I' for Inactive)
REMARK    1  A    between atoms: C_2  and  C_3
REMARK    2  A    between atoms: C_3  and  C_4
REMARK    3  A    between atoms: C_4  and  C_5
REMARK    4  A    between atoms: C_5  and  N_6
REMARK    5  A    between atoms: N_21  and  C_22
REMARK                            x       y       z     vdW  Elec       q    Type
REMARK                         _______ _______ _______ _____ _____    ______ ____
ROOT
ATOM      1  C   UNL     1       2.124   7.129  20.818  0.00  0.00    +0.000 C 
ENDROOT
BRANCH   1   3
ATOM      2  O   UNL     1       2.123   8.471  18.824  0.00  0.00    +0.000 OA
ATOM      3  C   UNL     1       1.620   8.251  19.924  0.00  0.00    +0.000 C 
ATOM      4  N   UNL     1       0.596   9.032  20.414  0.00  0.00    +0.000 N 
ATOM      5  C   UNL     1      -0.150   8.811  21.661  0.00  0.00    +0.000 C 
ATOM      6  C   UNL     1      -0.196  10.085  22.530  0.00  0.00    +0.000 C 
ATOM      7  N   UNL     1      -0.659  11.214  21.712  0.00  0.00    +0.000 N 
ATOM      8  C   UNL     1       0.127  11.460  20.490  0.00  0.00    +0.000 C 
ATOM      9  C   UNL     1       0.145  10.190  19.628  0.00  0.00    +0.000 C 
BRANCH   7  10
ATOM     10  C   UNL     1      -1.638  12.092  22.127  0.00  0.00    +0.000 A 
ATOM     11  C   UNL     1      -1.849  13.306  21.455  0.00  0.00    +0.000 A 
ATOM     12  C   UNL     1      -2.841  14.209  21.846  0.00  0.00    +0.000 A 
ATOM     13  C   UNL     1      -3.653  13.911  22.935  0.00  0.00    +0.000 A 
ATOM     14  C   UNL     1      -3.468  12.712  23.612  0.00  0.00    +0.000 A 
ATOM     15 CL   UNL     1      -4.465  12.335  24.964  0.00  0.00    +0.000 Cl
ATOM     16  C   UNL     1      -2.477  11.810  23.212  0.00  0.00    +0.000 A 
ENDBRANCH   7  10
ENDBRANCH   1   3
BRANCH   1  17
ATOM     17  C   UNL     1       1.695   5.742  20.341  0.00  0.00    +0.000 C 
BRANCH  17  18
ATOM     18  C   UNL     1       2.816   4.702  20.463  0.00  0.00    +0.000 C 
BRANCH  18  19
ATOM     19  N   UNL     1       3.437   4.412  19.165  0.00  0.00    +0.000 N 
ATOM     20  C   UNL     1       2.845   3.536  18.254  0.00  0.00    +0.000 A 
ATOM     21  S   UNL     1       1.429   2.656  18.440  0.00  0.00    +0.000 S 
ATOM     22  N   UNL     1       3.484   3.372  17.055  0.00  0.00    +0.000 N 
ATOM     23  C   UNL     1       4.661   4.021  16.703  0.00  0.00    +0.000 A 
ATOM     24  C   UNL     1       5.203   3.830  15.433  0.00  0.00    +0.000 A 
ATOM     25  C   UNL     1       6.383   4.491  15.084  0.00  0.00    +0.000 A 
ATOM     26  C   UNL     1       7.020   5.325  16.003  0.00  0.00    +0.000 A 
ATOM     27  C   UNL     1       6.475   5.509  17.275  0.00  0.00    +0.000 A 
ATOM     28  C   UNL     1       5.287   4.856  17.617  0.00  0.00    +0.000 A 
ATOM     29  C   UNL     1       4.668   5.047  18.940  0.00  0.00    +0.000 A 
ATOM     30  O   UNL     1       5.248   5.741  19.771  0.00  0.00    +0.000 OA
ATOM     31  H   UNL     1       3.035   2.746  16.395  0.00  0.00    +0.000 HD
ENDBRANCH  18  19
ENDBRANCH  17  18
ENDBRANCH   1  17
TORSDOF 5
ENDMDL
MODEL 4
REMARK VINA RESULT:      -7.9      3.432     10.038
REMARK  Name = 
REMARK  5 active torsions:
REMARK  status: ('A' for Active; 'I' for Inactive)
REMARK    1  A    between atoms: C_2  and  C_3
REMARK    2  A    between atoms: C_3  and  C_4
REMARK    3  A    between atoms: C_4  and  C_5
REMARK    4  A    between atoms: C_5  and  N_6
REMARK    5  A    between atoms: N_21  and  C_22
REMARK                            x       y       z     vdW  Elec       q    Type
REMARK                         _______ _______ _______ _____ _____    ______ ____
ROOT
ATOM      1  C   UNL     1       2.663   5.558  18.763  0.00  0.00    +0.000 C 
ENDROOT
BRANCH   1   3
ATOM      2  O   UNL     1       1.828   5.726  21.010  0.00  0.00    +0.000 OA
ATOM      3  C   UNL     1       2.118   6.309  19.967  0.00  0.00    +0.000 C 
ATOM      4  N   UNL     1       1.933   7.667  19.830  0.00  0.00    +0.000 N 
ATOM      5  C   UNL     1       2.331   8.489  18.678  0.00  0.00    +0.000 C 
ATOM      6  C   UNL     1       1.162   9.359  18.168  0.00  0.00    +0.000 C 
ATOM      7  N   UNL     1       0.579  10.098  19.297  0.00  0.00    +0.000 N 
ATOM      8  C   UNL     1       0.135   9.260  20.425  0.00  0.00    +0.000 C 
ATOM      9  C   UNL     1       1.314   8.417  20.933  0.00  0.00    +0.000 C 
BRANCH   7  10
ATOM     10  C   UNL     1       0.300  11.447  19.248  0.00  0.00    +0.000 A 
ATOM     11  C   UNL     1      -0.996  11.923  19.505  0.00  0.00    +0.000 A 
ATOM     12  C   UNL     1      -1.305  13.286  19.474  0.00  0.00    +0.000 A 
ATOM     13  C   UNL     1      -0.310  14.212  19.182  0.00  0.00    +0.000 A 
ATOM     14  C   UNL     1       0.982  13.765  18.931  0.00  0.00    +0.000 A 
ATOM     15 CL   UNL     1       2.221  14.903  18.564  0.00  0.00    +0.000 Cl
ATOM     16  C   UNL     1       1.286  12.401  18.969  0.00  0.00    +0.000 A 
ENDBRANCH   7  10
ENDBRANCH   1   3
BRANCH   1  17
ATOM     17  C   UNL     1       4.026   6.071  18.301  0.00  0.00    +0.000 C 
BRANCH  17  18
ATOM     18  C   UNL     1       5.054   4.945  18.128  0.00  0.00    +0.000 C 
BRANCH  18  19
ATOM     19  N   UNL     1       5.746   5.031  16.836  0.00  0.00    +0.000 N 
ATOM     20  C   UNL     1       6.875   5.833  16.665  0.00  0.00    +0.000 A 
ATOM     21  S   UNL     1       7.610   6.832  17.794  0.00  0.00    +0.000 S 
ATOM     22  N   UNL     1       7.469   5.804  15.433  0.00  0.00    +0.000 N 
ATOM     23  C   UNL     1       7.021   5.031  14.369  0.00  0.00    +0.000 A 
ATOM     24  C   UNL     1       7.732   5.028  13.169  0.00  0.00    +0.000 A 
ATOM     25  C   UNL     1       7.278   4.244  12.105  0.00  0.00    +0.000 A 
ATOM     26  C   UNL     1       6.118   3.480  12.238  0.00  0.00    +0.000 A 
ATOM     27  C   UNL     1       5.409   3.492  13.441  0.00  0.00    +0.000 A 
ATOM     28  C   UNL     1       5.872   4.268  14.508  0.00  0.00    +0.000 A 
ATOM     29  C   UNL     1       5.164   4.282  15.799  0.00  0.00    +0.000 A 
ATOM     30  O   UNL     1       4.116   3.652  15.909  0.00  0.00    +0.000 OA
ATOM     31  H   UNL     1       8.299   6.378  15.327  0.00  0.00    +0.000 HD
ENDBRANCH  18  19
ENDBRANCH  17  18
ENDBRANCH   1  17
TORSDOF 5
ENDMDL
MODEL 5
REMARK VINA RESULT:      -7.9      3.727     10.285
REMARK  Name = 
REMARK  5 active torsions:
REMARK  status: ('A' for Active; 'I' for Inactive)
REMARK    1  A    between atoms: C_2  and  C_3
REMARK    2  A    between atoms: C_3  and  C_4
REMARK    3  A    between atoms: C_4  and  C_5
REMARK    4  A    between atoms: C_5  and  N_6
REMARK    5  A    between atoms: N_21  and  C_22
REMARK                            x       y       z     vdW  Elec       q    Type
REMARK                         _______ _______ _______ _____ _____    ______ ____
ROOT
ATOM      1  C   UNL     1       2.604   5.707  18.693  0.00  0.00    +0.000 C 
ENDROOT
BRANCH   1   3
ATOM      2  O   UNL     1       1.975   5.575  21.008  0.00  0.00    +0.000 OA
ATOM      3  C   UNL     1       2.132   6.285  20.017  0.00  0.00    +0.000 C 
ATOM      4  N   UNL     1       1.857   7.635  20.051  0.00  0.00    +0.000 N 
ATOM      5  C   UNL     1       2.098   8.601  18.970  0.00  0.00    +0.000 C 
ATOM      6  C   UNL     1       0.839   9.440  18.665  0.00  0.00    +0.000 C 
ATOM      7  N   UNL     1       0.323  10.012  19.917  0.00  0.00    +0.000 N 
ATOM      8  C   UNL     1       0.035   9.030  20.977  0.00  0.00    +0.000 C 
ATOM      9  C   UNL     1       1.303   8.218  21.282  0.00  0.00    +0.000 C 
BRANCH   7  10
ATOM     10  C   UNL     1      -0.037  11.336  20.046  0.00  0.00    +0.000 A 
ATOM     11  C   UNL     1      -0.163  12.161  18.916  0.00  0.00    +0.000 A 
ATOM     12  C   UNL     1      -0.537  13.503  19.016  0.00  0.00    +0.000 A 
ATOM     13  C   UNL     1      -0.796  14.056  20.265  0.00  0.00    +0.000 A 
ATOM     14  C   UNL     1      -0.684  13.258  21.397  0.00  0.00    +0.000 A 
ATOM     15 CL   UNL     1      -0.997  13.933  22.950  0.00  0.00    +0.000 Cl
ATOM     16  C   UNL     1      -0.315  11.914  21.291  0.00  0.00    +0.000 A 
ENDBRANCH   7  10
ENDBRANCH   1   3
BRANCH   1  17
ATOM     17  C   UNL     1       3.978   6.222  18.267  0.00  0.00    +0.000 C 
BRANCH  17  18
ATOM     18  C   UNL     1       5.021   5.103  18.155  0.00  0.00    +0.000 C 
BRANCH  18  19
ATOM     19  N   UNL     1       5.721   5.135  16.865  0.00  0.00    +0.000 N 
ATOM     20  C   UNL     1       6.884   5.883  16.684  0.00  0.00    +0.000 A 
ATOM     21  S   UNL     1       7.658   6.870  17.798  0.00  0.00    +0.000 S 
ATOM     22  N   UNL     1       7.481   5.805  15.456  0.00  0.00    +0.000 N 
ATOM     23  C   UNL     1       7.004   5.033  14.404  0.00  0.00    +0.000 A 
ATOM     24  C   UNL     1       7.718   4.976  13.208  0.00  0.00    +0.000 A 
ATOM     25  C   UNL     1       7.235   4.193  12.157  0.00  0.00    +0.000 A 
ATOM     26  C   UNL     1       6.042   3.484  12.299  0.00  0.00    +0.000 A 
ATOM     27  C   UNL     1       5.329   3.548  13.498  0.00  0.00    +0.000 A 
ATOM     28  C   UNL     1       5.822   4.323  14.553  0.00  0.00    +0.000 A 
ATOM     29  C   UNL     1       5.111   4.393  15.840  0.00  0.00    +0.000 A 
ATOM     30  O   UNL     1       4.035   3.811  15.957  0.00  0.00    +0.000 OA
ATOM     31  H   UNL     1       8.336   6.341  15.343  0.00  0.00    +0.000 HD
ENDBRANCH  18  19
ENDBRANCH  17  18
ENDBRANCH   1  17
TORSDOF 5
ENDMDL
MODEL 6
REMARK VINA RESULT:      -7.8      3.916     10.315
REMARK  Name = 
REMARK  5 active torsions:
REMARK  status: ('A' for Active; 'I' for Inactive)
REMARK    1  A    between atoms: C_2  and  C_3
REMARK    2  A    between atoms: C_3  and  C_4
REMARK    3  A    between atoms: C_4  and  C_5
REMARK    4  A    between atoms: C_5  and  N_6
REMARK    5  A    between atoms: N_21  and  C_22
REMARK                            x       y       z     vdW  Elec       q    Type
REMARK                         _______ _______ _______ _____ _____    ______ ____
ROOT
ATOM      1  C   UNL     1       3.890   6.120  19.358  0.00  0.00    +0.000 C 
ENDROOT
BRANCH   1   3
ATOM      2  O   UNL     1       3.799   7.220  17.224  0.00  0.00    +0.000 OA
ATOM      3  C   UNL     1       3.307   7.090  18.343  0.00  0.00    +0.000 C 
ATOM      4  N   UNL     1       2.222   7.840  18.741  0.00  0.00    +0.000 N 
ATOM      5  C   UNL     1       1.487   7.706  20.007  0.00  0.00    +0.000 C 
ATOM      6  C   UNL     1       1.336   9.064  20.724  0.00  0.00    +0.000 C 
ATOM      7  N   UNL     1       0.792  10.052  19.782  0.00  0.00    +0.000 N 
ATOM      8  C   UNL     1       1.565  10.217  18.538  0.00  0.00    +0.000 C 
ATOM      9  C   UNL     1       1.688   8.861  17.828  0.00  0.00    +0.000 C 
BRANCH   7  10
ATOM     10  C   UNL     1      -0.254  10.893  20.096  0.00  0.00    +0.000 A 
ATOM     11  C   UNL     1      -1.261  11.170  19.157  0.00  0.00    +0.000 A 
ATOM     12  C   UNL     1      -2.340  12.008  19.452  0.00  0.00    +0.000 A 
ATOM     13  C   UNL     1      -2.434  12.595  20.709  0.00  0.00    +0.000 A 
ATOM     14  C   UNL     1      -1.453  12.330  21.657  0.00  0.00    +0.000 A 
ATOM     15 CL   UNL     1      -1.557  13.055  23.215  0.00  0.00    +0.000 Cl
ATOM     16  C   UNL     1      -0.379  11.486  21.358  0.00  0.00    +0.000 A 
ENDBRANCH   7  10
ENDBRANCH   1   3
BRANCH   1  17
ATOM     17  C   UNL     1       4.054   4.703  18.812  0.00  0.00    +0.000 C 
BRANCH  17  18
ATOM     18  C   UNL     1       5.525   4.291  18.671  0.00  0.00    +0.000 C 
BRANCH  18  19
ATOM     19  N   UNL     1       6.057   4.611  17.341  0.00  0.00    +0.000 N 
ATOM     20  C   UNL     1       7.037   5.588  17.163  0.00  0.00    +0.000 A 
ATOM     21  S   UNL     1       7.739   6.568  18.330  0.00  0.00    +0.000 S 
ATOM     22  N   UNL     1       7.496   5.775  15.888  0.00  0.00    +0.000 N 
ATOM     23  C   UNL     1       7.052   5.055  14.786  0.00  0.00    +0.000 A 
ATOM     24  C   UNL     1       7.625   5.280  13.535  0.00  0.00    +0.000 A 
ATOM     25  C   UNL     1       7.177   4.548  12.433  0.00  0.00    +0.000 A 
ATOM     26  C   UNL     1       6.158   3.608  12.580  0.00  0.00    +0.000 A 
ATOM     27  C   UNL     1       5.585   3.389  13.835  0.00  0.00    +0.000 A 
ATOM     28  C   UNL     1       6.043   4.115  14.939  0.00  0.00    +0.000 A 
ATOM     29  C   UNL     1       5.481   3.891  16.281  0.00  0.00    +0.000 A 
ATOM     30  O   UNL     1       4.550   3.101  16.411  0.00  0.00    +0.000 OA
ATOM     31  H   UNL     1       8.221   6.476  15.775  0.00  0.00    +0.000 HD
ENDBRANCH  18  19
ENDBRANCH  17  18
ENDBRANCH   1  17
TORSDOF 5
ENDMDL
MODEL 7
REMARK VINA RESULT:      -7.8      3.932     10.687
REMARK  Name = 
REMARK  5 active torsions:
REMARK  status: ('A' for Active; 'I' for Inactive)
REMARK    1  A    between atoms: C_2  and  C_3
REMARK    2  A    between atoms: C_3  and  C_4
REMARK    3  A    between atoms: C_4  and  C_5
REMARK    4  A    between atoms: C_5  and  N_6
REMARK    5  A    between atoms: N_21  and  C_22
REMARK                            x       y       z     vdW  Elec       q    Type
REMARK                         _______ _______ _______ _____ _____    ______ ____
ROOT
ATOM      1  C   UNL     1       3.191   6.656  19.214  0.00  0.00    +0.000 C 
ENDROOT
BRANCH   1   3
ATOM      2  O   UNL     1       2.698   8.132  17.383  0.00  0.00    +0.000 OA
ATOM      3  C   UNL     1       2.479   7.824  18.553  0.00  0.00    +0.000 C 
ATOM      4  N   UNL     1       1.599   8.545  19.331  0.00  0.00    +0.000 N 
ATOM      5  C   UNL     1       1.180   8.220  20.702  0.00  0.00    +0.000 C 
ATOM      6  C   UNL     1       1.339   9.430  21.648  0.00  0.00    +0.000 C 
ATOM      7  N   UNL     1       0.683  10.602  21.050  0.00  0.00    +0.000 N 
ATOM      8  C   UNL     1       1.148  10.950  19.696  0.00  0.00    +0.000 C 
ATOM      9  C   UNL     1       0.963   9.744  18.764  0.00  0.00    +0.000 C 
BRANCH   7  10
ATOM     10  C   UNL     1      -0.170  11.425  21.753  0.00  0.00    +0.000 A 
ATOM     11  C   UNL     1      -1.119  10.890  22.639  0.00  0.00    +0.000 A 
ATOM     12  C   UNL     1      -1.989  11.700  23.373  0.00  0.00    +0.000 A 
ATOM     13  C   UNL     1      -1.927  13.082  23.233  0.00  0.00    +0.000 A 
ATOM     14  C   UNL     1      -0.991  13.635  22.367  0.00  0.00    +0.000 A 
ATOM     15 CL   UNL     1      -0.908  15.346  22.183  0.00  0.00    +0.000 Cl
ATOM     16  C   UNL     1      -0.120  12.820  21.639  0.00  0.00    +0.000 A 
ENDBRANCH   7  10
ENDBRANCH   1   3
BRANCH   1  17
ATOM     17  C   UNL     1       3.526   5.527  18.240  0.00  0.00    +0.000 C 
BRANCH  17  18
ATOM     18  C   UNL     1       4.985   5.066  18.347  0.00  0.00    +0.000 C 
BRANCH  18  19
ATOM     19  N   UNL     1       5.675   5.128  17.053  0.00  0.00    +0.000 N 
ATOM     20  C   UNL     1       6.805   5.925  16.867  0.00  0.00    +0.000 A 
ATOM     21  S   UNL     1       7.544   6.942  17.978  0.00  0.00    +0.000 S 
ATOM     22  N   UNL     1       7.397   5.875  15.635  0.00  0.00    +0.000 N 
ATOM     23  C   UNL     1       6.946   5.085  14.584  0.00  0.00    +0.000 A 
ATOM     24  C   UNL     1       7.654   5.060  13.383  0.00  0.00    +0.000 A 
ATOM     25  C   UNL     1       7.198   4.259  12.334  0.00  0.00    +0.000 A 
ATOM     26  C   UNL     1       6.037   3.500  12.482  0.00  0.00    +0.000 A 
ATOM     27  C   UNL     1       5.329   3.533  13.685  0.00  0.00    +0.000 A 
ATOM     28  C   UNL     1       5.795   4.326  14.738  0.00  0.00    +0.000 A 
ATOM     29  C   UNL     1       5.090   4.364  16.030  0.00  0.00    +0.000 A 
ATOM     30  O   UNL     1       4.041   3.737  16.152  0.00  0.00    +0.000 OA
ATOM     31  H   UNL     1       8.228   6.445  15.517  0.00  0.00    +0.000 HD
ENDBRANCH  18  19
ENDBRANCH  17  18
ENDBRANCH   1  17
TORSDOF 5
ENDMDL
MODEL 8
REMARK VINA RESULT:      -7.8      4.112     10.906
REMARK  Name = 
REMARK  5 active torsions:
REMARK  status: ('A' for Active; 'I' for Inactive)
REMARK    1  A    between atoms: C_2  and  C_3
REMARK    2  A    between atoms: C_3  and  C_4
REMARK    3  A    between atoms: C_4  and  C_5
REMARK    4  A    between atoms: C_5  and  N_6
REMARK    5  A    between atoms: N_21  and  C_22
REMARK                            x       y       z     vdW  Elec       q    Type
REMARK                         _______ _______ _______ _____ _____    ______ ____
ROOT
ATOM      1  C   UNL     1       1.498   7.475  20.731  0.00  0.00    +0.000 C 
ENDROOT
BRANCH   1   3
ATOM      2  O   UNL     1       1.614   9.187  19.050  0.00  0.00    +0.000 OA
ATOM      3  C   UNL     1       1.106   8.802  20.101  0.00  0.00    +0.000 C 
ATOM      4  N   UNL     1       0.182   9.569  20.776  0.00  0.00    +0.000 N 
ATOM      5  C   UNL     1      -0.564   9.177  21.980  0.00  0.00    +0.000 C 
ATOM      6  C   UNL     1      -0.457  10.245  23.089  0.00  0.00    +0.000 C 
ATOM      7  N   UNL     1      -0.806  11.559  22.532  0.00  0.00    +0.000 N 
ATOM      8  C   UNL     1      -0.017  11.966  21.356  0.00  0.00    +0.000 C 
ATOM      9  C   UNL     1      -0.151  10.903  20.256  0.00  0.00    +0.000 C 
BRANCH   7  10
ATOM     10  C   UNL     1      -1.676  12.431  23.152  0.00  0.00    +0.000 A 
ATOM     11  C   UNL     1      -1.279  13.739  23.471  0.00  0.00    +0.000 A 
ATOM     12  C   UNL     1      -2.143  14.647  24.088  0.00  0.00    +0.000 A 
ATOM     13  C   UNL     1      -3.441  14.260  24.403  0.00  0.00    +0.000 A 
ATOM     14  C   UNL     1      -3.859  12.972  24.090  0.00  0.00    +0.000 A 
ATOM     15 CL   UNL     1      -5.462  12.480  24.480  0.00  0.00    +0.000 Cl
ATOM     16  C   UNL     1      -2.992  12.069  23.468  0.00  0.00    +0.000 A 
ENDBRANCH   7  10
ENDBRANCH   1   3
BRANCH   1  17
ATOM     17  C   UNL     1       2.624   6.763  19.985  0.00  0.00    +0.000 C 
BRANCH  17  18
ATOM     18  C   UNL     1       2.145   5.505  19.249  0.00  0.00    +0.000 C 
BRANCH  18  19
ATOM     19  N   UNL     1       3.191   4.945  18.385  0.00  0.00    +0.000 N 
ATOM     20  C   UNL     1       3.588   3.611  18.492  0.00  0.00    +0.000 A 
ATOM     21  S   UNL     1       3.034   2.454  19.573  0.00  0.00    +0.000 S 
ATOM     22  N   UNL     1       4.538   3.180  17.607  0.00  0.00    +0.000 N 
ATOM     23  C   UNL     1       5.112   3.980  16.626  0.00  0.00    +0.000 A 
ATOM     24  C   UNL     1       6.031   3.429  15.735  0.00  0.00    +0.000 A 
ATOM     25  C   UNL     1       6.599   4.238  14.748  0.00  0.00    +0.000 A 
ATOM     26  C   UNL     1       6.258   5.588  14.663  0.00  0.00    +0.000 A 
ATOM     27  C   UNL     1       5.339   6.135  15.561  0.00  0.00    +0.000 A 
ATOM     28  C   UNL     1       4.763   5.320  16.540  0.00  0.00    +0.000 A 
ATOM     29  C   UNL     1       3.771   5.856  17.487  0.00  0.00    +0.000 A 
ATOM     30  O   UNL     1       3.502   7.053  17.451  0.00  0.00    +0.000 OA
ATOM     31  H   UNL     1       4.806   2.204  17.684  0.00  0.00    +0.000 HD
ENDBRANCH  18  19
ENDBRANCH  17  18
ENDBRANCH   1  17
TORSDOF 5
ENDMDL
MODEL 9
REMARK VINA RESULT:      -7.8      3.826     10.355
REMARK  Name = 
REMARK  5 active torsions:
REMARK  status: ('A' for Active; 'I' for Inactive)
REMARK    1  A    between atoms: C_2  and  C_3
REMARK    2  A    between atoms: C_3  and  C_4
REMARK    3  A    between atoms: C_4  and  C_5
REMARK    4  A    between atoms: C_5  and  N_6
REMARK    5  A    between atoms: N_21  and  C_22
REMARK                            x       y       z     vdW  Elec       q    Type
REMARK                         _______ _______ _______ _____ _____    ______ ____
ROOT
ATOM      1  C   UNL     1       1.771   6.497  21.037  0.00  0.00    +0.000 C 
ENDROOT
BRANCH   1   3
ATOM      2  O   UNL     1       2.383   7.971  19.241  0.00  0.00    +0.000 OA
ATOM      3  C   UNL     1       1.657   7.769  20.213  0.00  0.00    +0.000 C 
ATOM      4  N   UNL     1       0.729   8.701  20.621  0.00  0.00    +0.000 N 
ATOM      5  C   UNL     1      -0.258   8.535  21.698  0.00  0.00    +0.000 C 
ATOM      6  C   UNL     1      -0.218   9.715  22.693  0.00  0.00    +0.000 C 
ATOM      7  N   UNL     1      -0.304  10.979  21.949  0.00  0.00    +0.000 N 
ATOM      8  C   UNL     1       0.721  11.159  20.906  0.00  0.00    +0.000 C 
ATOM      9  C   UNL     1       0.653   9.988  19.914  0.00  0.00    +0.000 C 
BRANCH   7  10
ATOM     10  C   UNL     1      -1.158  12.002  22.303  0.00  0.00    +0.000 A 
ATOM     11  C   UNL     1      -2.183  11.793  23.240  0.00  0.00    +0.000 A 
ATOM     12  C   UNL     1      -3.055  12.814  23.626  0.00  0.00    +0.000 A 
ATOM     13  C   UNL     1      -2.918  14.083  23.075  0.00  0.00    +0.000 A 
ATOM     14  C   UNL     1      -1.906  14.316  22.151  0.00  0.00    +0.000 A 
ATOM     15 CL   UNL     1      -1.729  15.884  21.460  0.00  0.00    +0.000 Cl
ATOM     16  C   UNL     1      -1.033  13.293  21.773  0.00  0.00    +0.000 A 
ENDBRANCH   7  10
ENDBRANCH   1   3
BRANCH   1  17
ATOM     17  C   UNL     1       1.655   5.224  20.199  0.00  0.00    +0.000 C 
BRANCH  17  18
ATOM     18  C   UNL     1       2.867   4.298  20.358  0.00  0.00    +0.000 C 
BRANCH  18  19
ATOM     19  N   UNL     1       3.592   4.124  19.094  0.00  0.00    +0.000 N 
ATOM     20  C   UNL     1       3.175   3.200  18.135  0.00  0.00    +0.000 A 
ATOM     21  S   UNL     1       1.881   2.136  18.224  0.00  0.00    +0.000 S 
ATOM     22  N   UNL     1       3.895   3.151  16.973  0.00  0.00    +0.000 N 
ATOM     23  C   UNL     1       4.993   3.959  16.701  0.00  0.00    +0.000 A 
ATOM     24  C   UNL     1       5.625   3.873  15.462  0.00  0.00    +0.000 A 
ATOM     25  C   UNL     1       6.724   4.692  15.193  0.00  0.00    +0.000 A 
ATOM     26  C   UNL     1       7.191   5.581  16.161  0.00  0.00    +0.000 A 
ATOM     27  C   UNL     1       6.556   5.660  17.403  0.00  0.00    +0.000 A 
ATOM     28  C   UNL     1       5.449   4.847  17.664  0.00  0.00    +0.000 A 
ATOM     29  C   UNL     1       4.738   4.923  18.951  0.00  0.00    +0.000 A 
ATOM     30  O   UNL     1       5.173   5.667  19.826  0.00  0.00    +0.000 OA
ATOM     31  H   UNL     1       3.572   2.487  16.277  0.00  0.00    +0.000 HD
ENDBRANCH  18  19
ENDBRANCH  17  18
ENDBRANCH   1  17
TORSDOF 5
ENDMDL
