MODEL 1
REMARK VINA RESULT:      -7.2      0.000      0.000
REMARK  Name = 
REMARK  6 active torsions:
REMARK  status: ('A' for Active; 'I' for Inactive)
REMARK    1  A    between atoms: N_1  and  C_2
REMARK    2  A    between atoms: N_12  and  C1*_13
REMARK    3  A    between atoms: C4*_15  and  C5*_16
REMARK    4  A    between atoms: C5*_16  and  O5*_17
REMARK    5  A    between atoms: C3*_18  and  O3*_19
REMARK    6  A    between atoms: C2*_20  and  O2*_21
REMARK                            x       y       z     vdW  Elec       q    Type
REMARK                         _______ _______ _______ _____ _____    ______ ____
ROOT
ATOM      1  C   UNL     1       6.844   4.974  14.932  0.00  0.00    +0.000 A 
ATOM      2  N   UNL     1       6.190   4.131  14.119  0.00  0.00    +0.000 NA
ATOM      3  C   UNL     1       5.206   3.412  14.673  0.00  0.00    +0.000 A 
ATOM      4  N   UNL     1       4.818   3.455  15.955  0.00  0.00    +0.000 NA
ATOM      5  C   UNL     1       5.489   4.293  16.771  0.00  0.00    +0.000 A 
ATOM      6  C   UNL     1       6.517   5.098  16.274  0.00  0.00    +0.000 A 
ATOM      7  C   UNL     1       7.168   6.090  17.157  0.00  0.00    +0.000 A 
ATOM      8  O   UNL     1       7.963   6.927  16.747  0.00  0.00    +0.000 OA
ATOM      9  C   UNL     1       6.774   6.097  18.579  0.00  0.00    +0.000 A 
ATOM     10  C   UNL     1       5.808   5.261  18.966  0.00  0.00    +0.000 A 
ATOM     11  N   UNL     1       5.139   4.374  18.145  0.00  0.00    +0.000 N 
ENDROOT
BRANCH  11  12
ATOM     12  C1* UNL     1       4.090   3.442  18.596  0.00  0.00    +0.000 C 
ATOM     13  O4* UNL     1       2.806   4.124  18.672  0.00  0.00    +0.000 OA
ATOM     14  C4* UNL     1       2.209   3.854  19.953  0.00  0.00    +0.000 C 
ATOM     15  C3* UNL     1       2.949   2.646  20.521  0.00  0.00    +0.000 C 
ATOM     16  C2* UNL     1       4.368   2.863  20.003  0.00  0.00    +0.000 C 
BRANCH  15  17
ATOM     17  O3* UNL     1       2.879   2.460  21.924  0.00  0.00    +0.000 OA
ATOM     18  H3* UNL     1       3.083   3.305  22.375  0.00  0.00    +0.000 HD
ENDBRANCH  15  17
BRANCH  16  19
ATOM     19  O2* UNL     1       5.124   1.651  20.020  0.00  0.00    +0.000 OA
ATOM     20  H2* UNL     1       5.722   1.636  19.254  0.00  0.00    +0.000 HD
ENDBRANCH  16  19
BRANCH  14  21
ATOM     21  C5* UNL     1       2.269   5.121  20.815  0.00  0.00    +0.000 C 
BRANCH  21  22
ATOM     22  O5* UNL     1       2.658   6.254  20.050  0.00  0.00    +0.000 OA
ATOM     23  H5* UNL     1       1.847   6.732  19.795  0.00  0.00    +0.000 HD
ENDBRANCH  21  22
ENDBRANCH  14  21
ENDBRANCH  11  12
BRANCH   1  24
ATOM     24  N   UNL     1       7.937   5.610  14.354  0.00  0.00    +0.000 N 
ATOM     25  H   UNL     1       7.739   6.587  14.177  0.00  0.00    +0.000 HD
ATOM     26  H   UNL     1       8.817   5.420  14.836  0.00  0.00    +0.000 HD
ENDBRANCH   1  24
TORSDOF 6
ENDMDL
MODEL 2
REMARK VINA RESULT:      -7.2      2.506      5.817
REMARK  Name = 
REMARK  6 active torsions:
REMARK  status: ('A' for Active; 'I' for Inactive)
REMARK    1  A    between atoms: N_1  and  C_2
REMARK    2  A    between atoms: N_12  and  C1*_13
REMARK    3  A    between atoms: C4*_15  and  C5*_16
REMARK    4  A    between atoms: C5*_16  and  O5*_17
REMARK    5  A    between atoms: C3*_18  and  O3*_19
REMARK    6  A    between atoms: C2*_20  and  O2*_21
REMARK                            x       y       z     vdW  Elec       q    Type
REMARK                         _______ _______ _______ _____ _____    ______ ____
ROOT
ATOM      1  C   UNL     1       1.548   2.771  19.452  0.00  0.00    +0.000 A 
ATOM      2  N   UNL     1       1.976   1.618  18.917  0.00  0.00    +0.000 NA
ATOM      3  C   UNL     1       3.117   1.672  18.219  0.00  0.00    +0.000 A 
ATOM      4  N   UNL     1       3.865   2.764  18.006  0.00  0.00    +0.000 NA
ATOM      5  C   UNL     1       3.422   3.923  18.533  0.00  0.00    +0.000 A 
ATOM      6  C   UNL     1       2.251   3.955  19.295  0.00  0.00    +0.000 A 
ATOM      7  C   UNL     1       1.839   5.213  19.957  0.00  0.00    +0.000 A 
ATOM      8  O   UNL     1       0.913   5.271  20.759  0.00  0.00    +0.000 OA
ATOM      9  C   UNL     1       2.635   6.423  19.677  0.00  0.00    +0.000 A 
ATOM     10  C   UNL     1       3.716   6.296  18.904  0.00  0.00    +0.000 A 
ATOM     11  N   UNL     1       4.159   5.120  18.330  0.00  0.00    +0.000 N 
ENDROOT
BRANCH  11  12
ATOM     12  C1* UNL     1       5.343   5.005  17.460  0.00  0.00    +0.000 C 
ATOM     13  O4* UNL     1       6.468   4.461  18.206  0.00  0.00    +0.000 OA
ATOM     14  C4* UNL     1       7.619   5.296  17.990  0.00  0.00    +0.000 C 
ATOM     15  C3* UNL     1       7.306   6.140  16.758  0.00  0.00    +0.000 C 
ATOM     16  C2* UNL     1       5.805   6.369  16.894  0.00  0.00    +0.000 C 
BRANCH  15  17
ATOM     17  O3* UNL     1       8.051   7.336  16.602  0.00  0.00    +0.000 OA
ATOM     18  H3* UNL     1       8.519   7.319  15.742  0.00  0.00    +0.000 HD
ENDBRANCH  15  17
BRANCH  16  19
ATOM     19  O2* UNL     1       5.214   6.737  15.647  0.00  0.00    +0.000 OA
ATOM     20  H2* UNL     1       4.836   5.947  15.226  0.00  0.00    +0.000 HD
ENDBRANCH  16  19
BRANCH  14  21
ATOM     21  C5* UNL     1       7.913   6.091  19.268  0.00  0.00    +0.000 C 
BRANCH  21  22
ATOM     22  O5* UNL     1       8.539   5.280  20.254  0.00  0.00    +0.000 OA
ATOM     23  H5* UNL     1       7.855   5.009  20.894  0.00  0.00    +0.000 HD
ENDBRANCH  21  22
ENDBRANCH  14  21
ENDBRANCH  11  12
BRANCH   1  24
ATOM     24  N   UNL     1       0.300   2.702  20.061  0.00  0.00    +0.000 N 
ATOM     25  H   UNL     1      -0.431   2.543  19.378  0.00  0.00    +0.000 HD
ATOM     26  H   UNL     1       0.281   2.089  20.876  0.00  0.00    +0.000 HD
ENDBRANCH   1  24
TORSDOF 6
ENDMDL
MODEL 3
REMARK VINA RESULT:      -7.1      2.402      6.060
REMARK  Name = 
REMARK  6 active torsions:
REMARK  status: ('A' for Active; 'I' for Inactive)
REMARK    1  A    between atoms: N_1  and  C_2
REMARK    2  A    between atoms: N_12  and  C1*_13
REMARK    3  A    between atoms: C4*_15  and  C5*_16
REMARK    4  A    between atoms: C5*_16  and  O5*_17
REMARK    5  A    between atoms: C3*_18  and  O3*_19
REMARK    6  A    between atoms: C2*_20  and  O2*_21
REMARK                            x       y       z     vdW  Elec       q    Type
REMARK                         _______ _______ _______ _____ _____    ______ ____
ROOT
ATOM      1  C   UNL     1       2.558   2.797  21.333  0.00  0.00    +0.000 A 
ATOM      2  N   UNL     1       3.419   1.838  21.705  0.00  0.00    +0.000 NA
ATOM      3  C   UNL     1       4.547   1.740  20.991  0.00  0.00    +0.000 A 
ATOM      4  N   UNL     1       4.892   2.505  19.945  0.00  0.00    +0.000 NA
ATOM      5  C   UNL     1       4.015   3.457  19.567  0.00  0.00    +0.000 A 
ATOM      6  C   UNL     1       2.822   3.645  20.269  0.00  0.00    +0.000 A 
ATOM      7  C   UNL     1       1.925   4.764  19.908  0.00  0.00    +0.000 A 
ATOM      8  O   UNL     1       0.946   5.076  20.578  0.00  0.00    +0.000 OA
ATOM      9  C   UNL     1       2.282   5.570  18.725  0.00  0.00    +0.000 A 
ATOM     10  C   UNL     1       3.425   5.286  18.096  0.00  0.00    +0.000 A 
ATOM     11  N   UNL     1       4.313   4.290  18.456  0.00  0.00    +0.000 N 
ENDROOT
BRANCH  11  12
ATOM     12  C1* UNL     1       5.560   3.979  17.734  0.00  0.00    +0.000 C 
ATOM     13  O4* UNL     1       6.713   4.416  18.507  0.00  0.00    +0.000 OA
ATOM     14  C4* UNL     1       7.581   5.186  17.656  0.00  0.00    +0.000 C 
ATOM     15  C3* UNL     1       7.159   4.871  16.223  0.00  0.00    +0.000 C 
ATOM     16  C2* UNL     1       5.651   4.687  16.362  0.00  0.00    +0.000 C 
BRANCH  15  17
ATOM     17  O3* UNL     1       7.527   5.814  15.231  0.00  0.00    +0.000 OA
ATOM     18  H3* UNL     1       6.915   5.742  14.470  0.00  0.00    +0.000 HD
ENDBRANCH  15  17
BRANCH  16  19
ATOM     19  O2* UNL     1       5.108   3.952  15.265  0.00  0.00    +0.000 OA
ATOM     20  H2* UNL     1       5.492   4.284  14.436  0.00  0.00    +0.000 HD
ENDBRANCH  16  19
BRANCH  14  21
ATOM     21  C5* UNL     1       7.494   6.665  18.052  0.00  0.00    +0.000 C 
BRANCH  21  22
ATOM     22  O5* UNL     1       8.483   7.005  19.014  0.00  0.00    +0.000 OA
ATOM     23  H5* UNL     1       8.116   6.813  19.897  0.00  0.00    +0.000 HD
ENDBRANCH  21  22
ENDBRANCH  14  21
ENDBRANCH  11  12
BRANCH   1  24
ATOM     24  N   UNL     1       1.346   2.788  22.016  0.00  0.00    +0.000 N 
ATOM     25  H   UNL     1       1.242   3.619  22.584  0.00  0.00    +0.000 HD
ATOM     26  H   UNL     1       0.549   2.559  21.421  0.00  0.00    +0.000 HD
ENDBRANCH   1  24
TORSDOF 6
ENDMDL
MODEL 4
REMARK VINA RESULT:      -7.0      2.204      3.385
REMARK  Name = 
REMARK  6 active torsions:
REMARK  status: ('A' for Active; 'I' for Inactive)
REMARK    1  A    between atoms: N_1  and  C_2
REMARK    2  A    between atoms: N_12  and  C1*_13
REMARK    3  A    between atoms: C4*_15  and  C5*_16
REMARK    4  A    between atoms: C5*_16  and  O5*_17
REMARK    5  A    between atoms: C3*_18  and  O3*_19
REMARK    6  A    between atoms: C2*_20  and  O2*_21
REMARK                            x       y       z     vdW  Elec       q    Type
REMARK                         _______ _______ _______ _____ _____    ______ ____
ROOT
ATOM      1  C   UNL     1       7.330   6.724  17.814  0.00  0.00    +0.000 A 
ATOM      2  N   UNL     1       8.146   6.456  18.845  0.00  0.00    +0.000 NA
ATOM      3  C   UNL     1       7.662   5.643  19.792  0.00  0.00    +0.000 A 
ATOM      4  N   UNL     1       6.447   5.077  19.807  0.00  0.00    +0.000 NA
ATOM      5  C   UNL     1       5.626   5.363  18.775  0.00  0.00    +0.000 A 
ATOM      6  C   UNL     1       6.055   6.185  17.731  0.00  0.00    +0.000 A 
ATOM      7  C   UNL     1       5.183   6.398  16.556  0.00  0.00    +0.000 A 
ATOM      8  O   UNL     1       5.558   6.978  15.543  0.00  0.00    +0.000 OA
ATOM      9  C   UNL     1       3.827   5.817  16.600  0.00  0.00    +0.000 A 
ATOM     10  C   UNL     1       3.497   5.078  17.661  0.00  0.00    +0.000 A 
ATOM     11  N   UNL     1       4.318   4.809  18.739  0.00  0.00    +0.000 N 
ENDROOT
BRANCH  11  12
ATOM     12  C1* UNL     1       3.926   4.008  19.912  0.00  0.00    +0.000 C 
ATOM     13  O4* UNL     1       3.900   2.593  19.573  0.00  0.00    +0.000 OA
ATOM     14  C4* UNL     1       2.651   2.030  20.013  0.00  0.00    +0.000 C 
ATOM     15  C3* UNL     1       2.066   3.025  21.011  0.00  0.00    +0.000 C 
ATOM     16  C2* UNL     1       2.516   4.364  20.436  0.00  0.00    +0.000 C 
BRANCH  15  17
ATOM     17  O3* UNL     1       0.669   2.946  21.241  0.00  0.00    +0.000 OA
ATOM     18  H3* UNL     1       0.212   2.742  20.400  0.00  0.00    +0.000 HD
ENDBRANCH  15  17
BRANCH  16  19
ATOM     19  O2* UNL     1       2.479   5.397  21.422  0.00  0.00    +0.000 OA
ATOM     20  H2* UNL     1       2.013   6.169  21.060  0.00  0.00    +0.000 HD
ENDBRANCH  16  19
BRANCH  14  21
ATOM     21  C5* UNL     1       1.772   1.738  18.791  0.00  0.00    +0.000 C 
BRANCH  21  22
ATOM     22  O5* UNL     1       2.536   1.710  17.593  0.00  0.00    +0.000 OA
ATOM     23  H5* UNL     1       2.218   2.434  17.021  0.00  0.00    +0.000 HD
ENDBRANCH  21  22
ENDBRANCH  14  21
ENDBRANCH  11  12
BRANCH   1  24
ATOM     24  N   UNL     1       7.817   7.668  16.916  0.00  0.00    +0.000 N 
ATOM     25  H   UNL     1       7.084   8.298  16.618  0.00  0.00    +0.000 HD
ATOM     26  H   UNL     1       8.680   8.113  17.227  0.00  0.00    +0.000 HD
ENDBRANCH   1  24
TORSDOF 6
ENDMDL
MODEL 5
REMARK VINA RESULT:      -6.9      2.547      5.705
REMARK  Name = 
REMARK  6 active torsions:
REMARK  status: ('A' for Active; 'I' for Inactive)
REMARK    1  A    between atoms: N_1  and  C_2
REMARK    2  A    between atoms: N_12  and  C1*_13
REMARK    3  A    between atoms: C4*_15  and  C5*_16
REMARK    4  A    between atoms: C5*_16  and  O5*_17
REMARK    5  A    between atoms: C3*_18  and  O3*_19
REMARK    6  A    between atoms: C2*_20  and  O2*_21
REMARK                            x       y       z     vdW  Elec       q    Type
REMARK                         _______ _______ _______ _____ _____    ______ ____
ROOT
ATOM      1  C   UNL     1       1.568   2.731  19.446  0.00  0.00    +0.000 A 
ATOM      2  N   UNL     1       1.996   1.525  19.045  0.00  0.00    +0.000 NA
ATOM      3  C   UNL     1       3.266   1.451  18.629  0.00  0.00    +0.000 A 
ATOM      4  N   UNL     1       4.143   2.464  18.576  0.00  0.00    +0.000 NA
ATOM      5  C   UNL     1       3.702   3.677  18.965  0.00  0.00    +0.000 A 
ATOM      6  C   UNL     1       2.397   3.842  19.435  0.00  0.00    +0.000 A 
ATOM      7  C   UNL     1       1.964   5.155  19.961  0.00  0.00    +0.000 A 
ATOM      8  O   UNL     1       0.890   5.326  20.526  0.00  0.00    +0.000 OA
ATOM      9  C   UNL     1       2.914   6.279  19.852  0.00  0.00    +0.000 A 
ATOM     10  C   UNL     1       4.126   6.028  19.352  0.00  0.00    +0.000 A 
ATOM     11  N   UNL     1       4.575   4.796  18.917  0.00  0.00    +0.000 N 
ENDROOT
BRANCH  11  12
ATOM     12  C1* UNL     1       5.911   4.545  18.348  0.00  0.00    +0.000 C 
ATOM     13  O4* UNL     1       6.853   5.557  18.801  0.00  0.00    +0.000 OA
ATOM     14  C4* UNL     1       7.557   6.083  17.662  0.00  0.00    +0.000 C 
ATOM     15  C3* UNL     1       7.338   5.084  16.529  0.00  0.00    +0.000 C 
ATOM     16  C2* UNL     1       5.922   4.590  16.802  0.00  0.00    +0.000 C 
BRANCH  15  17
ATOM     17  O3* UNL     1       7.527   5.569  15.210  0.00  0.00    +0.000 OA
ATOM     18  H3* UNL     1       7.659   4.814  14.601  0.00  0.00    +0.000 HD
ENDBRANCH  15  17
BRANCH  16  19
ATOM     19  O2* UNL     1       5.669   3.340  16.158  0.00  0.00    +0.000 OA
ATOM     20  H2* UNL     1       5.562   2.649  16.832  0.00  0.00    +0.000 HD
ENDBRANCH  16  19
BRANCH  14  21
ATOM     21  C5* UNL     1       7.066   7.508  17.380  0.00  0.00    +0.000 C 
BRANCH  21  22
ATOM     22  O5* UNL     1       8.029   8.479  17.770  0.00  0.00    +0.000 OA
ATOM     23  H5* UNL     1       8.382   8.889  16.958  0.00  0.00    +0.000 HD
ENDBRANCH  21  22
ENDBRANCH  14  21
ENDBRANCH  11  12
BRANCH   1  24
ATOM     24  N   UNL     1       0.212   2.796  19.751  0.00  0.00    +0.000 N 
ATOM     25  H   UNL     1      -0.354   2.545  18.949  0.00  0.00    +0.000 HD
ATOM     26  H   UNL     1      -0.028   2.326  20.623  0.00  0.00    +0.000 HD
ENDBRANCH   1  24
TORSDOF 6
ENDMDL
MODEL 6
REMARK VINA RESULT:      -6.7      1.420      1.470
REMARK  Name = 
REMARK  6 active torsions:
REMARK  status: ('A' for Active; 'I' for Inactive)
REMARK    1  A    between atoms: N_1  and  C_2
REMARK    2  A    between atoms: N_12  and  C1*_13
REMARK    3  A    between atoms: C4*_15  and  C5*_16
REMARK    4  A    between atoms: C5*_16  and  O5*_17
REMARK    5  A    between atoms: C3*_18  and  O3*_19
REMARK    6  A    between atoms: C2*_20  and  O2*_21
REMARK                            x       y       z     vdW  Elec       q    Type
REMARK                         _______ _______ _______ _____ _____    ______ ____
ROOT
ATOM      1  C   UNL     1       7.105   5.057  14.304  0.00  0.00    +0.000 A 
ATOM      2  N   UNL     1       6.622   4.299  13.309  0.00  0.00    +0.000 NA
ATOM      3  C   UNL     1       5.490   3.630  13.565  0.00  0.00    +0.000 A 
ATOM      4  N   UNL     1       4.803   3.647  14.715  0.00  0.00    +0.000 NA
ATOM      5  C   UNL     1       5.303   4.398  15.717  0.00  0.00    +0.000 A 
ATOM      6  C   UNL     1       6.467   5.147  15.531  0.00  0.00    +0.000 A 
ATOM      7  C   UNL     1       6.940   6.051  16.603  0.00  0.00    +0.000 A 
ATOM      8  O   UNL     1       7.861   6.845  16.447  0.00  0.00    +0.000 OA
ATOM      9  C   UNL     1       6.211   6.026  17.885  0.00  0.00    +0.000 A 
ATOM     10  C   UNL     1       5.132   5.247  17.977  0.00  0.00    +0.000 A 
ATOM     11  N   UNL     1       4.632   4.446  16.968  0.00  0.00    +0.000 N 
ENDROOT
BRANCH  11  12
ATOM     12  C1* UNL     1       3.450   3.575  17.097  0.00  0.00    +0.000 C 
ATOM     13  O4* UNL     1       2.257   4.373  17.340  0.00  0.00    +0.000 OA
ATOM     14  C4* UNL     1       1.552   3.826  18.468  0.00  0.00    +0.000 C 
ATOM     15  C3* UNL     1       2.101   2.416  18.670  0.00  0.00    +0.000 C 
ATOM     16  C2* UNL     1       3.565   2.580  18.275  0.00  0.00    +0.000 C 
BRANCH  15  17
ATOM     17  O3* UNL     1       1.919   1.842  19.953  0.00  0.00    +0.000 OA
ATOM     18  H3* UNL     1       1.081   2.169  20.340  0.00  0.00    +0.000 HD
ENDBRANCH  15  17
BRANCH  16  19
ATOM     19  O2* UNL     1       4.164   1.325  17.950  0.00  0.00    +0.000 OA
ATOM     20  H2* UNL     1       4.576   1.384  17.072  0.00  0.00    +0.000 HD
ENDBRANCH  16  19
BRANCH  14  21
ATOM     21  C5* UNL     1       1.712   4.767  19.668  0.00  0.00    +0.000 C 
BRANCH  21  22
ATOM     22  O5* UNL     1       0.986   4.299  20.798  0.00  0.00    +0.000 OA
ATOM     23  H5* UNL     1       1.550   3.657  21.268  0.00  0.00    +0.000 HD
ENDBRANCH  21  22
ENDBRANCH  14  21
ENDBRANCH  11  12
BRANCH   1  24
ATOM     24  N   UNL     1       8.343   5.635  14.045  0.00  0.00    +0.000 N 
ATOM     25  H   UNL     1       8.237   6.564  13.655  0.00  0.00    +0.000 HD
ATOM     26  H   UNL     1       8.996   5.558  14.825  0.00  0.00    +0.000 HD
ENDBRANCH   1  24
TORSDOF 6
ENDMDL
MODEL 7
REMARK VINA RESULT:      -6.6      3.916      5.961
REMARK  Name = 
REMARK  6 active torsions:
REMARK  status: ('A' for Active; 'I' for Inactive)
REMARK    1  A    between atoms: N_1  and  C_2
REMARK    2  A    between atoms: N_12  and  C1*_13
REMARK    3  A    between atoms: C4*_15  and  C5*_16
REMARK    4  A    between atoms: C5*_16  and  O5*_17
REMARK    5  A    between atoms: C3*_18  and  O3*_19
REMARK    6  A    between atoms: C2*_20  and  O2*_21
REMARK                            x       y       z     vdW  Elec       q    Type
REMARK                         _______ _______ _______ _____ _____    ______ ____
ROOT
ATOM      1  C   UNL     1       0.821   9.603  19.867  0.00  0.00    +0.000 A 
ATOM      2  N   UNL     1       0.276   9.402  21.076  0.00  0.00    +0.000 NA
ATOM      3  C   UNL     1       0.540   8.228  21.662  0.00  0.00    +0.000 A 
ATOM      4  N   UNL     1       1.292   7.240  21.155  0.00  0.00    +0.000 NA
ATOM      5  C   UNL     1       1.824   7.442  19.932  0.00  0.00    +0.000 A 
ATOM      6  C   UNL     1       1.619   8.647  19.257  0.00  0.00    +0.000 A 
ATOM      7  C   UNL     1       2.299   8.893  17.967  0.00  0.00    +0.000 A 
ATOM      8  O   UNL     1       2.285   9.981  17.403  0.00  0.00    +0.000 OA
ATOM      9  C   UNL     1       3.083   7.785  17.388  0.00  0.00    +0.000 A 
ATOM     10  C   UNL     1       3.187   6.657  18.093  0.00  0.00    +0.000 A 
ATOM     11  N   UNL     1       2.617   6.428  19.331  0.00  0.00    +0.000 N 
ENDROOT
BRANCH  11  12
ATOM     12  C1* UNL     1       2.726   5.166  20.084  0.00  0.00    +0.000 C 
ATOM     13  O4* UNL     1       4.021   4.546  19.846  0.00  0.00    +0.000 OA
ATOM     14  C4* UNL     1       3.820   3.165  19.495  0.00  0.00    +0.000 C 
ATOM     15  C3* UNL     1       2.397   2.820  19.927  0.00  0.00    +0.000 C 
ATOM     16  C2* UNL     1       1.655   4.128  19.673  0.00  0.00    +0.000 C 
BRANCH  15  17
ATOM     17  O3* UNL     1       1.799   1.697  19.302  0.00  0.00    +0.000 OA
ATOM     18  H3* UNL     1       2.498   1.081  19.001  0.00  0.00    +0.000 HD
ENDBRANCH  15  17
BRANCH  16  19
ATOM     19  O2* UNL     1       0.436   4.192  20.413  0.00  0.00    +0.000 OA
ATOM     20  H2* UNL     1      -0.055   4.990  20.154  0.00  0.00    +0.000 HD
ENDBRANCH  16  19
BRANCH  14  21
ATOM     21  C5* UNL     1       4.113   2.976  18.002  0.00  0.00    +0.000 C 
BRANCH  21  22
ATOM     22  O5* UNL     1       4.152   1.600  17.648  0.00  0.00    +0.000 OA
ATOM     23  H5* UNL     1       4.255   1.545  16.680  0.00  0.00    +0.000 HD
ENDBRANCH  21  22
ENDBRANCH  14  21
ENDBRANCH  11  12
BRANCH   1  24
ATOM     24  N   UNL     1       0.424  10.777  19.237  0.00  0.00    +0.000 N 
ATOM     25  H   UNL     1      -0.579  10.899  19.292  0.00  0.00    +0.000 HD
ATOM     26  H   UNL     1       0.980  11.589  19.508  0.00  0.00    +0.000 HD
ENDBRANCH   1  24
TORSDOF 6
ENDMDL
MODEL 8
REMARK VINA RESULT:      -6.5      2.550      6.296
REMARK  Name = 
REMARK  6 active torsions:
REMARK  status: ('A' for Active; 'I' for Inactive)
REMARK    1  A    between atoms: N_1  and  C_2
REMARK    2  A    between atoms: N_12  and  C1*_13
REMARK    3  A    between atoms: C4*_15  and  C5*_16
REMARK    4  A    between atoms: C5*_16  and  O5*_17
REMARK    5  A    between atoms: C3*_18  and  O3*_19
REMARK    6  A    between atoms: C2*_20  and  O2*_21
REMARK                            x       y       z     vdW  Elec       q    Type
REMARK                         _______ _______ _______ _____ _____    ______ ____
ROOT
ATOM      1  C   UNL     1       1.524   4.056  20.454  0.00  0.00    +0.000 A 
ATOM      2  N   UNL     1       1.485   5.355  20.784  0.00  0.00    +0.000 NA
ATOM      3  C   UNL     1       2.334   6.161  20.134  0.00  0.00    +0.000 A 
ATOM      4  N   UNL     1       3.213   5.793  19.192  0.00  0.00    +0.000 NA
ATOM      5  C   UNL     1       3.259   4.483  18.876  0.00  0.00    +0.000 A 
ATOM      6  C   UNL     1       2.394   3.573  19.488  0.00  0.00    +0.000 A 
ATOM      7  C   UNL     1       2.381   2.160  19.050  0.00  0.00    +0.000 A 
ATOM      8  O   UNL     1       1.546   1.350  19.436  0.00  0.00    +0.000 OA
ATOM      9  C   UNL     1       3.386   1.747  18.052  0.00  0.00    +0.000 A 
ATOM     10  C   UNL     1       4.196   2.685  17.554  0.00  0.00    +0.000 A 
ATOM     11  N   UNL     1       4.180   4.023  17.898  0.00  0.00    +0.000 N 
ENDROOT
BRANCH  11  12
ATOM     12  C1* UNL     1       5.098   5.039  17.352  0.00  0.00    +0.000 C 
ATOM     13  O4* UNL     1       4.630   5.498  16.053  0.00  0.00    +0.000 OA
ATOM     14  C4* UNL     1       5.721   5.443  15.117  0.00  0.00    +0.000 C 
ATOM     15  C3* UNL     1       6.993   5.338  15.954  0.00  0.00    +0.000 C 
ATOM     16  C2* UNL     1       6.532   4.499  17.141  0.00  0.00    +0.000 C 
BRANCH  15  17
ATOM     17  O3* UNL     1       8.140   4.819  15.302  0.00  0.00    +0.000 OA
ATOM     18  H3* UNL     1       8.187   3.852  15.446  0.00  0.00    +0.000 HD
ENDBRANCH  15  17
BRANCH  16  19
ATOM     19  O2* UNL     1       7.406   4.649  18.260  0.00  0.00    +0.000 OA
ATOM     20  H2* UNL     1       7.459   5.589  18.502  0.00  0.00    +0.000 HD
ENDBRANCH  16  19
BRANCH  14  21
ATOM     21  C5* UNL     1       5.487   4.287  14.137  0.00  0.00    +0.000 C 
BRANCH  21  22
ATOM     22  O5* UNL     1       6.559   4.165  13.210  0.00  0.00    +0.000 OA
ATOM     23  H5* UNL     1       7.020   3.327  13.400  0.00  0.00    +0.000 HD
ENDBRANCH  21  22
ENDBRANCH  14  21
ENDBRANCH  11  12
BRANCH   1  24
ATOM     24  N   UNL     1       0.721   3.233  21.235  0.00  0.00    +0.000 N 
ATOM     25  H   UNL     1       1.238   2.857  22.020  0.00  0.00    +0.000 HD
ATOM     26  H   UNL     1      -0.183   3.648  21.462  0.00  0.00    +0.000 HD
ENDBRANCH   1  24
TORSDOF 6
ENDMDL
MODEL 9
REMARK VINA RESULT:      -6.3      2.510      5.842
REMARK  Name = 
REMARK  6 active torsions:
REMARK  status: ('A' for Active; 'I' for Inactive)
REMARK    1  A    between atoms: N_1  and  C_2
REMARK    2  A    between atoms: N_12  and  C1*_13
REMARK    3  A    between atoms: C4*_15  and  C5*_16
REMARK    4  A    between atoms: C5*_16  and  O5*_17
REMARK    5  A    between atoms: C3*_18  and  O3*_19
REMARK    6  A    between atoms: C2*_20  and  O2*_21
REMARK                            x       y       z     vdW  Elec       q    Type
REMARK                         _______ _______ _______ _____ _____    ______ ____
ROOT
ATOM      1  C   UNL     1       1.445   3.092  19.555  0.00  0.00    +0.000 A 
ATOM      2  N   UNL     1       1.602   1.889  18.984  0.00  0.00    +0.000 NA
ATOM      3  C   UNL     1       2.503   1.811  17.997  0.00  0.00    +0.000 A 
ATOM      4  N   UNL     1       3.256   2.817  17.529  0.00  0.00    +0.000 NA
ATOM      5  C   UNL     1       3.082   4.027  18.097  0.00  0.00    +0.000 A 
ATOM      6  C   UNL     1       2.178   4.196  19.149  0.00  0.00    +0.000 A 
ATOM      7  C   UNL     1       2.080   5.505  19.832  0.00  0.00    +0.000 A 
ATOM      8  O   UNL     1       1.425   5.676  20.853  0.00  0.00    +0.000 OA
ATOM      9  C   UNL     1       2.871   6.622  19.281  0.00  0.00    +0.000 A 
ATOM     10  C   UNL     1       3.677   6.368  18.247  0.00  0.00    +0.000 A 
ATOM     11  N   UNL     1       3.836   5.139  17.636  0.00  0.00    +0.000 N 
ENDROOT
BRANCH  11  12
ATOM     12  C1* UNL     1       4.716   4.885  16.482  0.00  0.00    +0.000 C 
ATOM     13  O4* UNL     1       5.662   3.823  16.790  0.00  0.00    +0.000 OA
ATOM     14  C4* UNL     1       6.987   4.262  16.442  0.00  0.00    +0.000 C 
ATOM     15  C3* UNL     1       6.807   5.463  15.517  0.00  0.00    +0.000 C 
ATOM     16  C2* UNL     1       5.554   6.122  16.083  0.00  0.00    +0.000 C 
BRANCH  15  17
ATOM     17  O3* UNL     1       7.910   6.345  15.400  0.00  0.00    +0.000 OA
ATOM     18  H3* UNL     1       8.647   5.887  14.946  0.00  0.00    +0.000 HD
ENDBRANCH  15  17
BRANCH  16  19
ATOM     19  O2* UNL     1       4.938   6.987  15.127  0.00  0.00    +0.000 OA
ATOM     20  H2* UNL     1       5.167   6.688  14.231  0.00  0.00    +0.000 HD
ENDBRANCH  16  19
BRANCH  14  21
ATOM     21  C5* UNL     1       7.780   4.539  17.724  0.00  0.00    +0.000 C 
BRANCH  21  22
ATOM     22  O5* UNL     1       7.466   5.816  18.266  0.00  0.00    +0.000 OA
ATOM     23  H5* UNL     1       7.828   6.491  17.663  0.00  0.00    +0.000 HD
ENDBRANCH  21  22
ENDBRANCH  14  21
ENDBRANCH  11  12
BRANCH   1  24
ATOM     24  N   UNL     1       0.415   3.164  20.487  0.00  0.00    +0.000 N 
ATOM     25  H   UNL     1       0.775   3.364  21.412  0.00  0.00    +0.000 HD
ATOM     26  H   UNL     1      -0.365   3.747  20.183  0.00  0.00    +0.000 HD
ENDBRANCH   1  24
TORSDOF 6
ENDMDL
