MODEL 1
REMARK VINA RESULT:      -9.5      0.000      0.000
REMARK  Name = 
REMARK  9 active torsions:
REMARK  status: ('A' for Active; 'I' for Inactive)
REMARK    1  A    between atoms: C_1  and  C_2
REMARK    2  A    between atoms: C_6  and  N_7
REMARK    3  A    between atoms: C_10  and  O_11
REMARK    4  A    between atoms: O_11  and  C_12
REMARK    5  A    between atoms: C_13  and  C_14
REMARK    6  A    between atoms: C_16  and  C_17
REMARK    7  A    between atoms: C_19  and  C_20
REMARK    8  A    between atoms: N_23  and  C_24
REMARK    9  A    between atoms: C_28  and  C_29
REMARK                            x       y       z     vdW  Elec       q    Type
REMARK                         _______ _______ _______ _____ _____    ______ ____
ROOT
ATOM      1  N   UNL     1       1.837   6.554  20.713  0.00  0.00    +0.000 N 
ATOM      2  C   UNL     1       2.039   7.380  19.587  0.00  0.00    +0.000 A 
ATOM      3  C   UNL     1       1.351   8.560  19.496  0.00  0.00    +0.000 A 
ATOM      4  C   UNL     1       1.698   9.386  18.449  0.00  0.00    +0.000 A 
ATOM      5  N   UNL     1       2.527   9.006  17.455  0.00  0.00    +0.000 NA
ATOM      6  C   UNL     1       3.130   7.823  17.603  0.00  0.00    +0.000 A 
ATOM      7  N   UNL     1       3.977   7.388  16.586  0.00  0.00    +0.000 N 
ATOM      8  N   UNL     1       2.940   7.028  18.662  0.00  0.00    +0.000 NA
ATOM      9  H   UNL     1       2.266   6.957  21.538  0.00  0.00    +0.000 HD
ATOM     10  H   UNL     1       3.902   7.954  15.757  0.00  0.00    +0.000 HD
ENDROOT
BRANCH   1  16
ATOM     11  C   UNL     1       0.499   2.352  18.514  0.00  0.00    +0.000 C 
ATOM     12  C   UNL     1       1.214   3.039  19.635  0.00  0.00    +0.000 A 
ATOM     13  C   UNL     1       1.807   2.338  20.684  0.00  0.00    +0.000 A 
ATOM     14  C   UNL     1       2.429   3.026  21.729  0.00  0.00    +0.000 A 
ATOM     15  C   UNL     1       2.460   4.423  21.735  0.00  0.00    +0.000 A 
ATOM     16  C   UNL     1       1.895   5.144  20.680  0.00  0.00    +0.000 A 
ATOM     17  C   UNL     1       1.260   4.437  19.650  0.00  0.00    +0.000 A 
ENDBRANCH   1  16
BRANCH   7  18
ATOM     18  C   UNL     1       5.039   6.475  16.668  0.00  0.00    +0.000 A 
ATOM     19  C   UNL     1       5.262   5.566  15.627  0.00  0.00    +0.000 A 
ATOM     20  C   UNL     1       6.269   4.598  15.719  0.00  0.00    +0.000 A 
ATOM     21  C   UNL     1       7.076   4.535  16.854  0.00  0.00    +0.000 A 
ATOM     22  C   UNL     1       6.859   5.432  17.906  0.00  0.00    +0.000 A 
ATOM     23  C   UNL     1       5.847   6.388  17.807  0.00  0.00    +0.000 A 
BRANCH  22  24
ATOM     24  C   UNL     1       7.692   5.378  19.068  0.00  0.00    +0.000 C 
ATOM     25  N   UNL     1       8.359   5.328  20.027  0.00  0.00    +0.000 NA
ENDBRANCH  22  24
ENDBRANCH   7  18
BRANCH   4  26
ATOM     26  O   UNL     1       1.309  10.713  18.384  0.00  0.00    +0.000 OA
BRANCH  26  27
ATOM     27  C   UNL     1       0.065  11.091  18.870  0.00  0.00    +0.000 A 
ATOM     28  C   UNL     1      -1.172  10.713  18.298  0.00  0.00    +0.000 A 
ATOM     29  C   UNL     1      -1.354   9.766  17.138  0.00  0.00    +0.000 C 
ATOM     30  C   UNL     1      -2.351  11.290  18.798  0.00  0.00    +0.000 A 
ATOM     31  C   UNL     1      -2.337  12.145  19.900  0.00  0.00    +0.000 A 
ATOM     32  C   UNL     1      -3.608  12.762  20.401  0.00  0.00    +0.000 C 
ATOM     33  C   UNL     1      -1.122  12.405  20.539  0.00  0.00    +0.000 A 
ATOM     34  C   UNL     1       0.083  11.884  20.042  0.00  0.00    +0.000 A 
ATOM     35  C   UNL     1       1.361  12.176  20.787  0.00  0.00    +0.000 C 
ENDBRANCH  26  27
ENDBRANCH   4  26
TORSDOF 5
ENDMDL
MODEL 2
REMARK VINA RESULT:      -9.4      0.689      1.077
REMARK  Name = 
REMARK  9 active torsions:
REMARK  status: ('A' for Active; 'I' for Inactive)
REMARK    1  A    between atoms: C_1  and  C_2
REMARK    2  A    between atoms: C_6  and  N_7
REMARK    3  A    between atoms: C_10  and  O_11
REMARK    4  A    between atoms: O_11  and  C_12
REMARK    5  A    between atoms: C_13  and  C_14
REMARK    6  A    between atoms: C_16  and  C_17
REMARK    7  A    between atoms: C_19  and  C_20
REMARK    8  A    between atoms: N_23  and  C_24
REMARK    9  A    between atoms: C_28  and  C_29
REMARK                            x       y       z     vdW  Elec       q    Type
REMARK                         _______ _______ _______ _____ _____    ______ ____
ROOT
ATOM      1  N   UNL     1       1.895   6.439  20.630  0.00  0.00    +0.000 N 
ATOM      2  C   UNL     1       2.091   7.322  19.548  0.00  0.00    +0.000 A 
ATOM      3  C   UNL     1       1.415   8.512  19.530  0.00  0.00    +0.000 A 
ATOM      4  C   UNL     1       1.757   9.389  18.524  0.00  0.00    +0.000 A 
ATOM      5  N   UNL     1       2.569   9.055  17.500  0.00  0.00    +0.000 NA
ATOM      6  C   UNL     1       3.161   7.860  17.576  0.00  0.00    +0.000 A 
ATOM      7  N   UNL     1       3.990   7.473  16.526  0.00  0.00    +0.000 N 
ATOM      8  N   UNL     1       2.977   7.012  18.593  0.00  0.00    +0.000 NA
ATOM      9  H   UNL     1       2.339   6.792  21.470  0.00  0.00    +0.000 HD
ATOM     10  H   UNL     1       3.911   8.083  15.729  0.00  0.00    +0.000 HD
ENDROOT
BRANCH   1  16
ATOM     11  C   UNL     1       4.594   2.363  20.009  0.00  0.00    +0.000 C 
ATOM     12  C   UNL     1       3.246   2.993  20.173  0.00  0.00    +0.000 A 
ATOM     13  C   UNL     1       2.063   2.260  20.091  0.00  0.00    +0.000 A 
ATOM     14  C   UNL     1       0.827   2.901  20.211  0.00  0.00    +0.000 A 
ATOM     15  C   UNL     1       0.764   4.283  20.409  0.00  0.00    +0.000 A 
ATOM     16  C   UNL     1       1.939   5.032  20.521  0.00  0.00    +0.000 A 
ATOM     17  C   UNL     1       3.169   4.375  20.380  0.00  0.00    +0.000 A 
ENDBRANCH   1  16
BRANCH   7  18
ATOM     18  C   UNL     1       5.044   6.547  16.544  0.00  0.00    +0.000 A 
ATOM     19  C   UNL     1       5.246   5.696  15.450  0.00  0.00    +0.000 A 
ATOM     20  C   UNL     1       6.245   4.714  15.477  0.00  0.00    +0.000 A 
ATOM     21  C   UNL     1       7.062   4.579  16.597  0.00  0.00    +0.000 A 
ATOM     22  C   UNL     1       6.865   5.417  17.700  0.00  0.00    +0.000 A 
ATOM     23  C   UNL     1       5.862   6.387  17.667  0.00  0.00    +0.000 A 
BRANCH  22  24
ATOM     24  C   UNL     1       7.711   5.290  18.848  0.00  0.00    +0.000 C 
ATOM     25  N   UNL     1       8.416   5.184  19.774  0.00  0.00    +0.000 NA
ENDBRANCH  22  24
ENDBRANCH   7  18
BRANCH   4  26
ATOM     26  O   UNL     1       1.381  10.722  18.535  0.00  0.00    +0.000 OA
BRANCH  26  27
ATOM     27  C   UNL     1       0.101  11.073  18.940  0.00  0.00    +0.000 A 
ATOM     28  C   UNL     1      -1.089  10.662  18.294  0.00  0.00    +0.000 A 
ATOM     29  C   UNL     1      -1.175   9.706  17.131  0.00  0.00    +0.000 C 
ATOM     30  C   UNL     1      -2.310  11.215  18.715  0.00  0.00    +0.000 A 
ATOM     31  C   UNL     1      -2.386  12.076  19.809  0.00  0.00    +0.000 A 
ATOM     32  C   UNL     1      -3.699  12.665  20.226  0.00  0.00    +0.000 C 
ATOM     33  C   UNL     1      -1.219  12.368  20.522  0.00  0.00    +0.000 A 
ATOM     34  C   UNL     1       0.026  11.873  20.104  0.00  0.00    +0.000 A 
ATOM     35  C   UNL     1       1.248  12.199  20.927  0.00  0.00    +0.000 C 
ENDBRANCH  26  27
ENDBRANCH   4  26
TORSDOF 5
ENDMDL
MODEL 3
REMARK VINA RESULT:      -9.1      1.265      2.098
REMARK  Name = 
REMARK  9 active torsions:
REMARK  status: ('A' for Active; 'I' for Inactive)
REMARK    1  A    between atoms: C_1  and  C_2
REMARK    2  A    between atoms: C_6  and  N_7
REMARK    3  A    between atoms: C_10  and  O_11
REMARK    4  A    between atoms: O_11  and  C_12
REMARK    5  A    between atoms: C_13  and  C_14
REMARK    6  A    between atoms: C_16  and  C_17
REMARK    7  A    between atoms: C_19  and  C_20
REMARK    8  A    between atoms: N_23  and  C_24
REMARK    9  A    between atoms: C_28  and  C_29
REMARK                            x       y       z     vdW  Elec       q    Type
REMARK                         _______ _______ _______ _____ _____    ______ ____
ROOT
ATOM      1  N   UNL     1       1.927   6.469  20.678  0.00  0.00    +0.000 N 
ATOM      2  C   UNL     1       2.088   7.371  19.606  0.00  0.00    +0.000 A 
ATOM      3  C   UNL     1       1.431   8.572  19.644  0.00  0.00    +0.000 A 
ATOM      4  C   UNL     1       1.742   9.465  18.641  0.00  0.00    +0.000 A 
ATOM      5  N   UNL     1       2.501   9.139  17.574  0.00  0.00    +0.000 NA
ATOM      6  C   UNL     1       3.076   7.933  17.599  0.00  0.00    +0.000 A 
ATOM      7  N   UNL     1       3.849   7.554  16.504  0.00  0.00    +0.000 N 
ATOM      8  N   UNL     1       2.924   7.067  18.606  0.00  0.00    +0.000 NA
ATOM      9  H   UNL     1       2.414   6.797  21.504  0.00  0.00    +0.000 HD
ATOM     10  H   UNL     1       3.744   8.182  15.724  0.00  0.00    +0.000 HD
ENDROOT
BRANCH   1  16
ATOM     11  C   UNL     1       4.550   2.341  20.076  0.00  0.00    +0.000 C 
ATOM     12  C   UNL     1       3.212   3.001  20.199  0.00  0.00    +0.000 A 
ATOM     13  C   UNL     1       2.016   2.300  20.052  0.00  0.00    +0.000 A 
ATOM     14  C   UNL     1       0.792   2.968  20.136  0.00  0.00    +0.000 A 
ATOM     15  C   UNL     1       0.754   4.347  20.363  0.00  0.00    +0.000 A 
ATOM     16  C   UNL     1       1.941   5.064  20.539  0.00  0.00    +0.000 A 
ATOM     17  C   UNL     1       3.159   4.380  20.434  0.00  0.00    +0.000 A 
ENDBRANCH   1  16
BRANCH   7  18
ATOM     18  C   UNL     1       4.886   6.611  16.455  0.00  0.00    +0.000 A 
ATOM     19  C   UNL     1       5.777   6.493  17.528  0.00  0.00    +0.000 A 
ATOM     20  C   UNL     1       6.863   5.611  17.470  0.00  0.00    +0.000 A 
ATOM     21  C   UNL     1       7.064   4.825  16.337  0.00  0.00    +0.000 A 
ATOM     22  C   UNL     1       6.187   4.939  15.253  0.00  0.00    +0.000 A 
ATOM     23  C   UNL     1       5.113   5.827  15.318  0.00  0.00    +0.000 A 
BRANCH  22  24
ATOM     24  C   UNL     1       6.384   4.125  14.092  0.00  0.00    +0.000 C 
ATOM     25  N   UNL     1       6.528   3.466  13.138  0.00  0.00    +0.000 NA
ENDBRANCH  22  24
ENDBRANCH   7  18
BRANCH   4  26
ATOM     26  O   UNL     1       1.390  10.802  18.696  0.00  0.00    +0.000 OA
BRANCH  26  27
ATOM     27  C   UNL     1       0.111  11.162  19.095  0.00  0.00    +0.000 A 
ATOM     28  C   UNL     1      -1.078  10.773  18.434  0.00  0.00    +0.000 A 
ATOM     29  C   UNL     1      -1.165   9.833  17.257  0.00  0.00    +0.000 C 
ATOM     30  C   UNL     1      -2.297  11.333  18.852  0.00  0.00    +0.000 A 
ATOM     31  C   UNL     1      -2.372  12.180  19.958  0.00  0.00    +0.000 A 
ATOM     32  C   UNL     1      -3.683  12.778  20.371  0.00  0.00    +0.000 C 
ATOM     33  C   UNL     1      -1.209  12.449  20.684  0.00  0.00    +0.000 A 
ATOM     34  C   UNL     1       0.035  11.946  20.270  0.00  0.00    +0.000 A 
ATOM     35  C   UNL     1       1.253  12.248  21.107  0.00  0.00    +0.000 C 
ENDBRANCH  26  27
ENDBRANCH   4  26
TORSDOF 5
ENDMDL
MODEL 4
REMARK VINA RESULT:      -9.0      0.535      1.610
REMARK  Name = 
REMARK  9 active torsions:
REMARK  status: ('A' for Active; 'I' for Inactive)
REMARK    1  A    between atoms: C_1  and  C_2
REMARK    2  A    between atoms: C_6  and  N_7
REMARK    3  A    between atoms: C_10  and  O_11
REMARK    4  A    between atoms: O_11  and  C_12
REMARK    5  A    between atoms: C_13  and  C_14
REMARK    6  A    between atoms: C_16  and  C_17
REMARK    7  A    between atoms: C_19  and  C_20
REMARK    8  A    between atoms: N_23  and  C_24
REMARK    9  A    between atoms: C_28  and  C_29
REMARK                            x       y       z     vdW  Elec       q    Type
REMARK                         _______ _______ _______ _____ _____    ______ ____
ROOT
ATOM      1  N   UNL     1       1.813   6.600  20.656  0.00  0.00    +0.000 N 
ATOM      2  C   UNL     1       2.063   7.396  19.519  0.00  0.00    +0.000 A 
ATOM      3  C   UNL     1       1.372   8.568  19.363  0.00  0.00    +0.000 A 
ATOM      4  C   UNL     1       1.764   9.367  18.310  0.00  0.00    +0.000 A 
ATOM      5  N   UNL     1       2.642   8.965  17.368  0.00  0.00    +0.000 NA
ATOM      6  C   UNL     1       3.244   7.792  17.577  0.00  0.00    +0.000 A 
ATOM      7  N   UNL     1       4.141   7.335  16.614  0.00  0.00    +0.000 N 
ATOM      8  N   UNL     1       3.009   7.026  18.648  0.00  0.00    +0.000 NA
ATOM      9  H   UNL     1       2.200   7.028  21.490  0.00  0.00    +0.000 HD
ATOM     10  H   UNL     1       4.102   7.877  15.766  0.00  0.00    +0.000 HD
ENDROOT
BRANCH   1  16
ATOM     11  C   UNL     1       0.530   2.325  18.567  0.00  0.00    +0.000 C 
ATOM     12  C   UNL     1       1.227   3.050  19.676  0.00  0.00    +0.000 A 
ATOM     13  C   UNL     1       1.813   2.384  20.752  0.00  0.00    +0.000 A 
ATOM     14  C   UNL     1       2.418   3.107  21.783  0.00  0.00    +0.000 A 
ATOM     15  C   UNL     1       2.439   4.505  21.748  0.00  0.00    +0.000 A 
ATOM     16  C   UNL     1       1.882   5.190  20.666  0.00  0.00    +0.000 A 
ATOM     17  C   UNL     1       1.263   4.448  19.650  0.00  0.00    +0.000 A 
ENDBRANCH   1  16
BRANCH   7  18
ATOM     18  C   UNL     1       5.203   6.433  16.771  0.00  0.00    +0.000 A 
ATOM     19  C   UNL     1       5.517   5.535  15.744  0.00  0.00    +0.000 A 
ATOM     20  C   UNL     1       6.525   4.577  15.907  0.00  0.00    +0.000 A 
ATOM     21  C   UNL     1       7.241   4.513  17.101  0.00  0.00    +0.000 A 
ATOM     22  C   UNL     1       6.933   5.398  18.139  0.00  0.00    +0.000 A 
ATOM     23  C   UNL     1       5.921   6.345  17.970  0.00  0.00    +0.000 A 
BRANCH  22  24
ATOM     24  C   UNL     1       7.674   5.344  19.362  0.00  0.00    +0.000 C 
ATOM     25  N   UNL     1       8.269   5.313  20.368  0.00  0.00    +0.000 NA
ENDBRANCH  22  24
ENDBRANCH   7  18
BRANCH   4  26
ATOM     26  O   UNL     1       1.370  10.688  18.190  0.00  0.00    +0.000 OA
BRANCH  26  27
ATOM     27  C   UNL     1       0.461  11.221  19.093  0.00  0.00    +0.000 A 
ATOM     28  C   UNL     1       0.804  12.048  20.188  0.00  0.00    +0.000 A 
ATOM     29  C   UNL     1       2.185  12.567  20.502  0.00  0.00    +0.000 C 
ATOM     30  C   UNL     1      -0.197  12.393  21.112  0.00  0.00    +0.000 A 
ATOM     31  C   UNL     1      -1.528  12.023  20.922  0.00  0.00    +0.000 A 
ATOM     32  C   UNL     1      -2.572  12.389  21.933  0.00  0.00    +0.000 C 
ATOM     33  C   UNL     1      -1.876  11.320  19.765  0.00  0.00    +0.000 A 
ATOM     34  C   UNL     1      -0.898  10.917  18.842  0.00  0.00    +0.000 A 
ATOM     35  C   UNL     1      -1.334  10.183  17.599  0.00  0.00    +0.000 C 
ENDBRANCH  26  27
ENDBRANCH   4  26
TORSDOF 5
ENDMDL
MODEL 5
REMARK VINA RESULT:      -9.0      1.101      1.775
REMARK  Name = 
REMARK  9 active torsions:
REMARK  status: ('A' for Active; 'I' for Inactive)
REMARK    1  A    between atoms: C_1  and  C_2
REMARK    2  A    between atoms: C_6  and  N_7
REMARK    3  A    between atoms: C_10  and  O_11
REMARK    4  A    between atoms: O_11  and  C_12
REMARK    5  A    between atoms: C_13  and  C_14
REMARK    6  A    between atoms: C_16  and  C_17
REMARK    7  A    between atoms: C_19  and  C_20
REMARK    8  A    between atoms: N_23  and  C_24
REMARK    9  A    between atoms: C_28  and  C_29
REMARK                            x       y       z     vdW  Elec       q    Type
REMARK                         _______ _______ _______ _____ _____    ______ ____
ROOT
ATOM      1  N   UNL     1       1.894   6.527  20.834  0.00  0.00    +0.000 N 
ATOM      2  C   UNL     1       2.030   7.398  19.733  0.00  0.00    +0.000 A 
ATOM      3  C   UNL     1       1.356   8.589  19.740  0.00  0.00    +0.000 A 
ATOM      4  C   UNL     1       1.642   9.454  18.706  0.00  0.00    +0.000 A 
ATOM      5  N   UNL     1       2.394   9.107  17.642  0.00  0.00    +0.000 NA
ATOM      6  C   UNL     1       2.987   7.911  17.697  0.00  0.00    +0.000 A 
ATOM      7  N   UNL     1       3.755   7.510  16.606  0.00  0.00    +0.000 N 
ATOM      8  N   UNL     1       2.860   7.075  18.733  0.00  0.00    +0.000 NA
ATOM      9  H   UNL     1       2.386   6.888  21.644  0.00  0.00    +0.000 HD
ATOM     10  H   UNL     1       3.631   8.112  15.808  0.00  0.00    +0.000 HD
ENDROOT
BRANCH   1  16
ATOM     11  C   UNL     1       0.467   2.449  18.464  0.00  0.00    +0.000 C 
ATOM     12  C   UNL     1       1.203   3.074  19.607  0.00  0.00    +0.000 A 
ATOM     13  C   UNL     1       1.793   2.317  20.619  0.00  0.00    +0.000 A 
ATOM     14  C   UNL     1       2.436   2.947  21.687  0.00  0.00    +0.000 A 
ATOM     15  C   UNL     1       2.491   4.342  21.755  0.00  0.00    +0.000 A 
ATOM     16  C   UNL     1       1.929   5.119  20.738  0.00  0.00    +0.000 A 
ATOM     17  C   UNL     1       1.273   4.469  19.684  0.00  0.00    +0.000 A 
ENDBRANCH   1  16
BRANCH   7  18
ATOM     18  C   UNL     1       4.805   6.582  16.575  0.00  0.00    +0.000 A 
ATOM     19  C   UNL     1       5.667   6.462  17.672  0.00  0.00    +0.000 A 
ATOM     20  C   UNL     1       6.766   5.595  17.633  0.00  0.00    +0.000 A 
ATOM     21  C   UNL     1       7.011   4.827  16.497  0.00  0.00    +0.000 A 
ATOM     22  C   UNL     1       6.163   4.943  15.390  0.00  0.00    +0.000 A 
ATOM     23  C   UNL     1       5.075   5.816  15.435  0.00  0.00    +0.000 A 
BRANCH  22  24
ATOM     24  C   UNL     1       6.404   4.148  14.224  0.00  0.00    +0.000 C 
ATOM     25  N   UNL     1       6.583   3.498  13.269  0.00  0.00    +0.000 NA
ENDBRANCH  22  24
ENDBRANCH   7  18
BRANCH   4  26
ATOM     26  O   UNL     1       1.269  10.787  18.725  0.00  0.00    +0.000 OA
BRANCH  26  27
ATOM     27  C   UNL     1      -0.029  11.136  19.068  0.00  0.00    +0.000 A 
ATOM     28  C   UNL     1      -1.186  10.724  18.366  0.00  0.00    +0.000 A 
ATOM     29  C   UNL     1      -1.215   9.768  17.200  0.00  0.00    +0.000 C 
ATOM     30  C   UNL     1      -2.427  11.273  18.729  0.00  0.00    +0.000 A 
ATOM     31  C   UNL     1      -2.556  12.133  19.820  0.00  0.00    +0.000 A 
ATOM     32  C   UNL     1      -3.889  12.719  20.174  0.00  0.00    +0.000 C 
ATOM     33  C   UNL     1      -1.426  12.426  20.587  0.00  0.00    +0.000 A 
ATOM     34  C   UNL     1      -0.160  11.934  20.229  0.00  0.00    +0.000 A 
ATOM     35  C   UNL     1       1.020  12.262  21.108  0.00  0.00    +0.000 C 
ENDBRANCH  26  27
ENDBRANCH   4  26
TORSDOF 5
ENDMDL
MODEL 6
REMARK VINA RESULT:      -8.9      0.893      1.948
REMARK  Name = 
REMARK  9 active torsions:
REMARK  status: ('A' for Active; 'I' for Inactive)
REMARK    1  A    between atoms: C_1  and  C_2
REMARK    2  A    between atoms: C_6  and  N_7
REMARK    3  A    between atoms: C_10  and  O_11
REMARK    4  A    between atoms: O_11  and  C_12
REMARK    5  A    between atoms: C_13  and  C_14
REMARK    6  A    between atoms: C_16  and  C_17
REMARK    7  A    between atoms: C_19  and  C_20
REMARK    8  A    between atoms: N_23  and  C_24
REMARK    9  A    between atoms: C_28  and  C_29
REMARK                            x       y       z     vdW  Elec       q    Type
REMARK                         _______ _______ _______ _____ _____    ______ ____
ROOT
ATOM      1  N   UNL     1       1.921   6.612  20.560  0.00  0.00    +0.000 N 
ATOM      2  C   UNL     1       2.125   7.446  19.441  0.00  0.00    +0.000 A 
ATOM      3  C   UNL     1       1.447   8.633  19.364  0.00  0.00    +0.000 A 
ATOM      4  C   UNL     1       1.796   9.464  18.322  0.00  0.00    +0.000 A 
ATOM      5  N   UNL     1       2.618   9.086  17.321  0.00  0.00    +0.000 NA
ATOM      6  C   UNL     1       3.210   7.896  17.455  0.00  0.00    +0.000 A 
ATOM      7  N   UNL     1       4.049   7.463  16.431  0.00  0.00    +0.000 N 
ATOM      8  N   UNL     1       3.019   7.095  18.508  0.00  0.00    +0.000 NA
ATOM      9  H   UNL     1       2.358   7.003  21.387  0.00  0.00    +0.000 HD
ATOM     10  H   UNL     1       3.975   8.037  15.606  0.00  0.00    +0.000 HD
ENDROOT
BRANCH   1  16
ATOM     11  C   UNL     1       4.608   2.521  19.991  0.00  0.00    +0.000 C 
ATOM     12  C   UNL     1       3.267   3.153  20.195  0.00  0.00    +0.000 A 
ATOM     13  C   UNL     1       2.086   2.413  20.209  0.00  0.00    +0.000 A 
ATOM     14  C   UNL     1       0.854   3.054  20.363  0.00  0.00    +0.000 A 
ATOM     15  C   UNL     1       0.793   4.444  20.499  0.00  0.00    +0.000 A 
ATOM     16  C   UNL     1       1.967   5.202  20.514  0.00  0.00    +0.000 A 
ATOM     17  C   UNL     1       3.192   4.543  20.341  0.00  0.00    +0.000 A 
ENDBRANCH   1  16
BRANCH   7  18
ATOM     18  C   UNL     1       5.103   6.541  16.499  0.00  0.00    +0.000 A 
ATOM     19  C   UNL     1       5.345   5.673  15.427  0.00  0.00    +0.000 A 
ATOM     20  C   UNL     1       6.344   4.695  15.503  0.00  0.00    +0.000 A 
ATOM     21  C   UNL     1       7.124   4.581  16.652  0.00  0.00    +0.000 A 
ATOM     22  C   UNL     1       6.888   5.435  17.735  0.00  0.00    +0.000 A 
ATOM     23  C   UNL     1       5.884   6.401  17.652  0.00  0.00    +0.000 A 
BRANCH  22  24
ATOM     24  C   UNL     1       7.694   5.328  18.912  0.00  0.00    +0.000 C 
ATOM     25  N   UNL     1       8.340   5.252  19.883  0.00  0.00    +0.000 NA
ENDBRANCH  22  24
ENDBRANCH   7  18
BRANCH   4  26
ATOM     26  O   UNL     1       1.419  10.795  18.270  0.00  0.00    +0.000 OA
BRANCH  26  27
ATOM     27  C   UNL     1       0.521  11.293  19.204  0.00  0.00    +0.000 A 
ATOM     28  C   UNL     1       0.873  12.114  20.302  0.00  0.00    +0.000 A 
ATOM     29  C   UNL     1       2.249  12.662  20.586  0.00  0.00    +0.000 C 
ATOM     30  C   UNL     1      -0.110  12.421  21.257  0.00  0.00    +0.000 A 
ATOM     31  C   UNL     1      -1.436  12.021  21.097  0.00  0.00    +0.000 A 
ATOM     32  C   UNL     1      -2.461  12.348  22.140  0.00  0.00    +0.000 C 
ATOM     33  C   UNL     1      -1.799  11.325  19.940  0.00  0.00    +0.000 A 
ATOM     34  C   UNL     1      -0.836  10.959  18.985  0.00  0.00    +0.000 A 
ATOM     35  C   UNL     1      -1.288  10.232  17.744  0.00  0.00    +0.000 C 
ENDBRANCH  26  27
ENDBRANCH   4  26
TORSDOF 5
ENDMDL
MODEL 7
REMARK VINA RESULT:      -8.5      2.859      9.245
REMARK  Name = 
REMARK  9 active torsions:
REMARK  status: ('A' for Active; 'I' for Inactive)
REMARK    1  A    between atoms: C_1  and  C_2
REMARK    2  A    between atoms: C_6  and  N_7
REMARK    3  A    between atoms: C_10  and  O_11
REMARK    4  A    between atoms: O_11  and  C_12
REMARK    5  A    between atoms: C_13  and  C_14
REMARK    6  A    between atoms: C_16  and  C_17
REMARK    7  A    between atoms: C_19  and  C_20
REMARK    8  A    between atoms: N_23  and  C_24
REMARK    9  A    between atoms: C_28  and  C_29
REMARK                            x       y       z     vdW  Elec       q    Type
REMARK                         _______ _______ _______ _____ _____    ______ ____
ROOT
ATOM      1  N   UNL     1      -0.417  10.054  17.322  0.00  0.00    +0.000 N 
ATOM      2  C   UNL     1       0.176   9.523  18.486  0.00  0.00    +0.000 A 
ATOM      3  C   UNL     1       1.144   8.564  18.360  0.00  0.00    +0.000 A 
ATOM      4  C   UNL     1       1.783   8.191  19.524  0.00  0.00    +0.000 A 
ATOM      5  N   UNL     1       1.378   8.592  20.747  0.00  0.00    +0.000 NA
ATOM      6  C   UNL     1       0.402   9.502  20.782  0.00  0.00    +0.000 A 
ATOM      7  N   UNL     1      -0.056   9.923  22.028  0.00  0.00    +0.000 N 
ATOM      8  N   UNL     1      -0.172  10.007  19.685  0.00  0.00    +0.000 NA
ATOM      9  H   UNL     1       0.229  10.662  16.831  0.00  0.00    +0.000 HD
ATOM     10  H   UNL     1       0.295   9.351  22.779  0.00  0.00    +0.000 HD
ENDROOT
BRANCH   1  16
ATOM     11  C   UNL     1      -4.239  12.293  19.481  0.00  0.00    +0.000 C 
ATOM     12  C   UNL     1      -3.688  11.552  18.303  0.00  0.00    +0.000 A 
ATOM     13  C   UNL     1      -4.482  11.173  17.221  0.00  0.00    +0.000 A 
ATOM     14  C   UNL     1      -3.930  10.447  16.163  0.00  0.00    +0.000 A 
ATOM     15  C   UNL     1      -2.578  10.090  16.180  0.00  0.00    +0.000 A 
ATOM     16  C   UNL     1      -1.760  10.482  17.242  0.00  0.00    +0.000 A 
ATOM     17  C   UNL     1      -2.336  11.195  18.304  0.00  0.00    +0.000 A 
ENDBRANCH   1  16
BRANCH   7  18
ATOM     18  C   UNL     1      -0.694  11.127  22.361  0.00  0.00    +0.000 A 
ATOM     19  C   UNL     1      -0.077  12.350  22.072  0.00  0.00    +0.000 A 
ATOM     20  C   UNL     1      -0.662  13.561  22.461  0.00  0.00    +0.000 A 
ATOM     21  C   UNL     1      -1.881  13.564  23.136  0.00  0.00    +0.000 A 
ATOM     22  C   UNL     1      -2.505  12.349  23.439  0.00  0.00    +0.000 A 
ATOM     23  C   UNL     1      -1.910  11.147  23.054  0.00  0.00    +0.000 A 
BRANCH  22  24
ATOM     24  C   UNL     1      -3.763  12.348  24.122  0.00  0.00    +0.000 C 
ATOM     25  N   UNL     1      -4.798  12.355  24.664  0.00  0.00    +0.000 NA
ENDBRANCH  22  24
ENDBRANCH   7  18
BRANCH   4  26
ATOM     26  O   UNL     1       2.958   7.460  19.528  0.00  0.00    +0.000 OA
BRANCH  26  27
ATOM     27  C   UNL     1       2.961   6.157  19.051  0.00  0.00    +0.000 A 
ATOM     28  C   UNL     1       2.255   5.082  19.642  0.00  0.00    +0.000 A 
ATOM     29  C   UNL     1       1.314   5.185  20.816  0.00  0.00    +0.000 C 
ATOM     30  C   UNL     1       2.467   3.784  19.148  0.00  0.00    +0.000 A 
ATOM     31  C   UNL     1       3.275   3.546  18.036  0.00  0.00    +0.000 A 
ATOM     32  C   UNL     1       3.498   2.149  17.542  0.00  0.00    +0.000 C 
ATOM     33  C   UNL     1       3.859   4.633  17.380  0.00  0.00    +0.000 A 
ATOM     34  C   UNL     1       3.708   5.940  17.870  0.00  0.00    +0.000 A 
ATOM     35  C   UNL     1       4.340   7.077  17.107  0.00  0.00    +0.000 C 
ENDBRANCH  26  27
ENDBRANCH   4  26
TORSDOF 5
ENDMDL
MODEL 8
REMARK VINA RESULT:      -8.4      1.414      2.676
REMARK  Name = 
REMARK  9 active torsions:
REMARK  status: ('A' for Active; 'I' for Inactive)
REMARK    1  A    between atoms: C_1  and  C_2
REMARK    2  A    between atoms: C_6  and  N_7
REMARK    3  A    between atoms: C_10  and  O_11
REMARK    4  A    between atoms: O_11  and  C_12
REMARK    5  A    between atoms: C_13  and  C_14
REMARK    6  A    between atoms: C_16  and  C_17
REMARK    7  A    between atoms: C_19  and  C_20
REMARK    8  A    between atoms: N_23  and  C_24
REMARK    9  A    between atoms: C_28  and  C_29
REMARK                            x       y       z     vdW  Elec       q    Type
REMARK                         _______ _______ _______ _____ _____    ______ ____
ROOT
ATOM      1  N   UNL     1       1.968   6.611  20.638  0.00  0.00    +0.000 N 
ATOM      2  C   UNL     1       2.132   7.477  19.536  0.00  0.00    +0.000 A 
ATOM      3  C   UNL     1       1.489   8.686  19.539  0.00  0.00    +0.000 A 
ATOM      4  C   UNL     1       1.802   9.542  18.506  0.00  0.00    +0.000 A 
ATOM      5  N   UNL     1       2.550   9.173  17.445  0.00  0.00    +0.000 NA
ATOM      6  C   UNL     1       3.111   7.963  17.504  0.00  0.00    +0.000 A 
ATOM      7  N   UNL     1       3.872   7.540  16.417  0.00  0.00    +0.000 N 
ATOM      8  N   UNL     1       2.957   7.131  18.540  0.00  0.00    +0.000 NA
ATOM      9  H   UNL     1       2.465   6.960  21.449  0.00  0.00    +0.000 HD
ATOM     10  H   UNL     1       3.768   8.144  15.618  0.00  0.00    +0.000 HD
ENDROOT
BRANCH   1  16
ATOM     11  C   UNL     1       4.526   2.446  20.011  0.00  0.00    +0.000 C 
ATOM     12  C   UNL     1       3.202   3.120  20.193  0.00  0.00    +0.000 A 
ATOM     13  C   UNL     1       1.995   2.424  20.142  0.00  0.00    +0.000 A 
ATOM     14  C   UNL     1       0.783   3.104  20.279  0.00  0.00    +0.000 A 
ATOM     15  C   UNL     1       0.767   4.490  20.463  0.00  0.00    +0.000 A 
ATOM     16  C   UNL     1       1.966   5.203  20.543  0.00  0.00    +0.000 A 
ATOM     17  C   UNL     1       3.172   4.506  20.386  0.00  0.00    +0.000 A 
ENDBRANCH   1  16
BRANCH   7  18
ATOM     18  C   UNL     1       4.898   6.584  16.391  0.00  0.00    +0.000 A 
ATOM     19  C   UNL     1       5.763   6.455  17.485  0.00  0.00    +0.000 A 
ATOM     20  C   UNL     1       6.838   5.559  17.451  0.00  0.00    +0.000 A 
ATOM     21  C   UNL     1       7.056   4.771  16.322  0.00  0.00    +0.000 A 
ATOM     22  C   UNL     1       6.205   4.896  15.219  0.00  0.00    +0.000 A 
ATOM     23  C   UNL     1       5.141   5.798  15.259  0.00  0.00    +0.000 A 
BRANCH  22  24
ATOM     24  C   UNL     1       6.419   4.080  14.062  0.00  0.00    +0.000 C 
ATOM     25  N   UNL     1       6.585   3.427  13.107  0.00  0.00    +0.000 NA
ENDBRANCH  22  24
ENDBRANCH   7  18
BRANCH   4  26
ATOM     26  O   UNL     1       1.465  10.884  18.521  0.00  0.00    +0.000 OA
BRANCH  26  27
ATOM     27  C   UNL     1       0.552  11.355  19.453  0.00  0.00    +0.000 A 
ATOM     28  C   UNL     1       0.883  12.150  20.576  0.00  0.00    +0.000 A 
ATOM     29  C   UNL     1       2.252  12.698  20.893  0.00  0.00    +0.000 C 
ATOM     30  C   UNL     1      -0.116  12.429  21.523  0.00  0.00    +0.000 A 
ATOM     31  C   UNL     1      -1.437  12.027  21.334  0.00  0.00    +0.000 A 
ATOM     32  C   UNL     1      -2.479  12.322  22.370  0.00  0.00    +0.000 C 
ATOM     33  C   UNL     1      -1.779  11.357  20.155  0.00  0.00    +0.000 A 
ATOM     34  C   UNL     1      -0.800  11.019  19.206  0.00  0.00    +0.000 A 
ATOM     35  C   UNL     1      -1.230  10.320  17.941  0.00  0.00    +0.000 C 
ENDBRANCH  26  27
ENDBRANCH   4  26
TORSDOF 5
ENDMDL
MODEL 9
REMARK VINA RESULT:      -8.3      2.849      9.225
REMARK  Name = 
REMARK  9 active torsions:
REMARK  status: ('A' for Active; 'I' for Inactive)
REMARK    1  A    between atoms: C_1  and  C_2
REMARK    2  A    between atoms: C_6  and  N_7
REMARK    3  A    between atoms: C_10  and  O_11
REMARK    4  A    between atoms: O_11  and  C_12
REMARK    5  A    between atoms: C_13  and  C_14
REMARK    6  A    between atoms: C_16  and  C_17
REMARK    7  A    between atoms: C_19  and  C_20
REMARK    8  A    between atoms: N_23  and  C_24
REMARK    9  A    between atoms: C_28  and  C_29
REMARK                            x       y       z     vdW  Elec       q    Type
REMARK                         _______ _______ _______ _____ _____    ______ ____
ROOT
ATOM      1  N   UNL     1      -0.372  10.064  17.373  0.00  0.00    +0.000 N 
ATOM      2  C   UNL     1       0.187   9.533  18.554  0.00  0.00    +0.000 A 
ATOM      3  C   UNL     1       1.156   8.571  18.456  0.00  0.00    +0.000 A 
ATOM      4  C   UNL     1       1.762   8.198  19.637  0.00  0.00    +0.000 A 
ATOM      5  N   UNL     1       1.326   8.602  20.848  0.00  0.00    +0.000 NA
ATOM      6  C   UNL     1       0.351   9.515  20.855  0.00  0.00    +0.000 A 
ATOM      7  N   UNL     1      -0.139   9.940  22.088  0.00  0.00    +0.000 N 
ATOM      8  N   UNL     1      -0.192  10.020  19.742  0.00  0.00    +0.000 NA
ATOM      9  H   UNL     1       0.289  10.669  16.900  0.00  0.00    +0.000 HD
ATOM     10  H   UNL     1       0.189   9.368  22.849  0.00  0.00    +0.000 HD
ENDROOT
BRANCH   1  16
ATOM     11  C   UNL     1      -4.258  12.281  19.439  0.00  0.00    +0.000 C 
ATOM     12  C   UNL     1      -3.671  11.554  18.270  0.00  0.00    +0.000 A 
ATOM     13  C   UNL     1      -4.430  11.191  17.158  0.00  0.00    +0.000 A 
ATOM     14  C   UNL     1      -3.846  10.479  16.108  0.00  0.00    +0.000 A 
ATOM     15  C   UNL     1      -2.496  10.118  16.164  0.00  0.00    +0.000 A 
ATOM     16  C   UNL     1      -1.711  10.495  17.257  0.00  0.00    +0.000 A 
ATOM     17  C   UNL     1      -2.320  11.194  18.309  0.00  0.00    +0.000 A 
ENDBRANCH   1  16
BRANCH   7  18
ATOM     18  C   UNL     1      -0.783  11.146  22.401  0.00  0.00    +0.000 A 
ATOM     19  C   UNL     1      -0.170  12.367  22.094  0.00  0.00    +0.000 A 
ATOM     20  C   UNL     1      -0.761  13.582  22.463  0.00  0.00    +0.000 A 
ATOM     21  C   UNL     1      -1.980  13.590  23.137  0.00  0.00    +0.000 A 
ATOM     22  C   UNL     1      -2.599  12.377  23.458  0.00  0.00    +0.000 A 
ATOM     23  C   UNL     1      -1.999  11.171  23.093  0.00  0.00    +0.000 A 
BRANCH  22  24
ATOM     24  C   UNL     1      -3.858  12.381  24.140  0.00  0.00    +0.000 C 
ATOM     25  N   UNL     1      -4.877  12.383  24.713  0.00  0.00    +0.000 NA
ENDBRANCH  22  24
ENDBRANCH   7  18
BRANCH   4  26
ATOM     26  O   UNL     1       2.935   7.464  19.674  0.00  0.00    +0.000 OA
BRANCH  26  27
ATOM     27  C   UNL     1       2.993   6.226  19.049  0.00  0.00    +0.000 A 
ATOM     28  C   UNL     1       3.693   5.962  17.848  0.00  0.00    +0.000 A 
ATOM     29  C   UNL     1       4.565   6.943  17.104  0.00  0.00    +0.000 C 
ATOM     30  C   UNL     1       3.543   4.704  17.242  0.00  0.00    +0.000 A 
ATOM     31  C   UNL     1       2.805   3.685  17.844  0.00  0.00    +0.000 A 
ATOM     32  C   UNL     1       2.646   2.358  17.166  0.00  0.00    +0.000 C 
ATOM     33  C   UNL     1       2.229   3.916  19.096  0.00  0.00    +0.000 A 
ATOM     34  C   UNL     1       2.317   5.175  19.712  0.00  0.00    +0.000 A 
ATOM     35  C   UNL     1       1.699   5.359  21.075  0.00  0.00    +0.000 C 
ENDBRANCH  26  27
ENDBRANCH   4  26
TORSDOF 5
ENDMDL
