MODEL 1
REMARK VINA RESULT:      -8.3      0.000      0.000
REMARK  Name = 
REMARK  9 active torsions:
REMARK  status: ('A' for Active; 'I' for Inactive)
REMARK    1  A    between atoms: C_1  and  O_2
REMARK    2  A    between atoms: O_2  and  C_3
REMARK    3  A    between atoms: C_5  and  C_6
REMARK    4  A    between atoms: C_11  and  C_12
REMARK    5  A    between atoms: C_24  and  O_25
REMARK    6  A    between atoms: O_25  and  C_26
REMARK    7  A    between atoms: C_27  and  O_28
REMARK    8  A    between atoms: O_28  and  C_29
REMARK    9  A    between atoms: C_29  and  C_30
REMARK                            x       y       z     vdW  Elec       q    Type
REMARK                         _______ _______ _______ _____ _____    ______ ____
ROOT
ATOM      1  C   UNL     1       2.901   4.297  17.670  0.00  0.00    +0.000 A 
ATOM      2  C   UNL     1       2.278   4.999  18.707  0.00  0.00    +0.000 A 
ATOM      3  C   UNL     1       2.810   6.211  19.125  0.00  0.00    +0.000 A 
ATOM      4  C   UNL     1       4.053   6.607  18.637  0.00  0.00    +0.000 A 
ATOM      5  C   UNL     1       4.675   5.975  17.543  0.00  0.00    +0.000 A 
ATOM      6  C   UNL     1       4.089   4.791  17.043  0.00  0.00    +0.000 A 
ENDROOT
BRANCH   3   7
ATOM      7  C   UNL     1       2.015   7.089  20.017  0.00  0.00    +0.000 C 
ATOM      8  O   UNL     1       1.767   6.646  21.138  0.00  0.00    +0.000 OA
ATOM      9  N   UNL     1       1.521   8.323  19.556  0.00  0.00    +0.000 N 
ATOM     10  C   UNL     1       0.965   9.225  20.560  0.00  0.00    +0.000 C 
ATOM     11  C   UNL     1      -0.235  10.004  20.032  0.00  0.00    +0.000 C 
ATOM     12  C   UNL     1       0.018  10.713  18.693  0.00  0.00    +0.000 C 
ATOM     13  C   UNL     1       0.595   9.715  17.688  0.00  0.00    +0.000 C 
ATOM     14  C   UNL     1       1.780   8.935  18.246  0.00  0.00    +0.000 C 
BRANCH  12  15
ATOM     15  C   UNL     1       0.932  11.942  18.813  0.00  0.00    +0.000 C 
ATOM     16  O   UNL     1       2.144  11.843  18.614  0.00  0.00    +0.000 OA
ATOM     17  N   UNL     1       0.336  13.185  19.062  0.00  0.00    +0.000 N 
ATOM     18  C   UNL     1       1.155  14.381  18.850  0.00  0.00    +0.000 C 
ATOM     19  C   UNL     1       1.897  14.818  20.111  0.00  0.00    +0.000 C 
ATOM     20  C   UNL     1       1.016  15.524  21.140  0.00  0.00    +0.000 C 
ATOM     21  C   UNL     1      -0.204  14.726  21.591  0.00  0.00    +0.000 C 
ATOM     22  C   UNL     1      -1.248  14.567  20.485  0.00  0.00    +0.000 C 
ATOM     23  C   UNL     1      -1.012  13.351  19.589  0.00  0.00    +0.000 C 
ENDBRANCH  12  15
ENDBRANCH   3   7
BRANCH   1  25
ATOM     24  C   UNL     1       2.425   1.982  18.026  0.00  0.00    +0.000 C 
ATOM     25  O   UNL     1       2.372   3.124  17.174  0.00  0.00    +0.000 OA
ENDBRANCH   1  25
BRANCH   5  26
ATOM     26  O   UNL     1       5.640   6.839  17.119  0.00  0.00    +0.000 OA
ATOM     27  C   UNL     1       7.005   6.921  17.456  0.00  0.00    +0.000 C 
ENDBRANCH   5  26
BRANCH   6  28
ATOM     28  O   UNL     1       4.427   4.022  15.948  0.00  0.00    +0.000 OA
BRANCH  28  29
ATOM     29  C   UNL     1       5.803   3.869  15.719  0.00  0.00    +0.000 C 
BRANCH  29  30
ATOM     30  C   UNL     1       6.300   4.190  14.338  0.00  0.00    +0.000 A 
ATOM     31  C   UNL     1       7.326   5.113  14.127  0.00  0.00    +0.000 A 
ATOM     32  C   UNL     1       7.867   5.261  12.850  0.00  0.00    +0.000 A 
ATOM     33  C   UNL     1       7.396   4.490  11.791  0.00  0.00    +0.000 A 
ATOM     34  C   UNL     1       6.381   3.556  11.994  0.00  0.00    +0.000 A 
ATOM     35  C   UNL     1       5.843   3.403  13.265  0.00  0.00    +0.000 A 
ENDBRANCH  29  30
ENDBRANCH  28  29
ENDBRANCH   6  28
TORSDOF 7
ENDMDL
MODEL 2
REMARK VINA RESULT:      -8.2      0.984      2.351
REMARK  Name = 
REMARK  9 active torsions:
REMARK  status: ('A' for Active; 'I' for Inactive)
REMARK    1  A    between atoms: C_1  and  O_2
REMARK    2  A    between atoms: O_2  and  C_3
REMARK    3  A    between atoms: C_5  and  C_6
REMARK    4  A    between atoms: C_11  and  C_12
REMARK    5  A    between atoms: C_24  and  O_25
REMARK    6  A    between atoms: O_25  and  C_26
REMARK    7  A    between atoms: C_27  and  O_28
REMARK    8  A    between atoms: O_28  and  C_29
REMARK    9  A    between atoms: C_29  and  C_30
REMARK                            x       y       z     vdW  Elec       q    Type
REMARK                         _______ _______ _______ _____ _____    ______ ____
ROOT
ATOM      1  C   UNL     1       4.865   6.023  17.634  0.00  0.00    +0.000 A 
ATOM      2  C   UNL     1       3.956   6.668  18.476  0.00  0.00    +0.000 A 
ATOM      3  C   UNL     1       2.843   5.977  18.936  0.00  0.00    +0.000 A 
ATOM      4  C   UNL     1       2.557   4.725  18.397  0.00  0.00    +0.000 A 
ATOM      5  C   UNL     1       3.480   4.009  17.610  0.00  0.00    +0.000 A 
ATOM      6  C   UNL     1       4.664   4.669  17.216  0.00  0.00    +0.000 A 
ENDROOT
BRANCH   3   7
ATOM      7  C   UNL     1       2.031   6.548  20.036  0.00  0.00    +0.000 C 
ATOM      8  O   UNL     1       1.757   5.788  20.963  0.00  0.00    +0.000 OA
ATOM      9  N   UNL     1       1.549   7.869  19.962  0.00  0.00    +0.000 N 
ATOM     10  C   UNL     1       0.973   8.428  21.182  0.00  0.00    +0.000 C 
ATOM     11  C   UNL     1      -0.213   9.341  20.891  0.00  0.00    +0.000 C 
ATOM     12  C   UNL     1       0.071  10.421  19.837  0.00  0.00    +0.000 C 
ATOM     13  C   UNL     1       0.667   9.771  18.589  0.00  0.00    +0.000 C 
ATOM     14  C   UNL     1       1.838   8.847  18.907  0.00  0.00    +0.000 C 
BRANCH  12  15
ATOM     15  C   UNL     1       0.985  11.547  20.344  0.00  0.00    +0.000 C 
ATOM     16  O   UNL     1       1.723  11.366  21.314  0.00  0.00    +0.000 OA
ATOM     17  N   UNL     1       1.020  12.745  19.617  0.00  0.00    +0.000 N 
ATOM     18  C   UNL     1       2.114  13.675  19.902  0.00  0.00    +0.000 C 
ATOM     19  C   UNL     1       1.759  14.690  20.985  0.00  0.00    +0.000 C 
ATOM     20  C   UNL     1       0.840  15.814  20.510  0.00  0.00    +0.000 C 
ATOM     21  C   UNL     1      -0.471  15.346  19.885  0.00  0.00    +0.000 C 
ATOM     22  C   UNL     1      -0.269  14.648  18.540  0.00  0.00    +0.000 C 
ATOM     23  C   UNL     1      -0.003  13.148  18.661  0.00  0.00    +0.000 C 
ENDBRANCH  12  15
ENDBRANCH   3   7
BRANCH   1  25
ATOM     24  C   UNL     1       7.141   6.596  18.088  0.00  0.00    +0.000 C 
ATOM     25  O   UNL     1       6.021   6.645  17.207  0.00  0.00    +0.000 OA
ENDBRANCH   1  25
BRANCH   5  26
ATOM     26  O   UNL     1       3.029   2.722  17.594  0.00  0.00    +0.000 OA
ATOM     27  C   UNL     1       3.461   1.593  18.317  0.00  0.00    +0.000 C 
ENDBRANCH   5  26
BRANCH   6  28
ATOM     28  O   UNL     1       5.763   4.194  16.528  0.00  0.00    +0.000 OA
BRANCH  28  29
ATOM     29  C   UNL     1       5.482   3.532  15.323  0.00  0.00    +0.000 C 
BRANCH  29  30
ATOM     30  C   UNL     1       6.167   4.049  14.090  0.00  0.00    +0.000 A 
ATOM     31  C   UNL     1       7.147   5.041  14.161  0.00  0.00    +0.000 A 
ATOM     32  C   UNL     1       7.871   5.376  13.016  0.00  0.00    +0.000 A 
ATOM     33  C   UNL     1       7.626   4.723  11.811  0.00  0.00    +0.000 A 
ATOM     34  C   UNL     1       6.659   3.723  11.734  0.00  0.00    +0.000 A 
ATOM     35  C   UNL     1       5.939   3.383  12.872  0.00  0.00    +0.000 A 
ENDBRANCH  29  30
ENDBRANCH  28  29
ENDBRANCH   6  28
TORSDOF 7
ENDMDL
MODEL 3
REMARK VINA RESULT:      -8.1      0.893      1.256
REMARK  Name = 
REMARK  9 active torsions:
REMARK  status: ('A' for Active; 'I' for Inactive)
REMARK    1  A    between atoms: C_1  and  O_2
REMARK    2  A    between atoms: O_2  and  C_3
REMARK    3  A    between atoms: C_5  and  C_6
REMARK    4  A    between atoms: C_11  and  C_12
REMARK    5  A    between atoms: C_24  and  O_25
REMARK    6  A    between atoms: O_25  and  C_26
REMARK    7  A    between atoms: C_27  and  O_28
REMARK    8  A    between atoms: O_28  and  C_29
REMARK    9  A    between atoms: C_29  and  C_30
REMARK                            x       y       z     vdW  Elec       q    Type
REMARK                         _______ _______ _______ _____ _____    ______ ____
ROOT
ATOM      1  C   UNL     1       2.933   4.215  17.622  0.00  0.00    +0.000 A 
ATOM      2  C   UNL     1       2.275   4.715  18.749  0.00  0.00    +0.000 A 
ATOM      3  C   UNL     1       2.693   5.917  19.306  0.00  0.00    +0.000 A 
ATOM      4  C   UNL     1       3.873   6.498  18.848  0.00  0.00    +0.000 A 
ATOM      5  C   UNL     1       4.521   6.073  17.672  0.00  0.00    +0.000 A 
ATOM      6  C   UNL     1       4.044   4.904  17.040  0.00  0.00    +0.000 A 
ENDROOT
BRANCH   3   7
ATOM      7  C   UNL     1       1.841   6.590  20.315  0.00  0.00    +0.000 C 
ATOM      8  O   UNL     1       1.467   5.898  21.262  0.00  0.00    +0.000 OA
ATOM      9  N   UNL     1       1.435   7.925  20.136  0.00  0.00    +0.000 N 
ATOM     10  C   UNL     1       0.811   8.582  21.281  0.00  0.00    +0.000 C 
ATOM     11  C   UNL     1      -0.305   9.533  20.861  0.00  0.00    +0.000 C 
ATOM     12  C   UNL     1       0.104  10.535  19.771  0.00  0.00    +0.000 C 
ATOM     13  C   UNL     1       0.746   9.785  18.604  0.00  0.00    +0.000 C 
ATOM     14  C   UNL     1       1.844   8.826  19.051  0.00  0.00    +0.000 C 
BRANCH  12  15
ATOM     15  C   UNL     1       1.041  11.643  20.277  0.00  0.00    +0.000 C 
ATOM     16  O   UNL     1       1.787  11.442  21.236  0.00  0.00    +0.000 OA
ATOM     17  N   UNL     1       1.085  12.846  19.560  0.00  0.00    +0.000 N 
ATOM     18  C   UNL     1       2.196  13.758  19.841  0.00  0.00    +0.000 C 
ATOM     19  C   UNL     1       1.869  14.768  20.938  0.00  0.00    +0.000 C 
ATOM     20  C   UNL     1       0.961  15.910  20.484  0.00  0.00    +0.000 C 
ATOM     21  C   UNL     1      -0.364  15.467  19.870  0.00  0.00    +0.000 C 
ATOM     22  C   UNL     1      -0.188  14.779  18.516  0.00  0.00    +0.000 C 
ATOM     23  C   UNL     1       0.056  13.273  18.621  0.00  0.00    +0.000 C 
ENDBRANCH  12  15
ENDBRANCH   3   7
BRANCH   1  25
ATOM     24  C   UNL     1       2.433   1.884  17.792  0.00  0.00    +0.000 C 
ATOM     25  O   UNL     1       2.512   3.062  16.992  0.00  0.00    +0.000 OA
ENDBRANCH   1  25
BRANCH   5  26
ATOM     26  O   UNL     1       5.379   7.080  17.341  0.00  0.00    +0.000 OA
ATOM     27  C   UNL     1       6.787   7.123  17.361  0.00  0.00    +0.000 C 
ENDBRANCH   5  26
BRANCH   6  28
ATOM     28  O   UNL     1       4.424   4.315  15.851  0.00  0.00    +0.000 OA
BRANCH  28  29
ATOM     29  C   UNL     1       5.789   4.007  15.739  0.00  0.00    +0.000 C 
BRANCH  29  30
ATOM     30  C   UNL     1       6.389   4.079  14.363  0.00  0.00    +0.000 A 
ATOM     31  C   UNL     1       5.861   3.349  13.297  0.00  0.00    +0.000 A 
ATOM     32  C   UNL     1       6.344   3.567  12.007  0.00  0.00    +0.000 A 
ATOM     33  C   UNL     1       7.341   4.512  11.778  0.00  0.00    +0.000 A 
ATOM     34  C   UNL     1       7.865   5.255  12.833  0.00  0.00    +0.000 A 
ATOM     35  C   UNL     1       7.384   5.044  14.119  0.00  0.00    +0.000 A 
ENDBRANCH  29  30
ENDBRANCH  28  29
ENDBRANCH   6  28
TORSDOF 7
ENDMDL
MODEL 4
REMARK VINA RESULT:      -8.1      0.634      2.350
REMARK  Name = 
REMARK  9 active torsions:
REMARK  status: ('A' for Active; 'I' for Inactive)
REMARK    1  A    between atoms: C_1  and  O_2
REMARK    2  A    between atoms: O_2  and  C_3
REMARK    3  A    between atoms: C_5  and  C_6
REMARK    4  A    between atoms: C_11  and  C_12
REMARK    5  A    between atoms: C_24  and  O_25
REMARK    6  A    between atoms: O_25  and  C_26
REMARK    7  A    between atoms: C_27  and  O_28
REMARK    8  A    between atoms: O_28  and  C_29
REMARK    9  A    between atoms: C_29  and  C_30
REMARK                            x       y       z     vdW  Elec       q    Type
REMARK                         _______ _______ _______ _____ _____    ______ ____
ROOT
ATOM      1  C   UNL     1       4.996   6.119  17.425  0.00  0.00    +0.000 A 
ATOM      2  C   UNL     1       4.134   6.889  18.210  0.00  0.00    +0.000 A 
ATOM      3  C   UNL     1       2.956   6.326  18.683  0.00  0.00    +0.000 A 
ATOM      4  C   UNL     1       2.569   5.074  18.209  0.00  0.00    +0.000 A 
ATOM      5  C   UNL     1       3.438   4.236  17.483  0.00  0.00    +0.000 A 
ATOM      6  C   UNL     1       4.683   4.766  17.079  0.00  0.00    +0.000 A 
ENDROOT
BRANCH   3   7
ATOM      7  C   UNL     1       2.180   7.028  19.732  0.00  0.00    +0.000 C 
ATOM      8  O   UNL     1       2.040   6.431  20.799  0.00  0.00    +0.000 OA
ATOM      9  N   UNL     1       1.582   8.275  19.469  0.00  0.00    +0.000 N 
ATOM     10  C   UNL     1       1.050   9.004  20.617  0.00  0.00    +0.000 C 
ATOM     11  C   UNL     1      -0.228   9.762  20.275  0.00  0.00    +0.000 C 
ATOM     12  C   UNL     1      -0.115  10.650  19.026  0.00  0.00    +0.000 C 
ATOM     13  C   UNL     1       0.443   9.827  17.865  0.00  0.00    +0.000 C 
ATOM     14  C   UNL     1       1.709   9.063  18.237  0.00  0.00    +0.000 C 
BRANCH  12  15
ATOM     15  C   UNL     1       0.733  11.912  19.246  0.00  0.00    +0.000 C 
ATOM     16  O   UNL     1       1.928  11.923  18.947  0.00  0.00    +0.000 OA
ATOM     17  N   UNL     1       0.088  13.067  19.706  0.00  0.00    +0.000 N 
ATOM     18  C   UNL     1       0.817  14.334  19.601  0.00  0.00    +0.000 C 
ATOM     19  C   UNL     1       1.632  14.651  20.852  0.00  0.00    +0.000 C 
ATOM     20  C   UNL     1       0.799  15.152  22.030  0.00  0.00    +0.000 C 
ATOM     21  C   UNL     1      -0.331  14.220  22.456  0.00  0.00    +0.000 C 
ATOM     22  C   UNL     1      -1.451  14.137  21.418  0.00  0.00    +0.000 C 
ATOM     23  C   UNL     1      -1.219  13.069  20.349  0.00  0.00    +0.000 C 
ENDBRANCH  12  15
ENDBRANCH   3   7
BRANCH   1  25
ATOM     24  C   UNL     1       7.250   6.709  17.960  0.00  0.00    +0.000 C 
ATOM     25  O   UNL     1       6.209   6.611  16.990  0.00  0.00    +0.000 OA
ENDBRANCH   1  25
BRANCH   5  26
ATOM     26  O   UNL     1       2.874   2.995  17.528  0.00  0.00    +0.000 OA
ATOM     27  C   UNL     1       3.292   1.826  18.193  0.00  0.00    +0.000 C 
ENDBRANCH   5  26
BRANCH   6  28
ATOM     28  O   UNL     1       5.746   4.158  16.443  0.00  0.00    +0.000 OA
BRANCH  28  29
ATOM     29  C   UNL     1       5.444   3.535  15.222  0.00  0.00    +0.000 C 
BRANCH  29  30
ATOM     30  C   UNL     1       6.288   3.916  14.039  0.00  0.00    +0.000 A 
ATOM     31  C   UNL     1       6.060   3.372  12.774  0.00  0.00    +0.000 A 
ATOM     32  C   UNL     1       6.758   3.871  11.674  0.00  0.00    +0.000 A 
ATOM     33  C   UNL     1       7.672   4.910  11.831  0.00  0.00    +0.000 A 
ATOM     34  C   UNL     1       7.897   5.468  13.088  0.00  0.00    +0.000 A 
ATOM     35  C   UNL     1       7.201   4.977  14.185  0.00  0.00    +0.000 A 
ENDBRANCH  29  30
ENDBRANCH  28  29
ENDBRANCH   6  28
TORSDOF 7
ENDMDL
MODEL 5
REMARK VINA RESULT:      -7.5      0.991      2.582
REMARK  Name = 
REMARK  9 active torsions:
REMARK  status: ('A' for Active; 'I' for Inactive)
REMARK    1  A    between atoms: C_1  and  O_2
REMARK    2  A    between atoms: O_2  and  C_3
REMARK    3  A    between atoms: C_5  and  C_6
REMARK    4  A    between atoms: C_11  and  C_12
REMARK    5  A    between atoms: C_24  and  O_25
REMARK    6  A    between atoms: O_25  and  C_26
REMARK    7  A    between atoms: C_27  and  O_28
REMARK    8  A    between atoms: O_28  and  C_29
REMARK    9  A    between atoms: C_29  and  C_30
REMARK                            x       y       z     vdW  Elec       q    Type
REMARK                         _______ _______ _______ _____ _____    ______ ____
ROOT
ATOM      1  C   UNL     1       5.210   6.366  16.976  0.00  0.00    +0.000 A 
ATOM      2  C   UNL     1       4.320   7.010  17.840  0.00  0.00    +0.000 A 
ATOM      3  C   UNL     1       3.244   6.305  18.362  0.00  0.00    +0.000 A 
ATOM      4  C   UNL     1       2.967   5.033  17.865  0.00  0.00    +0.000 A 
ATOM      5  C   UNL     1       3.874   4.320  17.057  0.00  0.00    +0.000 A 
ATOM      6  C   UNL     1       5.024   4.998  16.598  0.00  0.00    +0.000 A 
ENDROOT
BRANCH   3   7
ATOM      7  C   UNL     1       2.464   6.883  19.481  0.00  0.00    +0.000 C 
ATOM      8  O   UNL     1       2.414   6.216  20.513  0.00  0.00    +0.000 OA
ATOM      9  N   UNL     1       1.767   8.096  19.320  0.00  0.00    +0.000 N 
ATOM     10  C   UNL     1       1.234   8.714  20.530  0.00  0.00    +0.000 C 
ATOM     11  C   UNL     1      -0.110   9.392  20.285  0.00  0.00    +0.000 C 
ATOM     12  C   UNL     1      -0.115  10.359  19.091  0.00  0.00    +0.000 C 
ATOM     13  C   UNL     1       0.451   9.651  17.860  0.00  0.00    +0.000 C 
ATOM     14  C   UNL     1       1.784   8.963  18.136  0.00  0.00    +0.000 C 
BRANCH  12  15
ATOM     15  C   UNL     1       0.649  11.665  19.357  0.00  0.00    +0.000 C 
ATOM     16  O   UNL     1       1.848  11.755  19.090  0.00  0.00    +0.000 OA
ATOM     17  N   UNL     1      -0.078  12.770  19.820  0.00  0.00    +0.000 N 
ATOM     18  C   UNL     1       0.574  14.080  19.758  0.00  0.00    +0.000 C 
ATOM     19  C   UNL     1       1.336  14.421  21.036  0.00  0.00    +0.000 C 
ATOM     20  C   UNL     1       0.444  14.847  22.201  0.00  0.00    +0.000 C 
ATOM     21  C   UNL     1      -0.637  13.839  22.579  0.00  0.00    +0.000 C 
ATOM     22  C   UNL     1      -1.723  13.710  21.510  0.00  0.00    +0.000 C 
ATOM     23  C   UNL     1      -1.399  12.679  20.428  0.00  0.00    +0.000 C 
ENDBRANCH  12  15
ENDBRANCH   3   7
BRANCH   1  25
ATOM     24  C   UNL     1       7.310   7.407  17.442  0.00  0.00    +0.000 C 
ATOM     25  O   UNL     1       6.331   7.004  16.487  0.00  0.00    +0.000 OA
ENDBRANCH   1  25
BRANCH   5  26
ATOM     26  O   UNL     1       3.453   3.023  17.089  0.00  0.00    +0.000 OA
ATOM     27  C   UNL     1       2.369   2.431  17.766  0.00  0.00    +0.000 C 
ENDBRANCH   5  26
BRANCH   6  28
ATOM     28  O   UNL     1       6.105   4.532  15.877  0.00  0.00    +0.000 OA
BRANCH  28  29
ATOM     29  C   UNL     1       6.217   5.029  14.569  0.00  0.00    +0.000 C 
BRANCH  29  30
ATOM     30  C   UNL     1       5.991   4.051  13.451  0.00  0.00    +0.000 A 
ATOM     31  C   UNL     1       4.709   3.764  12.979  0.00  0.00    +0.000 A 
ATOM     32  C   UNL     1       4.555   2.978  11.837  0.00  0.00    +0.000 A 
ATOM     33  C   UNL     1       5.671   2.486  11.164  0.00  0.00    +0.000 A 
ATOM     34  C   UNL     1       6.955   2.778  11.620  0.00  0.00    +0.000 A 
ATOM     35  C   UNL     1       7.112   3.564  12.754  0.00  0.00    +0.000 A 
ENDBRANCH  29  30
ENDBRANCH  28  29
ENDBRANCH   6  28
TORSDOF 7
ENDMDL
MODEL 6
REMARK VINA RESULT:      -7.4      1.807      2.586
REMARK  Name = 
REMARK  9 active torsions:
REMARK  status: ('A' for Active; 'I' for Inactive)
REMARK    1  A    between atoms: C_1  and  O_2
REMARK    2  A    between atoms: O_2  and  C_3
REMARK    3  A    between atoms: C_5  and  C_6
REMARK    4  A    between atoms: C_11  and  C_12
REMARK    5  A    between atoms: C_24  and  O_25
REMARK    6  A    between atoms: O_25  and  C_26
REMARK    7  A    between atoms: C_27  and  O_28
REMARK    8  A    between atoms: O_28  and  C_29
REMARK    9  A    between atoms: C_29  and  C_30
REMARK                            x       y       z     vdW  Elec       q    Type
REMARK                         _______ _______ _______ _____ _____    ______ ____
ROOT
ATOM      1  C   UNL     1       1.664   5.090  19.989  0.00  0.00    +0.000 A 
ATOM      2  C   UNL     1       1.367   6.146  20.855  0.00  0.00    +0.000 A 
ATOM      3  C   UNL     1       1.732   7.439  20.504  0.00  0.00    +0.000 A 
ATOM      4  C   UNL     1       2.551   7.631  19.394  0.00  0.00    +0.000 A 
ATOM      5  C   UNL     1       2.808   6.613  18.456  0.00  0.00    +0.000 A 
ATOM      6  C   UNL     1       2.356   5.309  18.756  0.00  0.00    +0.000 A 
ENDROOT
BRANCH   3   7
ATOM      7  C   UNL     1       1.184   8.585  21.268  0.00  0.00    +0.000 C 
ATOM      8  O   UNL     1       1.243   8.502  22.494  0.00  0.00    +0.000 OA
ATOM      9  N   UNL     1       0.570   9.663  20.603  0.00  0.00    +0.000 N 
ATOM     10  C   UNL     1       0.282  10.851  21.403  0.00  0.00    +0.000 C 
ATOM     11  C   UNL     1      -1.025  11.519  20.990  0.00  0.00    +0.000 C 
ATOM     12  C   UNL     1      -1.139  11.793  19.483  0.00  0.00    +0.000 C 
ATOM     13  C   UNL     1      -0.830  10.513  18.706  0.00  0.00    +0.000 C 
ATOM     14  C   UNL     1       0.470   9.853  19.151  0.00  0.00    +0.000 C 
BRANCH  12  15
ATOM     15  C   UNL     1      -0.243  12.943  18.999  0.00  0.00    +0.000 C 
ATOM     16  O   UNL     1       0.726  12.719  18.272  0.00  0.00    +0.000 OA
ATOM     17  N   UNL     1      -0.614  14.253  19.333  0.00  0.00    +0.000 N 
ATOM     18  C   UNL     1       0.041  15.344  18.608  0.00  0.00    +0.000 C 
ATOM     19  C   UNL     1       1.305  15.842  19.306  0.00  0.00    +0.000 C 
ATOM     20  C   UNL     1       1.039  16.723  20.526  0.00  0.00    +0.000 C 
ATOM     21  C   UNL     1       0.157  16.084  21.595  0.00  0.00    +0.000 C 
ATOM     22  C   UNL     1      -1.291  15.906  21.137  0.00  0.00    +0.000 C 
ATOM     23  C   UNL     1      -1.544  14.589  20.403  0.00  0.00    +0.000 C 
ENDBRANCH  12  15
ENDBRANCH   3   7
BRANCH   1  25
ATOM     24  C   UNL     1       1.790   3.194  21.438  0.00  0.00    +0.000 C 
ATOM     25  O   UNL     1       1.261   3.799  20.261  0.00  0.00    +0.000 OA
ENDBRANCH   1  25
BRANCH   5  26
ATOM     26  O   UNL     1       3.300   7.245  17.353  0.00  0.00    +0.000 OA
ATOM     27  C   UNL     1       4.629   7.524  16.976  0.00  0.00    +0.000 C 
ENDBRANCH   5  26
BRANCH   6  28
ATOM     28  O   UNL     1       2.392   4.156  17.997  0.00  0.00    +0.000 OA
BRANCH  28  29
ATOM     29  C   UNL     1       3.573   3.405  18.096  0.00  0.00    +0.000 C 
BRANCH  29  30
ATOM     30  C   UNL     1       4.794   3.970  17.426  0.00  0.00    +0.000 A 
ATOM     31  C   UNL     1       5.931   4.319  18.157  0.00  0.00    +0.000 A 
ATOM     32  C   UNL     1       7.096   4.685  17.483  0.00  0.00    +0.000 A 
ATOM     33  C   UNL     1       7.132   4.697  16.091  0.00  0.00    +0.000 A 
ATOM     34  C   UNL     1       6.006   4.337  15.353  0.00  0.00    +0.000 A 
ATOM     35  C   UNL     1       4.845   3.968  16.020  0.00  0.00    +0.000 A 
ENDBRANCH  29  30
ENDBRANCH  28  29
ENDBRANCH   6  28
TORSDOF 7
ENDMDL
MODEL 7
REMARK VINA RESULT:      -7.3      2.208      3.648
REMARK  Name = 
REMARK  9 active torsions:
REMARK  status: ('A' for Active; 'I' for Inactive)
REMARK    1  A    between atoms: C_1  and  O_2
REMARK    2  A    between atoms: O_2  and  C_3
REMARK    3  A    between atoms: C_5  and  C_6
REMARK    4  A    between atoms: C_11  and  C_12
REMARK    5  A    between atoms: C_24  and  O_25
REMARK    6  A    between atoms: O_25  and  C_26
REMARK    7  A    between atoms: C_27  and  O_28
REMARK    8  A    between atoms: O_28  and  C_29
REMARK    9  A    between atoms: C_29  and  C_30
REMARK                            x       y       z     vdW  Elec       q    Type
REMARK                         _______ _______ _______ _____ _____    ______ ____
ROOT
ATOM      1  C   UNL     1       2.633   6.444  18.448  0.00  0.00    +0.000 A 
ATOM      2  C   UNL     1       2.208   7.605  19.100  0.00  0.00    +0.000 A 
ATOM      3  C   UNL     1       1.605   7.505  20.347  0.00  0.00    +0.000 A 
ATOM      4  C   UNL     1       1.265   6.245  20.833  0.00  0.00    +0.000 A 
ATOM      5  C   UNL     1       1.740   5.054  20.250  0.00  0.00    +0.000 A 
ATOM      6  C   UNL     1       2.441   5.150  19.028  0.00  0.00    +0.000 A 
ENDROOT
BRANCH   3   7
ATOM      7  C   UNL     1       1.407   8.727  21.162  0.00  0.00    +0.000 C 
ATOM      8  O   UNL     1       1.818   8.682  22.321  0.00  0.00    +0.000 OA
ATOM      9  N   UNL     1       0.716   9.835  20.638  0.00  0.00    +0.000 N 
ATOM     10  C   UNL     1       0.778  11.074  21.410  0.00  0.00    +0.000 C 
ATOM     11  C   UNL     1      -0.531  11.853  21.353  0.00  0.00    +0.000 C 
ATOM     12  C   UNL     1      -1.062  12.083  19.930  0.00  0.00    +0.000 C 
ATOM     13  C   UNL     1      -1.105  10.752  19.180  0.00  0.00    +0.000 C 
ATOM     14  C   UNL     1       0.208   9.982  19.269  0.00  0.00    +0.000 C 
BRANCH  12  15
ATOM     15  C   UNL     1      -0.255  13.121  19.135  0.00  0.00    +0.000 C 
ATOM     16  O   UNL     1       0.578  12.761  18.301  0.00  0.00    +0.000 OA
ATOM     17  N   UNL     1      -0.561  14.476  19.320  0.00  0.00    +0.000 N 
ATOM     18  C   UNL     1      -0.032  15.426  18.339  0.00  0.00    +0.000 C 
ATOM     19  C   UNL     1       1.332  15.986  18.735  0.00  0.00    +0.000 C 
ATOM     20  C   UNL     1       1.276  17.048  19.831  0.00  0.00    +0.000 C 
ATOM     21  C   UNL     1       0.583  16.604  21.116  0.00  0.00    +0.000 C 
ATOM     22  C   UNL     1      -0.921  16.401  20.935  0.00  0.00    +0.000 C 
ATOM     23  C   UNL     1      -1.298  14.996  20.464  0.00  0.00    +0.000 C 
ENDBRANCH  12  15
ENDBRANCH   3   7
BRANCH   1  25
ATOM     24  C   UNL     1       4.376   7.425  17.139  0.00  0.00    +0.000 C 
ATOM     25  O   UNL     1       3.298   6.497  17.240  0.00  0.00    +0.000 OA
ENDBRANCH   1  25
BRANCH   5  26
ATOM     26  O   UNL     1       1.535   4.081  21.182  0.00  0.00    +0.000 OA
ATOM     27  C   UNL     1       1.455   2.681  21.041  0.00  0.00    +0.000 C 
ENDBRANCH   5  26
BRANCH   6  28
ATOM     28  O   UNL     1       3.081   4.176  18.288  0.00  0.00    +0.000 OA
BRANCH  28  29
ATOM     29  C   UNL     1       4.254   3.657  18.859  0.00  0.00    +0.000 C 
BRANCH  29  30
ATOM     30  C   UNL     1       5.550   4.282  18.428  0.00  0.00    +0.000 A 
ATOM     31  C   UNL     1       6.015   4.168  17.116  0.00  0.00    +0.000 A 
ATOM     32  C   UNL     1       7.137   4.895  16.718  0.00  0.00    +0.000 A 
ATOM     33  C   UNL     1       7.787   5.737  17.617  0.00  0.00    +0.000 A 
ATOM     34  C   UNL     1       7.323   5.867  18.924  0.00  0.00    +0.000 A 
ATOM     35  C   UNL     1       6.204   5.148  19.323  0.00  0.00    +0.000 A 
ENDBRANCH  29  30
ENDBRANCH  28  29
ENDBRANCH   6  28
TORSDOF 7
ENDMDL
MODEL 8
REMARK VINA RESULT:      -7.2      1.151      2.593
REMARK  Name = 
REMARK  9 active torsions:
REMARK  status: ('A' for Active; 'I' for Inactive)
REMARK    1  A    between atoms: C_1  and  O_2
REMARK    2  A    between atoms: O_2  and  C_3
REMARK    3  A    between atoms: C_5  and  C_6
REMARK    4  A    between atoms: C_11  and  C_12
REMARK    5  A    between atoms: C_24  and  O_25
REMARK    6  A    between atoms: O_25  and  C_26
REMARK    7  A    between atoms: C_27  and  O_28
REMARK    8  A    between atoms: O_28  and  C_29
REMARK    9  A    between atoms: C_29  and  C_30
REMARK                            x       y       z     vdW  Elec       q    Type
REMARK                         _______ _______ _______ _____ _____    ______ ____
ROOT
ATOM      1  C   UNL     1       4.875   6.085  17.064  0.00  0.00    +0.000 A 
ATOM      2  C   UNL     1       4.101   6.697  18.054  0.00  0.00    +0.000 A 
ATOM      3  C   UNL     1       2.970   6.049  18.534  0.00  0.00    +0.000 A 
ATOM      4  C   UNL     1       2.527   4.898  17.887  0.00  0.00    +0.000 A 
ATOM      5  C   UNL     1       3.313   4.209  16.942  0.00  0.00    +0.000 A 
ATOM      6  C   UNL     1       4.517   4.812  16.517  0.00  0.00    +0.000 A 
ENDROOT
BRANCH   3   7
ATOM      7  C   UNL     1       2.307   6.549  19.761  0.00  0.00    +0.000 C 
ATOM      8  O   UNL     1       2.224   5.755  20.697  0.00  0.00    +0.000 OA
ATOM      9  N   UNL     1       1.747   7.839  19.800  0.00  0.00    +0.000 N 
ATOM     10  C   UNL     1       1.336   8.338  21.109  0.00  0.00    +0.000 C 
ATOM     11  C   UNL     1       0.069   9.184  21.031  0.00  0.00    +0.000 C 
ATOM     12  C   UNL     1       0.126  10.300  19.977  0.00  0.00    +0.000 C 
ATOM     13  C   UNL     1       0.557   9.712  18.634  0.00  0.00    +0.000 C 
ATOM     14  C   UNL     1       1.813   8.854  18.742  0.00  0.00    +0.000 C 
BRANCH  12  15
ATOM     15  C   UNL     1       1.042  11.469  20.370  0.00  0.00    +0.000 C 
ATOM     16  O   UNL     1       1.816  11.365  21.322  0.00  0.00    +0.000 OA
ATOM     17  N   UNL     1       1.036  12.612  19.560  0.00  0.00    +0.000 N 
ATOM     18  C   UNL     1       2.127  13.572  19.739  0.00  0.00    +0.000 C 
ATOM     19  C   UNL     1       1.797  14.657  20.761  0.00  0.00    +0.000 C 
ATOM     20  C   UNL     1       0.847  15.735  20.242  0.00  0.00    +0.000 C 
ATOM     21  C   UNL     1      -0.479  15.210  19.700  0.00  0.00    +0.000 C 
ATOM     22  C   UNL     1      -0.315  14.421  18.400  0.00  0.00    +0.000 C 
ATOM     23  C   UNL     1      -0.026  12.936  18.616  0.00  0.00    +0.000 C 
ENDBRANCH  12  15
ENDBRANCH   3   7
BRANCH   1  25
ATOM     24  C   UNL     1       6.802   7.415  17.546  0.00  0.00    +0.000 C 
ATOM     25  O   UNL     1       6.044   6.657  16.606  0.00  0.00    +0.000 OA
ENDBRANCH   1  25
BRANCH   5  26
ATOM     26  O   UNL     1       2.745   2.975  16.822  0.00  0.00    +0.000 OA
ATOM     27  C   UNL     1       2.284   2.081  17.810  0.00  0.00    +0.000 C 
ENDBRANCH   5  26
BRANCH   6  28
ATOM     28  O   UNL     1       5.507   4.335  15.682  0.00  0.00    +0.000 OA
BRANCH  28  29
ATOM     29  C   UNL     1       5.623   4.992  14.447  0.00  0.00    +0.000 C 
BRANCH  29  30
ATOM     30  C   UNL     1       5.780   4.124  13.231  0.00  0.00    +0.000 A 
ATOM     31  C   UNL     1       7.037   3.709  12.787  0.00  0.00    +0.000 A 
ATOM     32  C   UNL     1       7.129   2.776  11.754  0.00  0.00    +0.000 A 
ATOM     33  C   UNL     1       5.978   2.253  11.172  0.00  0.00    +0.000 A 
ATOM     34  C   UNL     1       4.718   2.651  11.617  0.00  0.00    +0.000 A 
ATOM     35  C   UNL     1       4.623   3.577  12.648  0.00  0.00    +0.000 A 
ENDBRANCH  29  30
ENDBRANCH  28  29
ENDBRANCH   6  28
TORSDOF 7
ENDMDL
MODEL 9
REMARK VINA RESULT:      -7.1      1.428      2.288
REMARK  Name = 
REMARK  9 active torsions:
REMARK  status: ('A' for Active; 'I' for Inactive)
REMARK    1  A    between atoms: C_1  and  O_2
REMARK    2  A    between atoms: O_2  and  C_3
REMARK    3  A    between atoms: C_5  and  C_6
REMARK    4  A    between atoms: C_11  and  C_12
REMARK    5  A    between atoms: C_24  and  O_25
REMARK    6  A    between atoms: O_25  and  C_26
REMARK    7  A    between atoms: C_27  and  O_28
REMARK    8  A    between atoms: O_28  and  C_29
REMARK    9  A    between atoms: C_29  and  C_30
REMARK                            x       y       z     vdW  Elec       q    Type
REMARK                         _______ _______ _______ _____ _____    ______ ____
ROOT
ATOM      1  C   UNL     1       4.631   6.400  17.515  0.00  0.00    +0.000 A 
ATOM      2  C   UNL     1       3.508   6.822  18.233  0.00  0.00    +0.000 A 
ATOM      3  C   UNL     1       3.026   6.035  19.270  0.00  0.00    +0.000 A 
ATOM      4  C   UNL     1       3.551   4.757  19.446  0.00  0.00    +0.000 A 
ATOM      5  C   UNL     1       4.726   4.324  18.801  0.00  0.00    +0.000 A 
ATOM      6  C   UNL     1       5.284   5.161  17.811  0.00  0.00    +0.000 A 
ENDROOT
BRANCH   3   7
ATOM      7  C   UNL     1       2.023   6.594  20.207  0.00  0.00    +0.000 C 
ATOM      8  O   UNL     1       1.579   5.821  21.055  0.00  0.00    +0.000 OA
ATOM      9  N   UNL     1       1.568   7.918  20.065  0.00  0.00    +0.000 N 
ATOM     10  C   UNL     1       0.775   8.462  21.163  0.00  0.00    +0.000 C 
ATOM     11  C   UNL     1      -0.334   9.386  20.670  0.00  0.00    +0.000 C 
ATOM     12  C   UNL     1       0.146  10.480  19.705  0.00  0.00    +0.000 C 
ATOM     13  C   UNL     1       0.964   9.845  18.580  0.00  0.00    +0.000 C 
ATOM     14  C   UNL     1       2.052   8.911  19.097  0.00  0.00    +0.000 C 
BRANCH  12  15
ATOM     15  C   UNL     1       0.951  11.594  20.391  0.00  0.00    +0.000 C 
ATOM     16  O   UNL     1       1.573  11.368  21.430  0.00  0.00    +0.000 OA
ATOM     17  N   UNL     1       1.032  12.838  19.752  0.00  0.00    +0.000 N 
ATOM     18  C   UNL     1       2.050  13.776  20.229  0.00  0.00    +0.000 C 
ATOM     19  C   UNL     1       1.531  14.706  21.323  0.00  0.00    +0.000 C 
ATOM     20  C   UNL     1       0.637  15.834  20.812  0.00  0.00    +0.000 C 
ATOM     21  C   UNL     1      -0.572  15.374  20.002  0.00  0.00    +0.000 C 
ATOM     22  C   UNL     1      -0.184  14.775  18.649  0.00  0.00    +0.000 C 
ATOM     23  C   UNL     1       0.118  13.277  18.706  0.00  0.00    +0.000 C 
ENDBRANCH  12  15
ENDBRANCH   3   7
BRANCH   1  25
ATOM     24  C   UNL     1       4.637   7.049  15.215  0.00  0.00    +0.000 C 
ATOM     25  O   UNL     1       5.189   7.180  16.523  0.00  0.00    +0.000 OA
ENDBRANCH   1  25
BRANCH   5  26
ATOM     26  O   UNL     1       5.134   3.217  19.486  0.00  0.00    +0.000 OA
ATOM     27  C   UNL     1       4.400   2.108  19.950  0.00  0.00    +0.000 C 
ENDBRANCH   5  26
BRANCH   6  28
ATOM     28  O   UNL     1       6.454   5.034  17.091  0.00  0.00    +0.000 OA
BRANCH  28  29
ATOM     29  C   UNL     1       6.507   3.939  16.214  0.00  0.00    +0.000 C 
BRANCH  29  30
ATOM     30  C   UNL     1       6.672   4.248  14.753  0.00  0.00    +0.000 A 
ATOM     31  C   UNL     1       7.664   5.119  14.299  0.00  0.00    +0.000 A 
ATOM     32  C   UNL     1       7.888   5.253  12.928  0.00  0.00    +0.000 A 
ATOM     33  C   UNL     1       7.135   4.519  12.016  0.00  0.00    +0.000 A 
ATOM     34  C   UNL     1       6.152   3.637  12.460  0.00  0.00    +0.000 A 
ATOM     35  C   UNL     1       5.929   3.497  13.824  0.00  0.00    +0.000 A 
ENDBRANCH  29  30
ENDBRANCH  28  29
ENDBRANCH   6  28
TORSDOF 7
ENDMDL
