MODEL 1
REMARK VINA RESULT:      -7.5      0.000      0.000
REMARK  Name = 
REMARK  7 active torsions:
REMARK  status: ('A' for Active; 'I' for Inactive)
REMARK    1  A    between atoms: C_1  and  N_2
REMARK    2  A    between atoms: N_2  and  C_3
REMARK    3  A    between atoms: C_3  and  C_4
REMARK    4  A    between atoms: N_7  and  C_8
REMARK    5  A    between atoms: C_17  and  C_18
REMARK    6  A    between atoms: C_18  and  C_19
REMARK    7  A    between atoms: C_19  and  N_20
REMARK                            x       y       z     vdW  Elec       q    Type
REMARK                         _______ _______ _______ _____ _____    ______ ____
ROOT
ATOM      1  C   UNL     1       4.310   3.265  19.796  0.00  0.00    +0.000 C 
ATOM      2  N   UNL     1       4.234   3.698  18.407  0.00  0.00    +0.000 N 
ATOM      3  C   UNL     1       5.429   4.096  17.806  0.00  0.00    +0.000 A 
ATOM      4  C   UNL     1       5.525   4.136  16.423  0.00  0.00    +0.000 A 
ATOM      5  C   UNL     1       6.707   4.577  15.858  0.00  0.00    +0.000 A 
ATOM      6  N   UNL     1       7.763   4.946  16.607  0.00  0.00    +0.000 NA
ATOM      7  C   UNL     1       7.594   4.856  17.931  0.00  0.00    +0.000 A 
ATOM      8  N   UNL     1       6.487   4.429  18.565  0.00  0.00    +0.000 NA
ENDROOT
BRANCH   2   9
ATOM      9  C   UNL     1       3.007   4.365  17.963  0.00  0.00    +0.000 C 
BRANCH   9  10
ATOM     10  C   UNL     1       2.783   5.795  18.337  0.00  0.00    +0.000 A 
ATOM     11  C   UNL     1       3.215   6.959  17.667  0.00  0.00    +0.000 A 
ATOM     12  N   UNL     1       2.757   8.082  18.223  0.00  0.00    +0.000 NA
ATOM     13  N   UNL     1       2.053   7.666  19.308  0.00  0.00    +0.000 N 
ATOM     14  C   UNL     1       2.055   6.287  19.398  0.00  0.00    +0.000 A 
BRANCH  13  15
ATOM     15  C   UNL     1       1.412   8.593  20.178  0.00  0.00    +0.000 A 
ATOM     16  C   UNL     1       0.948   9.819  19.678  0.00  0.00    +0.000 A 
ATOM     17  C   UNL     1       0.326  10.735  20.532  0.00  0.00    +0.000 A 
ATOM     18  C   UNL     1       0.170  10.436  21.885  0.00  0.00    +0.000 A 
ATOM     19  C   UNL     1       0.624   9.219  22.387  0.00  0.00    +0.000 A 
ATOM     20  C   UNL     1       1.239   8.296  21.538  0.00  0.00    +0.000 A 
ENDBRANCH  13  15
ENDBRANCH   9  10
ENDBRANCH   2   9
BRANCH   5  21
ATOM     21  C   UNL     1       6.846   4.640  14.360  0.00  0.00    +0.000 C 
BRANCH  21  22
ATOM     22  C   UNL     1       5.729   3.870  13.654  0.00  0.00    +0.000 C 
BRANCH  22  23
ATOM     23  N   UNL     1       6.266   3.044  12.570  0.00  0.00    +0.000 NA
ATOM     24  H   UNL     1       7.258   3.238  12.443  0.00  0.00    +0.000 HD
ATOM     25  H   UNL     1       5.809   3.301  11.695  0.00  0.00    +0.000 HD
ENDBRANCH  22  23
ENDBRANCH  21  22
ENDBRANCH   5  21
TORSDOF 6
ENDMDL
MODEL 2
REMARK VINA RESULT:      -7.4      0.208      1.029
REMARK  Name = 
REMARK  7 active torsions:
REMARK  status: ('A' for Active; 'I' for Inactive)
REMARK    1  A    between atoms: C_1  and  N_2
REMARK    2  A    between atoms: N_2  and  C_3
REMARK    3  A    between atoms: C_3  and  C_4
REMARK    4  A    between atoms: N_7  and  C_8
REMARK    5  A    between atoms: C_17  and  C_18
REMARK    6  A    between atoms: C_18  and  C_19
REMARK    7  A    between atoms: C_19  and  N_20
REMARK                            x       y       z     vdW  Elec       q    Type
REMARK                         _______ _______ _______ _____ _____    ______ ____
ROOT
ATOM      1  C   UNL     1       4.003   3.474  19.734  0.00  0.00    +0.000 C 
ATOM      2  N   UNL     1       4.039   3.877  18.334  0.00  0.00    +0.000 N 
ATOM      3  C   UNL     1       5.293   4.169  17.795  0.00  0.00    +0.000 A 
ATOM      4  C   UNL     1       5.469   4.167  16.420  0.00  0.00    +0.000 A 
ATOM      5  C   UNL     1       6.712   4.504  15.916  0.00  0.00    +0.000 A 
ATOM      6  N   UNL     1       7.748   4.813  16.718  0.00  0.00    +0.000 NA
ATOM      7  C   UNL     1       7.498   4.769  18.031  0.00  0.00    +0.000 A 
ATOM      8  N   UNL     1       6.328   4.442  18.608  0.00  0.00    +0.000 NA
ENDROOT
BRANCH   2   9
ATOM      9  C   UNL     1       2.893   4.622  17.805  0.00  0.00    +0.000 C 
BRANCH   9  10
ATOM     10  C   UNL     1       2.682   6.035  18.244  0.00  0.00    +0.000 A 
ATOM     11  C   UNL     1       3.129   7.224  17.630  0.00  0.00    +0.000 A 
ATOM     12  N   UNL     1       2.680   8.325  18.236  0.00  0.00    +0.000 NA
ATOM     13  N   UNL     1       1.968   7.867  19.298  0.00  0.00    +0.000 N 
ATOM     14  C   UNL     1       1.955   6.486  19.324  0.00  0.00    +0.000 A 
BRANCH  13  15
ATOM     15  C   UNL     1       1.333   8.759  20.209  0.00  0.00    +0.000 A 
ATOM     16  C   UNL     1       1.175   8.394  21.555  0.00  0.00    +0.000 A 
ATOM     17  C   UNL     1       0.544   9.263  22.448  0.00  0.00    +0.000 A 
ATOM     18  C   UNL     1       0.064  10.496  22.006  0.00  0.00    +0.000 A 
ATOM     19  C   UNL     1       0.222  10.867  20.673  0.00  0.00    +0.000 A 
ATOM     20  C   UNL     1       0.858  10.006  19.776  0.00  0.00    +0.000 A 
ENDBRANCH  13  15
ENDBRANCH   9  10
ENDBRANCH   2   9
BRANCH   5  21
ATOM     21  C   UNL     1       6.939   4.520  14.427  0.00  0.00    +0.000 C 
BRANCH  21  22
ATOM     22  C   UNL     1       5.781   3.869  13.670  0.00  0.00    +0.000 C 
BRANCH  22  23
ATOM     23  N   UNL     1       6.268   3.120  12.509  0.00  0.00    +0.000 NA
ATOM     24  H   UNL     1       6.946   3.679  11.993  0.00  0.00    +0.000 HD
ATOM     25  H   UNL     1       5.492   2.948  11.871  0.00  0.00    +0.000 HD
ENDBRANCH  22  23
ENDBRANCH  21  22
ENDBRANCH   5  21
TORSDOF 6
ENDMDL
MODEL 3
REMARK VINA RESULT:      -7.2      1.365      1.963
REMARK  Name = 
REMARK  7 active torsions:
REMARK  status: ('A' for Active; 'I' for Inactive)
REMARK    1  A    between atoms: C_1  and  N_2
REMARK    2  A    between atoms: N_2  and  C_3
REMARK    3  A    between atoms: C_3  and  C_4
REMARK    4  A    between atoms: N_7  and  C_8
REMARK    5  A    between atoms: C_17  and  C_18
REMARK    6  A    between atoms: C_18  and  C_19
REMARK    7  A    between atoms: C_19  and  N_20
REMARK                            x       y       z     vdW  Elec       q    Type
REMARK                         _______ _______ _______ _____ _____    ______ ____
ROOT
ATOM      1  C   UNL     1       4.578   2.321  20.216  0.00  0.00    +0.000 C 
ATOM      2  N   UNL     1       4.142   2.937  18.969  0.00  0.00    +0.000 N 
ATOM      3  C   UNL     1       5.075   3.729  18.298  0.00  0.00    +0.000 A 
ATOM      4  C   UNL     1       4.896   4.015  16.954  0.00  0.00    +0.000 A 
ATOM      5  C   UNL     1       5.813   4.839  16.329  0.00  0.00    +0.000 A 
ATOM      6  N   UNL     1       6.874   5.350  16.980  0.00  0.00    +0.000 NA
ATOM      7  C   UNL     1       6.984   5.007  18.268  0.00  0.00    +0.000 A 
ATOM      8  N   UNL     1       6.148   4.206  18.952  0.00  0.00    +0.000 NA
ENDROOT
BRANCH   2   9
ATOM      9  C   UNL     1       2.731   3.315  18.848  0.00  0.00    +0.000 C 
BRANCH   9  10
ATOM     10  C   UNL     1       2.290   4.642  19.378  0.00  0.00    +0.000 A 
ATOM     11  C   UNL     1       1.893   4.979  20.688  0.00  0.00    +0.000 A 
ATOM     12  N   UNL     1       1.652   6.283  20.842  0.00  0.00    +0.000 NA
ATOM     13  N   UNL     1       1.840   6.814  19.607  0.00  0.00    +0.000 N 
ATOM     14  C   UNL     1       2.226   5.842  18.704  0.00  0.00    +0.000 A 
BRANCH  13  15
ATOM     15  C   UNL     1       1.661   8.205  19.361  0.00  0.00    +0.000 A 
ATOM     16  C   UNL     1       2.064   8.760  18.136  0.00  0.00    +0.000 A 
ATOM     17  C   UNL     1       1.897  10.126  17.895  0.00  0.00    +0.000 A 
ATOM     18  C   UNL     1       1.334  10.946  18.873  0.00  0.00    +0.000 A 
ATOM     19  C   UNL     1       0.928  10.402  20.088  0.00  0.00    +0.000 A 
ATOM     20  C   UNL     1       1.084   9.036  20.333  0.00  0.00    +0.000 A 
ENDBRANCH  13  15
ENDBRANCH   9  10
ENDBRANCH   2   9
BRANCH   5  21
ATOM     21  C   UNL     1       5.648   5.177  14.871  0.00  0.00    +0.000 C 
BRANCH  21  22
ATOM     22  C   UNL     1       6.801   4.632  14.028  0.00  0.00    +0.000 C 
BRANCH  22  23
ATOM     23  N   UNL     1       7.962   5.524  14.087  0.00  0.00    +0.000 NA
ATOM     24  H   UNL     1       7.710   6.392  14.557  0.00  0.00    +0.000 HD
ATOM     25  H   UNL     1       8.236   5.780  13.139  0.00  0.00    +0.000 HD
ENDBRANCH  22  23
ENDBRANCH  21  22
ENDBRANCH   5  21
TORSDOF 6
ENDMDL
MODEL 4
REMARK VINA RESULT:      -7.2      1.581      2.765
REMARK  Name = 
REMARK  7 active torsions:
REMARK  status: ('A' for Active; 'I' for Inactive)
REMARK    1  A    between atoms: C_1  and  N_2
REMARK    2  A    between atoms: N_2  and  C_3
REMARK    3  A    between atoms: C_3  and  C_4
REMARK    4  A    between atoms: N_7  and  C_8
REMARK    5  A    between atoms: C_17  and  C_18
REMARK    6  A    between atoms: C_18  and  C_19
REMARK    7  A    between atoms: C_19  and  N_20
REMARK                            x       y       z     vdW  Elec       q    Type
REMARK                         _______ _______ _______ _____ _____    ______ ____
ROOT
ATOM      1  C   UNL     1       7.362   4.775  17.355  0.00  0.00    +0.000 C 
ATOM      2  N   UNL     1       6.370   4.220  16.444  0.00  0.00    +0.000 N 
ATOM      3  C   UNL     1       6.652   4.301  15.080  0.00  0.00    +0.000 A 
ATOM      4  C   UNL     1       5.990   3.471  14.188  0.00  0.00    +0.000 A 
ATOM      5  C   UNL     1       6.259   3.607  12.839  0.00  0.00    +0.000 A 
ATOM      6  N   UNL     1       7.152   4.502  12.375  0.00  0.00    +0.000 NA
ATOM      7  C   UNL     1       7.762   5.247  13.303  0.00  0.00    +0.000 A 
ATOM      8  N   UNL     1       7.571   5.175  14.633  0.00  0.00    +0.000 NA
ENDROOT
BRANCH   2   9
ATOM      9  C   UNL     1       4.961   4.287  16.841  0.00  0.00    +0.000 C 
BRANCH   9  10
ATOM     10  C   UNL     1       4.386   5.605  17.251  0.00  0.00    +0.000 A 
ATOM     11  C   UNL     1       4.633   6.881  16.704  0.00  0.00    +0.000 A 
ATOM     12  N   UNL     1       3.876   7.837  17.247  0.00  0.00    +0.000 NA
ATOM     13  N   UNL     1       3.151   7.199  18.203  0.00  0.00    +0.000 N 
ATOM     14  C   UNL     1       3.443   5.849  18.225  0.00  0.00    +0.000 A 
BRANCH  13  15
ATOM     15  C   UNL     1       2.221   7.901  19.022  0.00  0.00    +0.000 A 
ATOM     16  C   UNL     1       1.575   9.045  18.529  0.00  0.00    +0.000 A 
ATOM     17  C   UNL     1       0.668   9.741  19.333  0.00  0.00    +0.000 A 
ATOM     18  C   UNL     1       0.406   9.304  20.631  0.00  0.00    +0.000 A 
ATOM     19  C   UNL     1       1.039   8.167  21.125  0.00  0.00    +0.000 A 
ATOM     20  C   UNL     1       1.941   7.462  20.324  0.00  0.00    +0.000 A 
ENDBRANCH  13  15
ENDBRANCH   9  10
ENDBRANCH   2   9
BRANCH   5  21
ATOM     21  C   UNL     1       5.554   2.728  11.840  0.00  0.00    +0.000 C 
BRANCH  21  22
ATOM     22  C   UNL     1       6.521   1.764  11.152  0.00  0.00    +0.000 C 
BRANCH  22  23
ATOM     23  N   UNL     1       6.162   0.371  11.434  0.00  0.00    +0.000 NA
ATOM     24  H   UNL     1       5.963  -0.120  10.563  0.00  0.00    +0.000 HD
ATOM     25  H   UNL     1       5.300   0.351  11.978  0.00  0.00    +0.000 HD
ENDBRANCH  22  23
ENDBRANCH  21  22
ENDBRANCH   5  21
TORSDOF 6
ENDMDL
MODEL 5
REMARK VINA RESULT:      -7.1      2.485      4.462
REMARK  Name = 
REMARK  7 active torsions:
REMARK  status: ('A' for Active; 'I' for Inactive)
REMARK    1  A    between atoms: C_1  and  N_2
REMARK    2  A    between atoms: N_2  and  C_3
REMARK    3  A    between atoms: C_3  and  C_4
REMARK    4  A    between atoms: N_7  and  C_8
REMARK    5  A    between atoms: C_17  and  C_18
REMARK    6  A    between atoms: C_18  and  C_19
REMARK    7  A    between atoms: C_19  and  N_20
REMARK                            x       y       z     vdW  Elec       q    Type
REMARK                         _______ _______ _______ _____ _____    ______ ____
ROOT
ATOM      1  C   UNL     1       5.406   6.534  17.671  0.00  0.00    +0.000 C 
ATOM      2  N   UNL     1       4.022   6.253  18.035  0.00  0.00    +0.000 N 
ATOM      3  C   UNL     1       3.714   4.933  18.368  0.00  0.00    +0.000 A 
ATOM      4  C   UNL     1       2.565   4.655  19.091  0.00  0.00    +0.000 A 
ATOM      5  C   UNL     1       2.264   3.335  19.367  0.00  0.00    +0.000 A 
ATOM      6  N   UNL     1       3.060   2.323  18.971  0.00  0.00    +0.000 NA
ATOM      7  C   UNL     1       4.159   2.680  18.298  0.00  0.00    +0.000 A 
ATOM      8  N   UNL     1       4.535   3.936  17.996  0.00  0.00    +0.000 NA
ENDROOT
BRANCH   2   9
ATOM      9  C   UNL     1       2.971   7.044  17.390  0.00  0.00    +0.000 C 
BRANCH   9  10
ATOM     10  C   UNL     1       2.348   8.173  18.147  0.00  0.00    +0.000 A 
ATOM     11  C   UNL     1       2.173   9.514  17.744  0.00  0.00    +0.000 A 
ATOM     12  N   UNL     1       1.488  10.240  18.628  0.00  0.00    +0.000 NA
ATOM     13  N   UNL     1       1.246   9.388  19.658  0.00  0.00    +0.000 N 
ATOM     14  C   UNL     1       1.757   8.133  19.391  0.00  0.00    +0.000 A 
BRANCH  13  15
ATOM     15  C   UNL     1       0.537   9.808  20.820  0.00  0.00    +0.000 A 
ATOM     16  C   UNL     1       0.277   8.894  21.853  0.00  0.00    +0.000 A 
ATOM     17  C   UNL     1      -0.426   9.301  22.990  0.00  0.00    +0.000 A 
ATOM     18  C   UNL     1      -0.879  10.616  23.100  0.00  0.00    +0.000 A 
ATOM     19  C   UNL     1      -0.620  11.529  22.081  0.00  0.00    +0.000 A 
ATOM     20  C   UNL     1       0.089  11.132  20.946  0.00  0.00    +0.000 A 
ENDBRANCH  13  15
ENDBRANCH   9  10
ENDBRANCH   2   9
BRANCH   5  21
ATOM     21  C   UNL     1       1.021   2.994  20.144  0.00  0.00    +0.000 C 
BRANCH  21  22
ATOM     22  C   UNL     1       1.302   2.880  21.643  0.00  0.00    +0.000 C 
BRANCH  22  23
ATOM     23  N   UNL     1       2.714   2.576  21.890  0.00  0.00    +0.000 NA
ATOM     24  H   UNL     1       3.038   1.869  21.231  0.00  0.00    +0.000 HD
ATOM     25  H   UNL     1       2.812   2.169  22.819  0.00  0.00    +0.000 HD
ENDBRANCH  22  23
ENDBRANCH  21  22
ENDBRANCH   5  21
TORSDOF 6
ENDMDL
MODEL 6
REMARK VINA RESULT:      -7.1      0.936      1.561
REMARK  Name = 
REMARK  7 active torsions:
REMARK  status: ('A' for Active; 'I' for Inactive)
REMARK    1  A    between atoms: C_1  and  N_2
REMARK    2  A    between atoms: N_2  and  C_3
REMARK    3  A    between atoms: C_3  and  C_4
REMARK    4  A    between atoms: N_7  and  C_8
REMARK    5  A    between atoms: C_17  and  C_18
REMARK    6  A    between atoms: C_18  and  C_19
REMARK    7  A    between atoms: C_19  and  N_20
REMARK                            x       y       z     vdW  Elec       q    Type
REMARK                         _______ _______ _______ _____ _____    ______ ____
ROOT
ATOM      1  C   UNL     1       4.333   3.026  19.767  0.00  0.00    +0.000 C 
ATOM      2  N   UNL     1       4.213   3.519  18.401  0.00  0.00    +0.000 N 
ATOM      3  C   UNL     1       5.375   4.010  17.804  0.00  0.00    +0.000 A 
ATOM      4  C   UNL     1       5.448   4.119  16.424  0.00  0.00    +0.000 A 
ATOM      5  C   UNL     1       6.595   4.651  15.866  0.00  0.00    +0.000 A 
ATOM      6  N   UNL     1       7.640   5.043  16.619  0.00  0.00    +0.000 NA
ATOM      7  C   UNL     1       7.496   4.882  17.939  0.00  0.00    +0.000 A 
ATOM      8  N   UNL     1       6.424   4.366  18.565  0.00  0.00    +0.000 NA
ENDROOT
BRANCH   2   9
ATOM      9  C   UNL     1       2.944   4.137  18.004  0.00  0.00    +0.000 C 
BRANCH   9  10
ATOM     10  C   UNL     1       2.491   5.376  18.707  0.00  0.00    +0.000 A 
ATOM     11  C   UNL     1       2.190   5.554  20.073  0.00  0.00    +0.000 A 
ATOM     12  N   UNL     1       1.907   6.820  20.386  0.00  0.00    +0.000 NA
ATOM     13  N   UNL     1       1.969   7.487  19.204  0.00  0.00    +0.000 N 
ATOM     14  C   UNL     1       2.320   6.635  18.174  0.00  0.00    +0.000 A 
BRANCH  13  15
ATOM     15  C   UNL     1       1.710   8.885  19.125  0.00  0.00    +0.000 A 
ATOM     16  C   UNL     1       2.170   9.623  18.023  0.00  0.00    +0.000 A 
ATOM     17  C   UNL     1       1.925  10.997  17.947  0.00  0.00    +0.000 A 
ATOM     18  C   UNL     1       1.227  11.641  18.968  0.00  0.00    +0.000 A 
ATOM     19  C   UNL     1       0.764  10.914  20.062  0.00  0.00    +0.000 A 
ATOM     20  C   UNL     1       0.998   9.540  20.141  0.00  0.00    +0.000 A 
ENDBRANCH  13  15
ENDBRANCH   9  10
ENDBRANCH   2   9
BRANCH   5  21
ATOM     21  C   UNL     1       6.708   4.792  14.371  0.00  0.00    +0.000 C 
BRANCH  21  22
ATOM     22  C   UNL     1       5.762   3.839  13.639  0.00  0.00    +0.000 C 
BRANCH  22  23
ATOM     23  N   UNL     1       6.455   3.145  12.550  0.00  0.00    +0.000 NA
ATOM     24  H   UNL     1       5.781   2.828  11.855  0.00  0.00    +0.000 HD
ATOM     25  H   UNL     1       6.904   2.307  12.919  0.00  0.00    +0.000 HD
ENDBRANCH  22  23
ENDBRANCH  21  22
ENDBRANCH   5  21
TORSDOF 6
ENDMDL
MODEL 7
REMARK VINA RESULT:      -7.0      2.521      4.366
REMARK  Name = 
REMARK  7 active torsions:
REMARK  status: ('A' for Active; 'I' for Inactive)
REMARK    1  A    between atoms: C_1  and  N_2
REMARK    2  A    between atoms: N_2  and  C_3
REMARK    3  A    between atoms: C_3  and  C_4
REMARK    4  A    between atoms: N_7  and  C_8
REMARK    5  A    between atoms: C_17  and  C_18
REMARK    6  A    between atoms: C_18  and  C_19
REMARK    7  A    between atoms: C_19  and  N_20
REMARK                            x       y       z     vdW  Elec       q    Type
REMARK                         _______ _______ _______ _____ _____    ______ ____
ROOT
ATOM      1  C   UNL     1       5.655   6.518  17.941  0.00  0.00    +0.000 C 
ATOM      2  N   UNL     1       4.241   6.289  18.205  0.00  0.00    +0.000 N 
ATOM      3  C   UNL     1       3.870   4.993  18.567  0.00  0.00    +0.000 A 
ATOM      4  C   UNL     1       2.660   4.776  19.208  0.00  0.00    +0.000 A 
ATOM      5  C   UNL     1       2.301   3.476  19.513  0.00  0.00    +0.000 A 
ATOM      6  N   UNL     1       3.095   2.429  19.223  0.00  0.00    +0.000 NA
ATOM      7  C   UNL     1       4.254   2.728  18.625  0.00  0.00    +0.000 A 
ATOM      8  N   UNL     1       4.688   3.960  18.302  0.00  0.00    +0.000 NA
ENDROOT
BRANCH   2   9
ATOM      9  C   UNL     1       3.265   7.078  17.447  0.00  0.00    +0.000 C 
BRANCH   9  10
ATOM     10  C   UNL     1       2.509   8.161  18.147  0.00  0.00    +0.000 A 
ATOM     11  C   UNL     1       2.126   9.427  17.656  0.00  0.00    +0.000 A 
ATOM     12  N   UNL     1       1.372  10.114  18.516  0.00  0.00    +0.000 NA
ATOM     13  N   UNL     1       1.292   9.318  19.614  0.00  0.00    +0.000 N 
ATOM     14  C   UNL     1       1.972   8.133  19.415  0.00  0.00    +0.000 A 
BRANCH  13  15
ATOM     15  C   UNL     1       0.568   9.721  20.773  0.00  0.00    +0.000 A 
ATOM     16  C   UNL     1      -0.064  10.974  20.806  0.00  0.00    +0.000 A 
ATOM     17  C   UNL     1      -0.767  11.376  21.944  0.00  0.00    +0.000 A 
ATOM     18  C   UNL     1      -0.841  10.535  23.055  0.00  0.00    +0.000 A 
ATOM     19  C   UNL     1      -0.220   9.289  23.027  0.00  0.00    +0.000 A 
ATOM     20  C   UNL     1       0.478   8.878  21.890  0.00  0.00    +0.000 A 
ENDBRANCH  13  15
ENDBRANCH   9  10
ENDBRANCH   2   9
BRANCH   5  21
ATOM     21  C   UNL     1       0.991   3.201  20.202  0.00  0.00    +0.000 C 
BRANCH  21  22
ATOM     22  C   UNL     1       1.198   2.618  21.600  0.00  0.00    +0.000 C 
BRANCH  22  23
ATOM     23  N   UNL     1       2.576   2.819  22.054  0.00  0.00    +0.000 NA
ATOM     24  H   UNL     1       2.828   2.100  22.731  0.00  0.00    +0.000 HD
ATOM     25  H   UNL     1       2.640   3.710  22.545  0.00  0.00    +0.000 HD
ENDBRANCH  22  23
ENDBRANCH  21  22
ENDBRANCH   5  21
TORSDOF 6
ENDMDL
MODEL 8
REMARK VINA RESULT:      -7.0      2.795      4.257
REMARK  Name = 
REMARK  7 active torsions:
REMARK  status: ('A' for Active; 'I' for Inactive)
REMARK    1  A    between atoms: C_1  and  N_2
REMARK    2  A    between atoms: N_2  and  C_3
REMARK    3  A    between atoms: C_3  and  C_4
REMARK    4  A    between atoms: N_7  and  C_8
REMARK    5  A    between atoms: C_17  and  C_18
REMARK    6  A    between atoms: C_18  and  C_19
REMARK    7  A    between atoms: C_19  and  N_20
REMARK                            x       y       z     vdW  Elec       q    Type
REMARK                         _______ _______ _______ _____ _____    ______ ____
ROOT
ATOM      1  C   UNL     1       7.549   6.313  17.003  0.00  0.00    +0.000 C 
ATOM      2  N   UNL     1       6.367   5.956  16.227  0.00  0.00    +0.000 N 
ATOM      3  C   UNL     1       6.586   5.337  14.996  0.00  0.00    +0.000 A 
ATOM      4  C   UNL     1       5.564   4.620  14.393  0.00  0.00    +0.000 A 
ATOM      5  C   UNL     1       5.798   4.056  13.153  0.00  0.00    +0.000 A 
ATOM      6  N   UNL     1       6.986   4.166  12.531  0.00  0.00    +0.000 NA
ATOM      7  C   UNL     1       7.924   4.854  13.191  0.00  0.00    +0.000 A 
ATOM      8  N   UNL     1       7.788   5.426  14.401  0.00  0.00    +0.000 NA
ENDROOT
BRANCH   2   9
ATOM      9  C   UNL     1       5.186   6.816  16.344  0.00  0.00    +0.000 C 
BRANCH   9  10
ATOM     10  C   UNL     1       4.168   6.508  17.394  0.00  0.00    +0.000 A 
ATOM     11  C   UNL     1       3.148   7.339  17.903  0.00  0.00    +0.000 A 
ATOM     12  N   UNL     1       2.348   6.714  18.769  0.00  0.00    +0.000 NA
ATOM     13  N   UNL     1       2.871   5.465  18.879  0.00  0.00    +0.000 N 
ATOM     14  C   UNL     1       3.971   5.317  18.058  0.00  0.00    +0.000 A 
BRANCH  13  15
ATOM     15  C   UNL     1       2.290   4.489  19.739  0.00  0.00    +0.000 A 
ATOM     16  C   UNL     1       1.215   3.708  19.287  0.00  0.00    +0.000 A 
ATOM     17  C   UNL     1       0.637   2.756  20.131  0.00  0.00    +0.000 A 
ATOM     18  C   UNL     1       1.121   2.582  21.427  0.00  0.00    +0.000 A 
ATOM     19  C   UNL     1       2.190   3.351  21.880  0.00  0.00    +0.000 A 
ATOM     20  C   UNL     1       2.778   4.299  21.039  0.00  0.00    +0.000 A 
ENDBRANCH  13  15
ENDBRANCH   9  10
ENDBRANCH   2   9
BRANCH   5  21
ATOM     21  C   UNL     1       4.708   3.277  12.465  0.00  0.00    +0.000 C 
BRANCH  21  22
ATOM     22  C   UNL     1       5.236   2.521  11.245  0.00  0.00    +0.000 C 
BRANCH  22  23
ATOM     23  N   UNL     1       6.032   1.361  11.651  0.00  0.00    +0.000 NA
ATOM     24  H   UNL     1       6.109   0.703  10.876  0.00  0.00    +0.000 HD
ATOM     25  H   UNL     1       5.547   0.867  12.399  0.00  0.00    +0.000 HD
ENDBRANCH  22  23
ENDBRANCH  21  22
ENDBRANCH   5  21
TORSDOF 6
ENDMDL
MODEL 9
REMARK VINA RESULT:      -6.9      1.656      3.090
REMARK  Name = 
REMARK  7 active torsions:
REMARK  status: ('A' for Active; 'I' for Inactive)
REMARK    1  A    between atoms: C_1  and  N_2
REMARK    2  A    between atoms: N_2  and  C_3
REMARK    3  A    between atoms: C_3  and  C_4
REMARK    4  A    between atoms: N_7  and  C_8
REMARK    5  A    between atoms: C_17  and  C_18
REMARK    6  A    between atoms: C_18  and  C_19
REMARK    7  A    between atoms: C_19  and  N_20
REMARK                            x       y       z     vdW  Elec       q    Type
REMARK                         _______ _______ _______ _____ _____    ______ ____
ROOT
ATOM      1  C   UNL     1       7.367   4.644  17.118  0.00  0.00    +0.000 C 
ATOM      2  N   UNL     1       6.363   4.134  16.193  0.00  0.00    +0.000 N 
ATOM      3  C   UNL     1       6.645   4.251  14.831  0.00  0.00    +0.000 A 
ATOM      4  C   UNL     1       5.966   3.461  13.917  0.00  0.00    +0.000 A 
ATOM      5  C   UNL     1       6.235   3.633  12.571  0.00  0.00    +0.000 A 
ATOM      6  N   UNL     1       7.143   4.524  12.133  0.00  0.00    +0.000 NA
ATOM      7  C   UNL     1       7.768   5.230  13.082  0.00  0.00    +0.000 A 
ATOM      8  N   UNL     1       7.578   5.122  14.409  0.00  0.00    +0.000 NA
ENDROOT
BRANCH   2   9
ATOM      9  C   UNL     1       4.956   4.215  16.596  0.00  0.00    +0.000 C 
BRANCH   9  10
ATOM     10  C   UNL     1       4.414   5.524  17.073  0.00  0.00    +0.000 A 
ATOM     11  C   UNL     1       4.704   6.822  16.603  0.00  0.00    +0.000 A 
ATOM     12  N   UNL     1       3.967   7.766  17.190  0.00  0.00    +0.000 NA
ATOM     13  N   UNL     1       3.212   7.097  18.099  0.00  0.00    +0.000 N 
ATOM     14  C   UNL     1       3.465   5.740  18.047  0.00  0.00    +0.000 A 
BRANCH  13  15
ATOM     15  C   UNL     1       2.290   7.778  18.945  0.00  0.00    +0.000 A 
ATOM     16  C   UNL     1       1.985   7.258  20.213  0.00  0.00    +0.000 A 
ATOM     17  C   UNL     1       1.075   7.919  21.042  0.00  0.00    +0.000 A 
ATOM     18  C   UNL     1       0.461   9.095  20.611  0.00  0.00    +0.000 A 
ATOM     19  C   UNL     1       0.762   9.619  19.357  0.00  0.00    +0.000 A 
ATOM     20  C   UNL     1       1.677   8.968  18.526  0.00  0.00    +0.000 A 
ENDBRANCH  13  15
ENDBRANCH   9  10
ENDBRANCH   2   9
BRANCH   5  21
ATOM     21  C   UNL     1       5.512   2.797  11.548  0.00  0.00    +0.000 C 
BRANCH  21  22
ATOM     22  C   UNL     1       4.022   3.136  11.489  0.00  0.00    +0.000 C 
BRANCH  22  23
ATOM     23  N   UNL     1       3.718   3.961  10.318  0.00  0.00    +0.000 NA
ATOM     24  H   UNL     1       3.821   3.409   9.467  0.00  0.00    +0.000 HD
ATOM     25  H   UNL     1       4.400   4.717  10.254  0.00  0.00    +0.000 HD
ENDBRANCH  22  23
ENDBRANCH  21  22
ENDBRANCH   5  21
TORSDOF 6
ENDMDL
