MODEL 1
REMARK VINA RESULT:      -8.6      0.000      0.000
REMARK  Name = 
REMARK  6 active torsions:
REMARK  status: ('A' for Active; 'I' for Inactive)
REMARK    1  A    between atoms: C_1  and  C_2
REMARK    2  A    between atoms: C_5  and  N_6
REMARK    3  A    between atoms: C_12  and  C_13
REMARK    4  A    between atoms: C_13  and  N_14
REMARK    5  A    between atoms: C_17  and  C_18
REMARK    6  A    between atoms: C_19  and  C_20
REMARK                            x       y       z     vdW  Elec       q    Type
REMARK                         _______ _______ _______ _____ _____    ______ ____
ROOT
ATOM      1  N   UNL     1       8.095   9.113  17.313  0.00  0.00    +0.000 N 
ATOM      2  C   UNL     1       7.628   7.848  17.687  0.00  0.00    +0.000 A 
ATOM      3  N   UNL     1       8.224   7.205  18.687  0.00  0.00    +0.000 NA
ATOM      4  C   UNL     1       7.778   5.994  18.950  0.00  0.00    +0.000 A 
ATOM      5  N   UNL     1       8.395   5.305  19.972  0.00  0.00    +0.000 N 
ATOM      6  N   UNL     1       6.777   5.404  18.324  0.00  0.00    +0.000 NA
ATOM      7  C   UNL     1       6.228   6.112  17.334  0.00  0.00    +0.000 A 
ATOM      8  N   UNL     1       6.626   7.337  16.971  0.00  0.00    +0.000 NA
ATOM      9  H   UNL     1       7.467   9.505  16.623  0.00  0.00    +0.000 HD
ATOM     10  H   UNL     1       8.875   5.949  20.587  0.00  0.00    +0.000 HD
ATOM     11  H   UNL     1       7.769   4.635  20.394  0.00  0.00    +0.000 HD
ENDROOT
BRANCH   1  16
ATOM     12  C   UNL     1      10.283  13.148  20.750  0.00  0.00    +0.000 C 
ATOM     13  C   UNL     1       9.716  12.096  19.844  0.00  0.00    +0.000 A 
ATOM     14  C   UNL     1       9.270  12.409  18.555  0.00  0.00    +0.000 A 
ATOM     15  C   UNL     1       8.735  11.413  17.729  0.00  0.00    +0.000 A 
ATOM     16  C   UNL     1       8.664  10.084  18.160  0.00  0.00    +0.000 A 
ATOM     17  C   UNL     1       9.099   9.782  19.456  0.00  0.00    +0.000 A 
ATOM     18  C   UNL     1       9.621  10.776  20.289  0.00  0.00    +0.000 A 
ENDBRANCH   1  16
BRANCH   7  19
ATOM     19  C   UNL     1       5.148   5.445  16.523  0.00  0.00    +0.000 C 
BRANCH  19  20
ATOM     20  N   UNL     1       4.172   4.776  17.365  0.00  0.00    +0.000 N 
ATOM     21  C   UNL     1       4.174   3.434  17.631  0.00  0.00    +0.000 A 
ATOM     22  N   UNL     1       3.222   3.107  18.473  0.00  0.00    +0.000 NA
ATOM     23  C   UNL     1       2.579   4.281  18.780  0.00  0.00    +0.000 A 
ATOM     24  C   UNL     1       1.426   4.285  19.709  0.00  0.00    +0.000 C 
ATOM     25  C   UNL     1       3.169   5.346  18.118  0.00  0.00    +0.000 A 
ATOM     26  C   UNL     1       2.856   6.796  18.143  0.00  0.00    +0.000 C 
ENDBRANCH  19  20
ENDBRANCH   7  19
TORSDOF 3
ENDMDL
MODEL 2
REMARK VINA RESULT:      -8.5      0.858      1.391
REMARK  Name = 
REMARK  6 active torsions:
REMARK  status: ('A' for Active; 'I' for Inactive)
REMARK    1  A    between atoms: C_1  and  C_2
REMARK    2  A    between atoms: C_5  and  N_6
REMARK    3  A    between atoms: C_12  and  C_13
REMARK    4  A    between atoms: C_13  and  N_14
REMARK    5  A    between atoms: C_17  and  C_18
REMARK    6  A    between atoms: C_19  and  C_20
REMARK                            x       y       z     vdW  Elec       q    Type
REMARK                         _______ _______ _______ _____ _____    ______ ____
ROOT
ATOM      1  N   UNL     1       7.872   8.750  17.342  0.00  0.00    +0.000 N 
ATOM      2  C   UNL     1       7.486   7.514  17.873  0.00  0.00    +0.000 A 
ATOM      3  N   UNL     1       8.202   6.977  18.857  0.00  0.00    +0.000 NA
ATOM      4  C   UNL     1       7.825   5.786  19.271  0.00  0.00    +0.000 A 
ATOM      5  N   UNL     1       8.564   5.207  20.278  0.00  0.00    +0.000 N 
ATOM      6  N   UNL     1       6.783   5.119  18.807  0.00  0.00    +0.000 NA
ATOM      7  C   UNL     1       6.114   5.722  17.822  0.00  0.00    +0.000 A 
ATOM      8  N   UNL     1       6.433   6.917  17.313  0.00  0.00    +0.000 NA
ATOM      9  H   UNL     1       7.164   9.064  16.691  0.00  0.00    +0.000 HD
ATOM     10  H   UNL     1       9.084   5.914  20.781  0.00  0.00    +0.000 HD
ATOM     11  H   UNL     1       8.007   4.563  20.821  0.00  0.00    +0.000 HD
ENDROOT
BRANCH   1  16
ATOM     12  C   UNL     1      10.268  13.123  20.175  0.00  0.00    +0.000 C 
ATOM     13  C   UNL     1       9.644  11.983  19.426  0.00  0.00    +0.000 A 
ATOM     14  C   UNL     1       8.973  12.187  18.216  0.00  0.00    +0.000 A 
ATOM     15  C   UNL     1       8.391  11.110  17.538  0.00  0.00    +0.000 A 
ATOM     16  C   UNL     1       8.493   9.806  18.037  0.00  0.00    +0.000 A 
ATOM     17  C   UNL     1       9.154   9.613  19.256  0.00  0.00    +0.000 A 
ATOM     18  C   UNL     1       9.725  10.687  19.943  0.00  0.00    +0.000 A 
ENDBRANCH   1  16
BRANCH   7  19
ATOM     19  C   UNL     1       4.978   4.960  17.190  0.00  0.00    +0.000 C 
BRANCH  19  20
ATOM     20  N   UNL     1       3.833   4.858  18.078  0.00  0.00    +0.000 N 
ATOM     21  C   UNL     1       3.238   5.925  18.694  0.00  0.00    +0.000 A 
ATOM     22  N   UNL     1       2.184   5.558  19.385  0.00  0.00    +0.000 NA
ATOM     23  C   UNL     1       2.078   4.200  19.205  0.00  0.00    +0.000 A 
ATOM     24  C   UNL     1       0.990   3.438  19.860  0.00  0.00    +0.000 C 
ATOM     25  C   UNL     1       3.084   3.740  18.370  0.00  0.00    +0.000 A 
ATOM     26  C   UNL     1       3.374   2.376  17.863  0.00  0.00    +0.000 C 
ENDBRANCH  19  20
ENDBRANCH   7  19
TORSDOF 3
ENDMDL
MODEL 3
REMARK VINA RESULT:      -8.5      0.174      1.017
REMARK  Name = 
REMARK  6 active torsions:
REMARK  status: ('A' for Active; 'I' for Inactive)
REMARK    1  A    between atoms: C_1  and  C_2
REMARK    2  A    between atoms: C_5  and  N_6
REMARK    3  A    between atoms: C_12  and  C_13
REMARK    4  A    between atoms: C_13  and  N_14
REMARK    5  A    between atoms: C_17  and  C_18
REMARK    6  A    between atoms: C_19  and  C_20
REMARK                            x       y       z     vdW  Elec       q    Type
REMARK                         _______ _______ _______ _____ _____    ______ ____
ROOT
ATOM      1  N   UNL     1       8.126   9.187  17.296  0.00  0.00    +0.000 N 
ATOM      2  C   UNL     1       7.653   7.918  17.650  0.00  0.00    +0.000 A 
ATOM      3  N   UNL     1       8.203   7.284  18.682  0.00  0.00    +0.000 NA
ATOM      4  C   UNL     1       7.758   6.069  18.925  0.00  0.00    +0.000 A 
ATOM      5  N   UNL     1       8.328   5.390  19.980  0.00  0.00    +0.000 N 
ATOM      6  N   UNL     1       6.798   5.466  18.249  0.00  0.00    +0.000 NA
ATOM      7  C   UNL     1       6.294   6.165  17.229  0.00  0.00    +0.000 A 
ATOM      8  N   UNL     1       6.696   7.392  16.883  0.00  0.00    +0.000 NA
ATOM      9  H   UNL     1       7.530   9.569  16.573  0.00  0.00    +0.000 HD
ATOM     10  H   UNL     1       8.767   6.041  20.618  0.00  0.00    +0.000 HD
ATOM     11  H   UNL     1       7.688   4.714  20.371  0.00  0.00    +0.000 HD
ENDROOT
BRANCH   1  16
ATOM     12  C   UNL     1      10.339  13.093  20.863  0.00  0.00    +0.000 C 
ATOM     13  C   UNL     1       9.755  12.067  19.938  0.00  0.00    +0.000 A 
ATOM     14  C   UNL     1       9.645  10.725  20.315  0.00  0.00    +0.000 A 
ATOM     15  C   UNL     1       9.106   9.783  19.431  0.00  0.00    +0.000 A 
ATOM     16  C   UNL     1       8.638  10.166  18.169  0.00  0.00    +0.000 A 
ATOM     17  C   UNL     1       8.765  11.509  17.794  0.00  0.00    +0.000 A 
ATOM     18  C   UNL     1       9.315  12.450  18.668  0.00  0.00    +0.000 A 
ENDBRANCH   1  16
BRANCH   7  19
ATOM     19  C   UNL     1       5.266   5.483  16.364  0.00  0.00    +0.000 C 
BRANCH  19  20
ATOM     20  N   UNL     1       4.274   4.776  17.156  0.00  0.00    +0.000 N 
ATOM     21  C   UNL     1       4.246   3.418  17.321  0.00  0.00    +0.000 A 
ATOM     22  N   UNL     1       3.286   3.050  18.138  0.00  0.00    +0.000 NA
ATOM     23  C   UNL     1       2.670   4.213  18.532  0.00  0.00    +0.000 A 
ATOM     24  C   UNL     1       1.517   4.174  19.461  0.00  0.00    +0.000 C 
ATOM     25  C   UNL     1       3.285   5.311  17.951  0.00  0.00    +0.000 A 
ATOM     26  C   UNL     1       3.006   6.761  18.085  0.00  0.00    +0.000 C 
ENDBRANCH  19  20
ENDBRANCH   7  19
TORSDOF 3
ENDMDL
MODEL 4
REMARK VINA RESULT:      -8.4      0.892      1.737
REMARK  Name = 
REMARK  6 active torsions:
REMARK  status: ('A' for Active; 'I' for Inactive)
REMARK    1  A    between atoms: C_1  and  C_2
REMARK    2  A    between atoms: C_5  and  N_6
REMARK    3  A    between atoms: C_12  and  C_13
REMARK    4  A    between atoms: C_13  and  N_14
REMARK    5  A    between atoms: C_17  and  C_18
REMARK    6  A    between atoms: C_19  and  C_20
REMARK                            x       y       z     vdW  Elec       q    Type
REMARK                         _______ _______ _______ _____ _____    ______ ____
ROOT
ATOM      1  N   UNL     1       7.805   8.663  17.317  0.00  0.00    +0.000 N 
ATOM      2  C   UNL     1       7.451   7.426  17.867  0.00  0.00    +0.000 A 
ATOM      3  N   UNL     1       8.173   6.930  18.869  0.00  0.00    +0.000 NA
ATOM      4  C   UNL     1       7.828   5.735  19.302  0.00  0.00    +0.000 A 
ATOM      5  N   UNL     1       8.575   5.198  20.327  0.00  0.00    +0.000 N 
ATOM      6  N   UNL     1       6.812   5.028  18.841  0.00  0.00    +0.000 NA
ATOM      7  C   UNL     1       6.135   5.592  17.838  0.00  0.00    +0.000 A 
ATOM      8  N   UNL     1       6.422   6.786  17.310  0.00  0.00    +0.000 NA
ATOM      9  H   UNL     1       7.094   8.942  16.653  0.00  0.00    +0.000 HD
ATOM     10  H   UNL     1       9.068   5.930  20.821  0.00  0.00    +0.000 HD
ATOM     11  H   UNL     1       8.032   4.548  20.877  0.00  0.00    +0.000 HD
ENDROOT
BRANCH   1  16
ATOM     12  C   UNL     1      10.308  13.019  20.080  0.00  0.00    +0.000 C 
ATOM     13  C   UNL     1       9.651  11.876  19.365  0.00  0.00    +0.000 A 
ATOM     14  C   UNL     1       9.732  10.568  19.854  0.00  0.00    +0.000 A 
ATOM     15  C   UNL     1       9.119   9.515  19.166  0.00  0.00    +0.000 A 
ATOM     16  C   UNL     1       8.387   9.750  17.997  0.00  0.00    +0.000 A 
ATOM     17  C   UNL     1       8.322  11.059  17.507  0.00  0.00    +0.000 A 
ATOM     18  C   UNL     1       8.945  12.112  18.183  0.00  0.00    +0.000 A 
ENDBRANCH   1  16
BRANCH   7  19
ATOM     19  C   UNL     1       5.029   4.784  17.210  0.00  0.00    +0.000 C 
BRANCH  19  20
ATOM     20  N   UNL     1       3.859   4.708  18.067  0.00  0.00    +0.000 N 
ATOM     21  C   UNL     1       3.239   5.793  18.625  0.00  0.00    +0.000 A 
ATOM     22  N   UNL     1       2.168   5.445  19.298  0.00  0.00    +0.000 NA
ATOM     23  C   UNL     1       2.075   4.081  19.167  0.00  0.00    +0.000 A 
ATOM     24  C   UNL     1       0.972   3.338  19.819  0.00  0.00    +0.000 C 
ATOM     25  C   UNL     1       3.108   3.596  18.380  0.00  0.00    +0.000 A 
ATOM     26  C   UNL     1       3.420   2.217  17.934  0.00  0.00    +0.000 C 
ENDBRANCH  19  20
ENDBRANCH   7  19
TORSDOF 3
ENDMDL
MODEL 5
REMARK VINA RESULT:      -8.2      5.176      7.913
REMARK  Name = 
REMARK  6 active torsions:
REMARK  status: ('A' for Active; 'I' for Inactive)
REMARK    1  A    between atoms: C_1  and  C_2
REMARK    2  A    between atoms: C_5  and  N_6
REMARK    3  A    between atoms: C_12  and  C_13
REMARK    4  A    between atoms: C_13  and  N_14
REMARK    5  A    between atoms: C_17  and  C_18
REMARK    6  A    between atoms: C_19  and  C_20
REMARK                            x       y       z     vdW  Elec       q    Type
REMARK                         _______ _______ _______ _____ _____    ______ ____
ROOT
ATOM      1  N   UNL     1       0.284  10.158  17.729  0.00  0.00    +0.000 N 
ATOM      2  C   UNL     1       0.987   9.200  18.469  0.00  0.00    +0.000 A 
ATOM      3  N   UNL     1       0.843   9.165  19.791  0.00  0.00    +0.000 NA
ATOM      4  C   UNL     1       1.578   8.283  20.435  0.00  0.00    +0.000 A 
ATOM      5  N   UNL     1       1.455   8.244  21.807  0.00  0.00    +0.000 N 
ATOM      6  N   UNL     1       2.404   7.425  19.864  0.00  0.00    +0.000 NA
ATOM      7  C   UNL     1       2.494   7.520  18.536  0.00  0.00    +0.000 A 
ATOM      8  N   UNL     1       1.812   8.399  17.793  0.00  0.00    +0.000 NA
ATOM      9  H   UNL     1       0.417   9.974  16.743  0.00  0.00    +0.000 HD
ATOM     10  H   UNL     1       0.581   8.665  22.091  0.00  0.00    +0.000 HD
ATOM     11  H   UNL     1       1.671   7.327  22.169  0.00  0.00    +0.000 HD
ENDROOT
BRANCH   1  16
ATOM     12  C   UNL     1      -4.936  12.165  18.995  0.00  0.00    +0.000 C 
ATOM     13  C   UNL     1      -3.573  11.640  18.655  0.00  0.00    +0.000 A 
ATOM     14  C   UNL     1      -3.404  10.587  17.750  0.00  0.00    +0.000 A 
ATOM     15  C   UNL     1      -2.123  10.105  17.454  0.00  0.00    +0.000 A 
ATOM     16  C   UNL     1      -0.986  10.685  18.030  0.00  0.00    +0.000 A 
ATOM     17  C   UNL     1      -1.166  11.729  18.944  0.00  0.00    +0.000 A 
ATOM     18  C   UNL     1      -2.443  12.204  19.253  0.00  0.00    +0.000 A 
ENDBRANCH   1  16
BRANCH   7  19
ATOM     19  C   UNL     1       3.495   6.632  17.845  0.00  0.00    +0.000 C 
BRANCH  19  20
ATOM     20  N   UNL     1       3.123   5.230  17.925  0.00  0.00    +0.000 N 
ATOM     21  C   UNL     1       1.866   4.750  17.673  0.00  0.00    +0.000 A 
ATOM     22  N   UNL     1       1.824   3.441  17.752  0.00  0.00    +0.000 NA
ATOM     23  C   UNL     1       3.105   3.046  18.055  0.00  0.00    +0.000 A 
ATOM     24  C   UNL     1       3.426   1.611  18.232  0.00  0.00    +0.000 C 
ATOM     25  C   UNL     1       3.944   4.145  18.144  0.00  0.00    +0.000 A 
ATOM     26  C   UNL     1       5.399   4.234  18.419  0.00  0.00    +0.000 C 
ENDBRANCH  19  20
ENDBRANCH   7  19
TORSDOF 3
ENDMDL
MODEL 6
REMARK VINA RESULT:      -8.2      4.793      7.712
REMARK  Name = 
REMARK  6 active torsions:
REMARK  status: ('A' for Active; 'I' for Inactive)
REMARK    1  A    between atoms: C_1  and  C_2
REMARK    2  A    between atoms: C_5  and  N_6
REMARK    3  A    between atoms: C_12  and  C_13
REMARK    4  A    between atoms: C_13  and  N_14
REMARK    5  A    between atoms: C_17  and  C_18
REMARK    6  A    between atoms: C_19  and  C_20
REMARK                            x       y       z     vdW  Elec       q    Type
REMARK                         _______ _______ _______ _____ _____    ______ ____
ROOT
ATOM      1  N   UNL     1       0.531  10.194  17.692  0.00  0.00    +0.000 N 
ATOM      2  C   UNL     1       1.252   9.171  18.320  0.00  0.00    +0.000 A 
ATOM      3  N   UNL     1       1.059   8.942  19.616  0.00  0.00    +0.000 NA
ATOM      4  C   UNL     1       1.811   8.009  20.162  0.00  0.00    +0.000 A 
ATOM      5  N   UNL     1       1.638   7.769  21.507  0.00  0.00    +0.000 N 
ATOM      6  N   UNL     1       2.700   7.278  19.513  0.00  0.00    +0.000 NA
ATOM      7  C   UNL     1       2.836   7.566  18.217  0.00  0.00    +0.000 A 
ATOM      8  N   UNL     1       2.140   8.511  17.575  0.00  0.00    +0.000 NA
ATOM      9  H   UNL     1       0.711  10.159  16.697  0.00  0.00    +0.000 HD
ATOM     10  H   UNL     1       0.733   8.107  21.808  0.00  0.00    +0.000 HD
ATOM     11  H   UNL     1       1.885   6.820  21.746  0.00  0.00    +0.000 HD
ENDROOT
BRANCH   1  16
ATOM     12  C   UNL     1      -4.750  12.056  18.922  0.00  0.00    +0.000 C 
ATOM     13  C   UNL     1      -3.366  11.570  18.610  0.00  0.00    +0.000 A 
ATOM     14  C   UNL     1      -2.237  12.191  19.153  0.00  0.00    +0.000 A 
ATOM     15  C   UNL     1      -0.954  11.727  18.839  0.00  0.00    +0.000 A 
ATOM     16  C   UNL     1      -0.774  10.617  18.006  0.00  0.00    +0.000 A 
ATOM     17  C   UNL     1      -1.910  10.010  17.456  0.00  0.00    +0.000 A 
ATOM     18  C   UNL     1      -3.192  10.479  17.755  0.00  0.00    +0.000 A 
ENDBRANCH   1  16
BRANCH   7  19
ATOM     19  C   UNL     1       3.906   6.829  17.453  0.00  0.00    +0.000 C 
BRANCH  19  20
ATOM     20  N   UNL     1       4.259   5.572  18.090  0.00  0.00    +0.000 N 
ATOM     21  C   UNL     1       5.407   5.365  18.805  0.00  0.00    +0.000 A 
ATOM     22  N   UNL     1       5.441   4.162  19.327  0.00  0.00    +0.000 NA
ATOM     23  C   UNL     1       4.265   3.561  18.949  0.00  0.00    +0.000 A 
ATOM     24  C   UNL     1       3.968   2.168  19.358  0.00  0.00    +0.000 C 
ATOM     25  C   UNL     1       3.495   4.430  18.194  0.00  0.00    +0.000 A 
ATOM     26  C   UNL     1       2.152   4.258  17.586  0.00  0.00    +0.000 C 
ENDBRANCH  19  20
ENDBRANCH   7  19
TORSDOF 3
ENDMDL
MODEL 7
REMARK VINA RESULT:      -8.2      4.777      7.658
REMARK  Name = 
REMARK  6 active torsions:
REMARK  status: ('A' for Active; 'I' for Inactive)
REMARK    1  A    between atoms: C_1  and  C_2
REMARK    2  A    between atoms: C_5  and  N_6
REMARK    3  A    between atoms: C_12  and  C_13
REMARK    4  A    between atoms: C_13  and  N_14
REMARK    5  A    between atoms: C_17  and  C_18
REMARK    6  A    between atoms: C_19  and  C_20
REMARK                            x       y       z     vdW  Elec       q    Type
REMARK                         _______ _______ _______ _____ _____    ______ ____
ROOT
ATOM      1  N   UNL     1       0.639  10.284  17.739  0.00  0.00    +0.000 N 
ATOM      2  C   UNL     1       1.311   9.219  18.348  0.00  0.00    +0.000 A 
ATOM      3  N   UNL     1       1.090   8.962  19.635  0.00  0.00    +0.000 NA
ATOM      4  C   UNL     1       1.799   7.987  20.166  0.00  0.00    +0.000 A 
ATOM      5  N   UNL     1       1.596   7.718  21.501  0.00  0.00    +0.000 N 
ATOM      6  N   UNL     1       2.669   7.241  19.510  0.00  0.00    +0.000 NA
ATOM      7  C   UNL     1       2.835   7.558  18.224  0.00  0.00    +0.000 A 
ATOM      8  N   UNL     1       2.185   8.546  17.599  0.00  0.00    +0.000 NA
ATOM      9  H   UNL     1       0.831  10.269  16.746  0.00  0.00    +0.000 HD
ATOM     10  H   UNL     1       0.700   8.082  21.799  0.00  0.00    +0.000 HD
ATOM     11  H   UNL     1       1.803   6.754  21.718  0.00  0.00    +0.000 HD
ENDROOT
BRANCH   1  16
ATOM     12  C   UNL     1      -4.667  12.030  19.034  0.00  0.00    +0.000 C 
ATOM     13  C   UNL     1      -3.282  11.573  18.686  0.00  0.00    +0.000 A 
ATOM     14  C   UNL     1      -3.067  10.517  17.795  0.00  0.00    +0.000 A 
ATOM     15  C   UNL     1      -1.765  10.100  17.491  0.00  0.00    +0.000 A 
ATOM     16  C   UNL     1      -0.655  10.747  18.046  0.00  0.00    +0.000 A 
ATOM     17  C   UNL     1      -0.880  11.793  18.948  0.00  0.00    +0.000 A 
ATOM     18  C   UNL     1      -2.178  12.204  19.265  0.00  0.00    +0.000 A 
ENDBRANCH   1  16
BRANCH   7  19
ATOM     19  C   UNL     1       3.888   6.803  17.456  0.00  0.00    +0.000 C 
BRANCH  19  20
ATOM     20  N   UNL     1       4.239   5.550  18.104  0.00  0.00    +0.000 N 
ATOM     21  C   UNL     1       5.384   5.349  18.825  0.00  0.00    +0.000 A 
ATOM     22  N   UNL     1       5.416   4.149  19.356  0.00  0.00    +0.000 NA
ATOM     23  C   UNL     1       4.241   3.545  18.978  0.00  0.00    +0.000 A 
ATOM     24  C   UNL     1       3.942   2.156  19.397  0.00  0.00    +0.000 C 
ATOM     25  C   UNL     1       3.474   4.410  18.213  0.00  0.00    +0.000 A 
ATOM     26  C   UNL     1       2.134   4.233  17.602  0.00  0.00    +0.000 C 
ENDBRANCH  19  20
ENDBRANCH   7  19
TORSDOF 3
ENDMDL
MODEL 8
REMARK VINA RESULT:      -8.1      5.181      7.939
REMARK  Name = 
REMARK  6 active torsions:
REMARK  status: ('A' for Active; 'I' for Inactive)
REMARK    1  A    between atoms: C_1  and  C_2
REMARK    2  A    between atoms: C_5  and  N_6
REMARK    3  A    between atoms: C_12  and  C_13
REMARK    4  A    between atoms: C_13  and  N_14
REMARK    5  A    between atoms: C_17  and  C_18
REMARK    6  A    between atoms: C_19  and  C_20
REMARK                            x       y       z     vdW  Elec       q    Type
REMARK                         _______ _______ _______ _____ _____    ______ ____
ROOT
ATOM      1  N   UNL     1       0.199  10.069  17.734  0.00  0.00    +0.000 N 
ATOM      2  C   UNL     1       0.940   9.143  18.477  0.00  0.00    +0.000 A 
ATOM      3  N   UNL     1       0.827   9.132  19.802  0.00  0.00    +0.000 NA
ATOM      4  C   UNL     1       1.596   8.281  20.447  0.00  0.00    +0.000 A 
ATOM      5  N   UNL     1       1.504   8.267  21.822  0.00  0.00    +0.000 N 
ATOM      6  N   UNL     1       2.428   7.430  19.875  0.00  0.00    +0.000 NA
ATOM      7  C   UNL     1       2.486   7.499  18.543  0.00  0.00    +0.000 A 
ATOM      8  N   UNL     1       1.768   8.346  17.799  0.00  0.00    +0.000 NA
ATOM      9  H   UNL     1       0.313   9.867  16.749  0.00  0.00    +0.000 HD
ATOM     10  H   UNL     1       0.627   8.675  22.117  0.00  0.00    +0.000 HD
ATOM     11  H   UNL     1       1.750   7.363  22.198  0.00  0.00    +0.000 HD
ENDROOT
BRANCH   1  16
ATOM     12  C   UNL     1      -4.951  12.260  18.984  0.00  0.00    +0.000 C 
ATOM     13  C   UNL     1      -3.601  11.687  18.666  0.00  0.00    +0.000 A 
ATOM     14  C   UNL     1      -2.434  12.226  19.218  0.00  0.00    +0.000 A 
ATOM     15  C   UNL     1      -1.184  11.682  18.900  0.00  0.00    +0.000 A 
ATOM     16  C   UNL     1      -1.077  10.573  18.053  0.00  0.00    +0.000 A 
ATOM     17  C   UNL     1      -2.249  10.050  17.494  0.00  0.00    +0.000 A 
ATOM     18  C   UNL     1      -3.498  10.598  17.798  0.00  0.00    +0.000 A 
ENDBRANCH   1  16
BRANCH   7  19
ATOM     19  C   UNL     1       3.492   6.619  17.848  0.00  0.00    +0.000 C 
BRANCH  19  20
ATOM     20  N   UNL     1       3.133   5.213  17.932  0.00  0.00    +0.000 N 
ATOM     21  C   UNL     1       1.889   4.717  17.651  0.00  0.00    +0.000 A 
ATOM     22  N   UNL     1       1.859   3.408  17.741  0.00  0.00    +0.000 NA
ATOM     23  C   UNL     1       3.136   3.031  18.083  0.00  0.00    +0.000 A 
ATOM     24  C   UNL     1       3.468   1.602  18.283  0.00  0.00    +0.000 C 
ATOM     25  C   UNL     1       3.960   4.141  18.184  0.00  0.00    +0.000 A 
ATOM     26  C   UNL     1       5.405   4.248  18.498  0.00  0.00    +0.000 C 
ENDBRANCH  19  20
ENDBRANCH   7  19
TORSDOF 3
ENDMDL
MODEL 9
REMARK VINA RESULT:      -8.1      4.545      6.899
REMARK  Name = 
REMARK  6 active torsions:
REMARK  status: ('A' for Active; 'I' for Inactive)
REMARK    1  A    between atoms: C_1  and  C_2
REMARK    2  A    between atoms: C_5  and  N_6
REMARK    3  A    between atoms: C_12  and  C_13
REMARK    4  A    between atoms: C_13  and  N_14
REMARK    5  A    between atoms: C_17  and  C_18
REMARK    6  A    between atoms: C_19  and  C_20
REMARK                            x       y       z     vdW  Elec       q    Type
REMARK                         _______ _______ _______ _____ _____    ______ ____
ROOT
ATOM      1  N   UNL     1       2.592   7.726  20.015  0.00  0.00    +0.000 N 
ATOM      2  C   UNL     1       2.589   6.335  19.865  0.00  0.00    +0.000 A 
ATOM      3  N   UNL     1       1.488   5.651  20.165  0.00  0.00    +0.000 NA
ATOM      4  C   UNL     1       1.568   4.341  20.064  0.00  0.00    +0.000 A 
ATOM      5  N   UNL     1       0.442   3.615  20.387  0.00  0.00    +0.000 N 
ATOM      6  N   UNL     1       2.635   3.678  19.658  0.00  0.00    +0.000 NA
ATOM      7  C   UNL     1       3.700   4.432  19.373  0.00  0.00    +0.000 A 
ATOM      8  N   UNL     1       3.729   5.765  19.471  0.00  0.00    +0.000 NA
ATOM      9  H   UNL     1       3.456   8.095  19.639  0.00  0.00    +0.000 HD
ATOM     10  H   UNL     1      -0.379   4.203  20.336  0.00  0.00    +0.000 HD
ATOM     11  H   UNL     1       0.418   2.735  19.893  0.00  0.00    +0.000 HD
ENDROOT
BRANCH   1  16
ATOM     12  C   UNL     1      -1.813  11.346  19.405  0.00  0.00    +0.000 C 
ATOM     13  C   UNL     1      -0.667  10.393  19.570  0.00  0.00    +0.000 A 
ATOM     14  C   UNL     1      -0.355   9.839  20.815  0.00  0.00    +0.000 A 
ATOM     15  C   UNL     1       0.726   8.959  20.949  0.00  0.00    +0.000 A 
ATOM     16  C   UNL     1       1.496   8.592  19.839  0.00  0.00    +0.000 A 
ATOM     17  C   UNL     1       1.186   9.164  18.599  0.00  0.00    +0.000 A 
ATOM     18  C   UNL     1       0.116  10.053  18.464  0.00  0.00    +0.000 A 
ENDBRANCH   1  16
BRANCH   7  19
ATOM     19  C   UNL     1       4.973   3.718  19.001  0.00  0.00    +0.000 C 
BRANCH  19  20
ATOM     20  N   UNL     1       5.340   3.950  17.615  0.00  0.00    +0.000 N 
ATOM     21  C   UNL     1       4.485   3.803  16.556  0.00  0.00    +0.000 A 
ATOM     22  N   UNL     1       5.055   4.141  15.424  0.00  0.00    +0.000 NA
ATOM     23  C   UNL     1       6.329   4.536  15.754  0.00  0.00    +0.000 A 
ATOM     24  C   UNL     1       7.274   4.979  14.703  0.00  0.00    +0.000 C 
ATOM     25  C   UNL     1       6.526   4.449  17.123  0.00  0.00    +0.000 A 
ATOM     26  C   UNL     1       7.708   4.782  17.955  0.00  0.00    +0.000 C 
ENDBRANCH  19  20
ENDBRANCH   7  19
TORSDOF 3
ENDMDL
