MODEL 1
REMARK VINA RESULT:      -7.7      0.000      0.000
REMARK  Name = 
REMARK  2 active torsions:
REMARK  status: ('A' for Active; 'I' for Inactive)
REMARK    1  A    between atoms: C_2  and  C_12
REMARK    2  A    between atoms: N_3  and  C_4
REMARK                            x       y       z     vdW  Elec       q    Type
REMARK                         _______ _______ _______ _____ _____    ______ ____
ROOT
ATOM      1  O   UNL     1       4.452   5.675  17.281  0.00  0.00    +0.000 OA
ATOM      2  C   UNL     1       5.315   4.834  17.534  0.00  0.00    +0.000 C 
ATOM      3  N   UNL     1       5.044   3.759  18.344  0.00  0.00    +0.000 N 
ATOM      4  H   UNL     1       5.783   3.139  18.658  0.00  0.00    +0.000 HD
ENDROOT
BRANCH   3   5
ATOM      5  C   UNL     1       3.712   3.570  18.920  0.00  0.00    +0.000 C 
ATOM      6  C   UNL     1       2.765   3.020  17.850  0.00  0.00    +0.000 C 
ATOM      7  C   UNL     1       1.289   3.303  18.132  0.00  0.00    +0.000 C 
ATOM      8  C   UNL     1       0.726   2.569  19.346  0.00  0.00    +0.000 C 
ATOM      9  C   UNL     1       1.386   2.974  20.658  0.00  0.00    +0.000 C 
ATOM     10  N   UNL     1       2.685   2.362  20.841  0.00  0.00    +0.000 N 
ATOM     11  C   UNL     1       3.821   2.631  20.132  0.00  0.00    +0.000 C 
ATOM     12  O   UNL     1       4.887   2.119  20.482  0.00  0.00    +0.000 OA
ATOM     13  H   UNL     1       2.836   1.773  21.651  0.00  0.00    +0.000 HD
ENDBRANCH   3   5
BRANCH   2  14
ATOM     14  C   UNL     1       6.744   4.921  17.001  0.00  0.00    +0.000 C 
ATOM     15  C   UNL     1       7.053   6.272  16.340  0.00  0.00    +0.000 C 
ATOM     16  C   UNL     1       7.129   7.413  17.354  0.00  0.00    +0.000 C 
ATOM     17  C   UNL     1       8.132   7.120  18.466  0.00  0.00    +0.000 C 
ATOM     18  C   UNL     1       7.882   5.773  19.132  0.00  0.00    +0.000 C 
ATOM     19  C   UNL     1       7.767   4.634  18.116  0.00  0.00    +0.000 C 
ENDBRANCH   2  14
TORSDOF 2
ENDMDL
MODEL 2
REMARK VINA RESULT:      -7.3      1.797      2.849
REMARK  Name = 
REMARK  2 active torsions:
REMARK  status: ('A' for Active; 'I' for Inactive)
REMARK    1  A    between atoms: C_2  and  C_12
REMARK    2  A    between atoms: N_3  and  C_4
REMARK                            x       y       z     vdW  Elec       q    Type
REMARK                         _______ _______ _______ _____ _____    ______ ____
ROOT
ATOM      1  O   UNL     1       5.611   5.352  19.329  0.00  0.00    +0.000 OA
ATOM      2  C   UNL     1       5.099   5.639  18.246  0.00  0.00    +0.000 C 
ATOM      3  N   UNL     1       3.867   5.149  17.892  0.00  0.00    +0.000 N 
ATOM      4  H   UNL     1       3.501   5.276  16.954  0.00  0.00    +0.000 HD
ENDROOT
BRANCH   3   5
ATOM      5  C   UNL     1       3.115   4.280  18.799  0.00  0.00    +0.000 C 
ATOM      6  C   UNL     1       2.254   5.137  19.732  0.00  0.00    +0.000 C 
ATOM      7  C   UNL     1       1.880   4.435  21.038  0.00  0.00    +0.000 C 
ATOM      8  C   UNL     1       0.936   3.248  20.869  0.00  0.00    +0.000 C 
ATOM      9  C   UNL     1       1.535   2.109  20.054  0.00  0.00    +0.000 C 
ATOM     10  N   UNL     1       1.520   2.374  18.631  0.00  0.00    +0.000 N 
ATOM     11  C   UNL     1       2.267   3.304  17.967  0.00  0.00    +0.000 C 
ATOM     12  O   UNL     1       2.240   3.332  16.734  0.00  0.00    +0.000 OA
ATOM     13  H   UNL     1       1.022   1.735  18.022  0.00  0.00    +0.000 HD
ENDBRANCH   3   5
BRANCH   2  14
ATOM     14  C   UNL     1       5.784   6.528  17.210  0.00  0.00    +0.000 C 
ATOM     15  C   UNL     1       7.288   6.245  17.082  0.00  0.00    +0.000 C 
ATOM     16  C   UNL     1       7.572   4.893  16.430  0.00  0.00    +0.000 C 
ATOM     17  C   UNL     1       6.885   4.760  15.074  0.00  0.00    +0.000 C 
ATOM     18  C   UNL     1       5.394   5.061  15.148  0.00  0.00    +0.000 C 
ATOM     19  C   UNL     1       5.104   6.398  15.835  0.00  0.00    +0.000 C 
ENDBRANCH   2  14
TORSDOF 2
ENDMDL
MODEL 3
REMARK VINA RESULT:      -7.3      2.086      5.697
REMARK  Name = 
REMARK  2 active torsions:
REMARK  status: ('A' for Active; 'I' for Inactive)
REMARK    1  A    between atoms: C_2  and  C_12
REMARK    2  A    between atoms: N_3  and  C_4
REMARK                            x       y       z     vdW  Elec       q    Type
REMARK                         _______ _______ _______ _____ _____    ______ ____
ROOT
ATOM      1  O   UNL     1       2.230   3.464  17.149  0.00  0.00    +0.000 OA
ATOM      2  C   UNL     1       2.317   4.137  18.176  0.00  0.00    +0.000 C 
ATOM      3  N   UNL     1       3.483   4.781  18.507  0.00  0.00    +0.000 N 
ATOM      4  H   UNL     1       3.598   5.226  19.412  0.00  0.00    +0.000 HD
ENDROOT
BRANCH   3   5
ATOM      5  C   UNL     1       4.658   4.701  17.638  0.00  0.00    +0.000 C 
ATOM      6  C   UNL     1       4.697   5.924  16.716  0.00  0.00    +0.000 C 
ATOM      7  C   UNL     1       5.498   5.700  15.433  0.00  0.00    +0.000 C 
ATOM      8  C   UNL     1       6.998   5.520  15.650  0.00  0.00    +0.000 C 
ATOM      9  C   UNL     1       7.348   4.282  16.466  0.00  0.00    +0.000 C 
ATOM     10  N   UNL     1       7.125   4.468  17.884  0.00  0.00    +0.000 N 
ATOM     11  C   UNL     1       5.919   4.597  18.510  0.00  0.00    +0.000 C 
ATOM     12  O   UNL     1       5.878   4.626  19.743  0.00  0.00    +0.000 OA
ATOM     13  H   UNL     1       7.908   4.360  18.518  0.00  0.00    +0.000 HD
ENDBRANCH   3   5
BRANCH   2  14
ATOM     14  C   UNL     1       1.166   4.293  19.169  0.00  0.00    +0.000 C 
ATOM     15  C   UNL     1       0.590   2.947  19.630  0.00  0.00    +0.000 C 
ATOM     16  C   UNL     1       1.554   2.179  20.533  0.00  0.00    +0.000 C 
ATOM     17  C   UNL     1       1.994   3.011  21.734  0.00  0.00    +0.000 C 
ATOM     18  C   UNL     1       2.547   4.370  21.325  0.00  0.00    +0.000 C 
ATOM     19  C   UNL     1       1.600   5.126  20.390  0.00  0.00    +0.000 C 
ENDBRANCH   2  14
TORSDOF 2
ENDMDL
MODEL 4
REMARK VINA RESULT:      -7.3      0.882      1.384
REMARK  Name = 
REMARK  2 active torsions:
REMARK  status: ('A' for Active; 'I' for Inactive)
REMARK    1  A    between atoms: C_2  and  C_12
REMARK    2  A    between atoms: N_3  and  C_4
REMARK                            x       y       z     vdW  Elec       q    Type
REMARK                         _______ _______ _______ _____ _____    ______ ____
ROOT
ATOM      1  O   UNL     1       5.448   5.678  19.749  0.00  0.00    +0.000 OA
ATOM      2  C   UNL     1       5.927   4.793  19.039  0.00  0.00    +0.000 C 
ATOM      3  N   UNL     1       5.195   3.683  18.699  0.00  0.00    +0.000 N 
ATOM      4  H   UNL     1       5.627   2.895  18.225  0.00  0.00    +0.000 HD
ENDROOT
BRANCH   3   5
ATOM      5  C   UNL     1       3.815   3.523  19.157  0.00  0.00    +0.000 C 
ATOM      6  C   UNL     1       2.933   3.086  17.984  0.00  0.00    +0.000 C 
ATOM      7  C   UNL     1       1.453   3.422  18.169  0.00  0.00    +0.000 C 
ATOM      8  C   UNL     1       0.764   2.643  19.286  0.00  0.00    +0.000 C 
ATOM      9  C   UNL     1       1.334   2.933  20.668  0.00  0.00    +0.000 C 
ATOM     10  N   UNL     1       2.586   2.249  20.910  0.00  0.00    +0.000 N 
ATOM     11  C   UNL     1       3.785   2.507  20.310  0.00  0.00    +0.000 C 
ATOM     12  O   UNL     1       4.797   1.923  20.707  0.00  0.00    +0.000 OA
ATOM     13  H   UNL     1       2.647   1.604  21.689  0.00  0.00    +0.000 HD
ENDBRANCH   3   5
BRANCH   2  14
ATOM     14  C   UNL     1       7.357   4.838  18.503  0.00  0.00    +0.000 C 
ATOM     15  C   UNL     1       7.440   4.534  17.000  0.00  0.00    +0.000 C 
ATOM     16  C   UNL     1       6.853   5.656  16.146  0.00  0.00    +0.000 C 
ATOM     17  C   UNL     1       7.498   7.004  16.455  0.00  0.00    +0.000 C 
ATOM     18  C   UNL     1       7.464   7.334  17.942  0.00  0.00    +0.000 C 
ATOM     19  C   UNL     1       8.016   6.196  18.803  0.00  0.00    +0.000 C 
ENDBRANCH   2  14
TORSDOF 2
ENDMDL
MODEL 5
REMARK VINA RESULT:      -7.2      1.526      6.122
REMARK  Name = 
REMARK  2 active torsions:
REMARK  status: ('A' for Active; 'I' for Inactive)
REMARK    1  A    between atoms: C_2  and  C_12
REMARK    2  A    between atoms: N_3  and  C_4
REMARK                            x       y       z     vdW  Elec       q    Type
REMARK                         _______ _______ _______ _____ _____    ______ ____
ROOT
ATOM      1  O   UNL     1       3.472   5.103  20.077  0.00  0.00    +0.000 OA
ATOM      2  C   UNL     1       3.998   4.051  19.713  0.00  0.00    +0.000 C 
ATOM      3  N   UNL     1       5.123   4.055  18.926  0.00  0.00    +0.000 N 
ATOM      4  H   UNL     1       5.481   3.197  18.518  0.00  0.00    +0.000 HD
ENDROOT
BRANCH   3   5
ATOM      5  C   UNL     1       5.743   5.313  18.508  0.00  0.00    +0.000 C 
ATOM      6  C   UNL     1       7.262   5.213  18.668  0.00  0.00    +0.000 C 
ATOM      7  C   UNL     1       7.955   6.568  18.812  0.00  0.00    +0.000 C 
ATOM      8  C   UNL     1       7.906   7.437  17.558  0.00  0.00    +0.000 C 
ATOM      9  C   UNL     1       6.494   7.841  17.155  0.00  0.00    +0.000 C 
ATOM     10  N   UNL     1       5.777   6.774  16.491  0.00  0.00    +0.000 N 
ATOM     11  C   UNL     1       5.335   5.612  17.057  0.00  0.00    +0.000 C 
ATOM     12  O   UNL     1       4.629   4.848  16.394  0.00  0.00    +0.000 OA
ATOM     13  H   UNL     1       5.435   6.929  15.550  0.00  0.00    +0.000 HD
ENDBRANCH   3   5
BRANCH   2  14
ATOM     14  C   UNL     1       3.445   2.674  20.075  0.00  0.00    +0.000 C 
ATOM     15  C   UNL     1       2.143   2.749  20.886  0.00  0.00    +0.000 C 
ATOM     16  C   UNL     1       0.964   3.244  20.050  0.00  0.00    +0.000 C 
ATOM     17  C   UNL     1       0.764   2.401  18.793  0.00  0.00    +0.000 C 
ATOM     18  C   UNL     1       2.040   2.275  17.971  0.00  0.00    +0.000 C 
ATOM     19  C   UNL     1       3.232   1.816  18.814  0.00  0.00    +0.000 C 
ENDBRANCH   2  14
TORSDOF 2
ENDMDL
MODEL 6
REMARK VINA RESULT:      -7.2      1.715      2.584
REMARK  Name = 
REMARK  2 active torsions:
REMARK  status: ('A' for Active; 'I' for Inactive)
REMARK    1  A    between atoms: C_2  and  C_12
REMARK    2  A    between atoms: N_3  and  C_4
REMARK                            x       y       z     vdW  Elec       q    Type
REMARK                         _______ _______ _______ _____ _____    ______ ____
ROOT
ATOM      1  O   UNL     1       6.350   4.824  19.863  0.00  0.00    +0.000 OA
ATOM      2  C   UNL     1       5.986   5.127  18.726  0.00  0.00    +0.000 C 
ATOM      3  N   UNL     1       4.694   4.914  18.314  0.00  0.00    +0.000 N 
ATOM      4  H   UNL     1       4.425   5.041  17.344  0.00  0.00    +0.000 HD
ENDROOT
BRANCH   3   5
ATOM      5  C   UNL     1       3.702   4.334  19.221  0.00  0.00    +0.000 C 
ATOM      6  C   UNL     1       2.471   5.243  19.282  0.00  0.00    +0.000 C 
ATOM      7  C   UNL     1       1.645   5.072  20.556  0.00  0.00    +0.000 C 
ATOM      8  C   UNL     1       0.947   3.720  20.679  0.00  0.00    +0.000 C 
ATOM      9  C   UNL     1       1.912   2.545  20.764  0.00  0.00    +0.000 C 
ATOM     10  N   UNL     1       2.468   2.186  19.476  0.00  0.00    +0.000 N 
ATOM     11  C   UNL     1       3.350   2.919  18.735  0.00  0.00    +0.000 C 
ATOM     12  O   UNL     1       3.833   2.428  17.712  0.00  0.00    +0.000 OA
ATOM     13  H   UNL     1       2.315   1.248  19.125  0.00  0.00    +0.000 HD
ENDBRANCH   3   5
BRANCH   2  14
ATOM     14  C   UNL     1       6.925   5.732  17.685  0.00  0.00    +0.000 C 
ATOM     15  C   UNL     1       7.465   4.691  16.692  0.00  0.00    +0.000 C 
ATOM     16  C   UNL     1       6.385   4.179  15.741  0.00  0.00    +0.000 C 
ATOM     17  C   UNL     1       5.695   5.320  14.997  0.00  0.00    +0.000 C 
ATOM     18  C   UNL     1       5.169   6.392  15.942  0.00  0.00    +0.000 C 
ATOM     19  C   UNL     1       6.238   6.880  16.922  0.00  0.00    +0.000 C 
ENDBRANCH   2  14
TORSDOF 2
ENDMDL
MODEL 7
REMARK VINA RESULT:      -7.1      1.484      1.711
REMARK  Name = 
REMARK  2 active torsions:
REMARK  status: ('A' for Active; 'I' for Inactive)
REMARK    1  A    between atoms: C_2  and  C_12
REMARK    2  A    between atoms: N_3  and  C_4
REMARK                            x       y       z     vdW  Elec       q    Type
REMARK                         _______ _______ _______ _____ _____    ______ ____
ROOT
ATOM      1  O   UNL     1       5.982   4.740  19.898  0.00  0.00    +0.000 OA
ATOM      2  C   UNL     1       5.840   4.480  18.702  0.00  0.00    +0.000 C 
ATOM      3  N   UNL     1       4.659   3.970  18.222  0.00  0.00    +0.000 N 
ATOM      4  H   UNL     1       4.582   3.635  17.268  0.00  0.00    +0.000 HD
ENDROOT
BRANCH   3   5
ATOM      5  C   UNL     1       3.525   3.733  19.116  0.00  0.00    +0.000 C 
ATOM      6  C   UNL     1       2.549   4.910  19.027  0.00  0.00    +0.000 C 
ATOM      7  C   UNL     1       1.661   5.066  20.262  0.00  0.00    +0.000 C 
ATOM      8  C   UNL     1       0.652   3.937  20.460  0.00  0.00    +0.000 C 
ATOM      9  C   UNL     1       1.301   2.581  20.701  0.00  0.00    +0.000 C 
ATOM     10  N   UNL     1       1.799   1.976  19.484  0.00  0.00    +0.000 N 
ATOM     11  C   UNL     1       2.858   2.402  18.735  0.00  0.00    +0.000 C 
ATOM     12  O   UNL     1       3.243   1.713  17.787  0.00  0.00    +0.000 OA
ATOM     13  H   UNL     1       1.436   1.071  19.206  0.00  0.00    +0.000 HD
ENDBRANCH   3   5
BRANCH   2  14
ATOM     14  C   UNL     1       6.949   4.675  17.670  0.00  0.00    +0.000 C 
ATOM     15  C   UNL     1       6.509   5.538  16.478  0.00  0.00    +0.000 C 
ATOM     16  C   UNL     1       6.310   7.003  16.863  0.00  0.00    +0.000 C 
ATOM     17  C   UNL     1       7.555   7.593  17.520  0.00  0.00    +0.000 C 
ATOM     18  C   UNL     1       8.045   6.752  18.692  0.00  0.00    +0.000 C 
ATOM     19  C   UNL     1       8.208   5.276  18.320  0.00  0.00    +0.000 C 
ENDBRANCH   2  14
TORSDOF 2
ENDMDL
MODEL 8
REMARK VINA RESULT:      -7.1      1.591      5.811
REMARK  Name = 
REMARK  2 active torsions:
REMARK  status: ('A' for Active; 'I' for Inactive)
REMARK    1  A    between atoms: C_2  and  C_12
REMARK    2  A    between atoms: N_3  and  C_4
REMARK                            x       y       z     vdW  Elec       q    Type
REMARK                         _______ _______ _______ _____ _____    ______ ____
ROOT
ATOM      1  O   UNL     1       5.227   2.777  19.949  0.00  0.00    +0.000 OA
ATOM      2  C   UNL     1       4.132   2.797  19.386  0.00  0.00    +0.000 C 
ATOM      3  N   UNL     1       3.958   3.456  18.195  0.00  0.00    +0.000 N 
ATOM      4  H   UNL     1       3.033   3.584  17.796  0.00  0.00    +0.000 HD
ENDROOT
BRANCH   3   5
ATOM      5  C   UNL     1       5.075   4.145  17.547  0.00  0.00    +0.000 C 
ATOM      6  C   UNL     1       5.049   3.858  16.043  0.00  0.00    +0.000 C 
ATOM      7  C   UNL     1       6.408   4.026  15.363  0.00  0.00    +0.000 C 
ATOM      8  C   UNL     1       6.920   5.463  15.321  0.00  0.00    +0.000 C 
ATOM      9  C   UNL     1       7.177   6.055  16.701  0.00  0.00    +0.000 C 
ATOM     10  N   UNL     1       5.960   6.466  17.367  0.00  0.00    +0.000 N 
ATOM     11  C   UNL     1       4.978   5.648  17.849  0.00  0.00    +0.000 C 
ATOM     12  O   UNL     1       4.055   6.136  18.505  0.00  0.00    +0.000 OA
ATOM     13  H   UNL     1       5.858   7.436  17.641  0.00  0.00    +0.000 HD
ENDBRANCH   3   5
BRANCH   2  14
ATOM     14  C   UNL     1       2.887   2.124  19.962  0.00  0.00    +0.000 C 
ATOM     15  C   UNL     1       2.524   2.641  21.362  0.00  0.00    +0.000 C 
ATOM     16  C   UNL     1       2.003   4.077  21.335  0.00  0.00    +0.000 C 
ATOM     17  C   UNL     1       0.821   4.236  20.383  0.00  0.00    +0.000 C 
ATOM     18  C   UNL     1       1.127   3.709  18.987  0.00  0.00    +0.000 C 
ATOM     19  C   UNL     1       1.685   2.284  19.013  0.00  0.00    +0.000 C 
ENDBRANCH   2  14
TORSDOF 2
ENDMDL
MODEL 9
REMARK VINA RESULT:      -7.1      1.990      6.131
REMARK  Name = 
REMARK  2 active torsions:
REMARK  status: ('A' for Active; 'I' for Inactive)
REMARK    1  A    between atoms: C_2  and  C_12
REMARK    2  A    between atoms: N_3  and  C_4
REMARK                            x       y       z     vdW  Elec       q    Type
REMARK                         _______ _______ _______ _____ _____    ______ ____
ROOT
ATOM      1  O   UNL     1       3.190   5.817  20.057  0.00  0.00    +0.000 OA
ATOM      2  C   UNL     1       2.931   5.332  18.956  0.00  0.00    +0.000 C 
ATOM      3  N   UNL     1       3.830   5.401  17.921  0.00  0.00    +0.000 N 
ATOM      4  H   UNL     1       3.571   5.119  16.980  0.00  0.00    +0.000 HD
ENDROOT
BRANCH   3   5
ATOM      5  C   UNL     1       5.134   6.041  18.099  0.00  0.00    +0.000 C 
ATOM      6  C   UNL     1       6.108   5.048  18.741  0.00  0.00    +0.000 C 
ATOM      7  C   UNL     1       7.270   5.716  19.476  0.00  0.00    +0.000 C 
ATOM      8  C   UNL     1       8.249   6.455  18.568  0.00  0.00    +0.000 C 
ATOM      9  C   UNL     1       7.622   7.629  17.828  0.00  0.00    +0.000 C 
ATOM     10  N   UNL     1       6.825   7.212  16.694  0.00  0.00    +0.000 N 
ATOM     11  C   UNL     1       5.636   6.541  16.736  0.00  0.00    +0.000 C 
ATOM     12  O   UNL     1       5.009   6.360  15.689  0.00  0.00    +0.000 OA
ATOM     13  H   UNL     1       7.074   7.551  15.773  0.00  0.00    +0.000 HD
ENDBRANCH   3   5
BRANCH   2  14
ATOM     14  C   UNL     1       1.604   4.644  18.639  0.00  0.00    +0.000 C 
ATOM     15  C   UNL     1       1.727   3.593  17.527  0.00  0.00    +0.000 C 
ATOM     16  C   UNL     1       2.510   2.360  17.976  0.00  0.00    +0.000 C 
ATOM     17  C   UNL     1       1.916   1.737  19.236  0.00  0.00    +0.000 C 
ATOM     18  C   UNL     1       1.748   2.753  20.359  0.00  0.00    +0.000 C 
ATOM     19  C   UNL     1       0.998   4.006  19.903  0.00  0.00    +0.000 C 
ENDBRANCH   2  14
TORSDOF 2
ENDMDL
