MODEL 1
REMARK VINA RESULT:      -7.1      0.000      0.000
REMARK  Name = 
REMARK  6 active torsions:
REMARK  status: ('A' for Active; 'I' for Inactive)
REMARK    1  A    between atoms: C_1  and  C_2
REMARK    2  A    between atoms: C_2  and  N_3
REMARK    3  A    between atoms: C_7  and  C_8
REMARK    4  A    between atoms: C_8  and  N_9
REMARK    5  A    between atoms: C_10  and  C_12
REMARK    6  A    between atoms: C_17  and  C_18
REMARK                            x       y       z     vdW  Elec       q    Type
REMARK                         _______ _______ _______ _____ _____    ______ ____
ROOT
ATOM      1  N   UNL     1       4.888   3.273  19.471  0.00  0.00    +0.000 N 
ATOM      2  C   UNL     1       4.855   3.350  18.100  0.00  0.00    +0.000 C 
ATOM      3  O   UNL     1       4.123   2.657  17.393  0.00  0.00    +0.000 OA
ATOM      4  H   UNL     1       5.523   3.885  19.972  0.00  0.00    +0.000 HD
ENDROOT
BRANCH   2   5
ATOM      5  C   UNL     1       5.774   4.338  17.539  0.00  0.00    +0.000 A 
ATOM      6  C   UNL     1       6.155   5.500  18.191  0.00  0.00    +0.000 A 
ATOM      7  S   UNL     1       7.225   6.405  17.203  0.00  0.00    +0.000 S 
ATOM      8  C   UNL     1       7.029   5.241  15.971  0.00  0.00    +0.000 A 
ATOM      9  N   UNL     1       7.623   5.568  14.792  0.00  0.00    +0.000 N 
ATOM     10  C   UNL     1       7.380   5.017  13.574  0.00  0.00    +0.000 C 
ATOM     11  C   UNL     1       6.335   3.951  13.350  0.00  0.00    +0.000 C 
ATOM     12  O   UNL     1       8.027   5.441  12.613  0.00  0.00    +0.000 OA
ATOM     13  N   UNL     1       6.319   4.188  16.267  0.00  0.00    +0.000 NA
ATOM     14  H   UNL     1       8.255   6.356  14.789  0.00  0.00    +0.000 HD
ENDBRANCH   2   5
BRANCH   1  15
ATOM     15  C   UNL     1       4.040   2.366  20.223  0.00  0.00    +0.000 C 
BRANCH  15  20
ATOM     16  N   UNL     1       2.449   4.297  19.978  0.00  0.00    +0.000 NA
ATOM     17  C   UNL     1       1.503   4.104  18.861  0.00  0.00    +0.000 C 
ATOM     18  C   UNL     1       0.564   3.015  19.335  0.00  0.00    +0.000 C 
ATOM     19  C   UNL     1       1.496   2.059  20.045  0.00  0.00    +0.000 C 
ATOM     20  C   UNL     1       2.645   2.938  20.561  0.00  0.00    +0.000 C 
BRANCH  16  22
ATOM     21  C   UNL     1       1.842   6.687  20.438  0.00  0.00    +0.000 C 
ATOM     22  C   UNL     1       1.892   5.254  20.956  0.00  0.00    +0.000 C 
ENDBRANCH  16  22
ENDBRANCH  15  20
ENDBRANCH   1  15
TORSDOF 4
ENDMDL
MODEL 2
REMARK VINA RESULT:      -7.1      4.550      7.579
REMARK  Name = 
REMARK  6 active torsions:
REMARK  status: ('A' for Active; 'I' for Inactive)
REMARK    1  A    between atoms: C_1  and  C_2
REMARK    2  A    between atoms: C_2  and  N_3
REMARK    3  A    between atoms: C_7  and  C_8
REMARK    4  A    between atoms: C_8  and  N_9
REMARK    5  A    between atoms: C_10  and  C_12
REMARK    6  A    between atoms: C_17  and  C_18
REMARK                            x       y       z     vdW  Elec       q    Type
REMARK                         _______ _______ _______ _____ _____    ______ ____
ROOT
ATOM      1  N   UNL     1       2.522   6.849  19.872  0.00  0.00    +0.000 N 
ATOM      2  C   UNL     1       2.434   7.709  18.805  0.00  0.00    +0.000 C 
ATOM      3  O   UNL     1       3.004   7.526  17.729  0.00  0.00    +0.000 OA
ATOM      4  H   UNL     1       2.017   7.082  20.721  0.00  0.00    +0.000 HD
ENDROOT
BRANCH   2   5
ATOM      5  C   UNL     1       1.594   8.879  19.054  0.00  0.00    +0.000 A 
ATOM      6  C   UNL     1       1.458   9.937  18.169  0.00  0.00    +0.000 A 
ATOM      7  S   UNL     1       0.404  11.120  18.825  0.00  0.00    +0.000 S 
ATOM      8  C   UNL     1       0.285  10.187  20.248  0.00  0.00    +0.000 A 
ATOM      9  N   UNL     1      -0.402  10.788  21.256  0.00  0.00    +0.000 N 
ATOM     10  C   UNL     1      -0.390  10.446  22.571  0.00  0.00    +0.000 C 
ATOM     11  C   UNL     1       0.465   9.330  23.121  0.00  0.00    +0.000 C 
ATOM     12  O   UNL     1      -1.090  11.108  23.342  0.00  0.00    +0.000 OA
ATOM     13  N   UNL     1       0.878   9.025  20.239  0.00  0.00    +0.000 NA
ATOM     14  H   UNL     1      -0.918  11.628  21.035  0.00  0.00    +0.000 HD
ENDBRANCH   2   5
BRANCH   1  15
ATOM     15  C   UNL     1       3.293   5.621  19.825  0.00  0.00    +0.000 C 
BRANCH  15  20
ATOM     16  N   UNL     1       3.230   3.111  19.935  0.00  0.00    +0.000 NA
ATOM     17  C   UNL     1       2.727   2.620  21.233  0.00  0.00    +0.000 C 
ATOM     18  C   UNL     1       1.248   2.945  21.222  0.00  0.00    +0.000 C 
ATOM     19  C   UNL     1       1.215   4.313  20.578  0.00  0.00    +0.000 C 
ATOM     20  C   UNL     1       2.440   4.344  19.653  0.00  0.00    +0.000 C 
BRANCH  16  22
ATOM     21  C   UNL     1       2.576   2.639  17.559  0.00  0.00    +0.000 C 
ATOM     22  C   UNL     1       3.048   2.076  18.896  0.00  0.00    +0.000 C 
ENDBRANCH  16  22
ENDBRANCH  15  20
ENDBRANCH   1  15
TORSDOF 4
ENDMDL
MODEL 3
REMARK VINA RESULT:      -6.9      4.191      7.036
REMARK  Name = 
REMARK  6 active torsions:
REMARK  status: ('A' for Active; 'I' for Inactive)
REMARK    1  A    between atoms: C_1  and  C_2
REMARK    2  A    between atoms: C_2  and  N_3
REMARK    3  A    between atoms: C_7  and  C_8
REMARK    4  A    between atoms: C_8  and  N_9
REMARK    5  A    between atoms: C_10  and  C_12
REMARK    6  A    between atoms: C_17  and  C_18
REMARK                            x       y       z     vdW  Elec       q    Type
REMARK                         _______ _______ _______ _____ _____    ______ ____
ROOT
ATOM      1  N   UNL     1       3.073   6.373  19.673  0.00  0.00    +0.000 N 
ATOM      2  C   UNL     1       2.932   7.211  18.595  0.00  0.00    +0.000 C 
ATOM      3  O   UNL     1       3.543   7.073  17.534  0.00  0.00    +0.000 OA
ATOM      4  H   UNL     1       2.528   6.565  20.506  0.00  0.00    +0.000 HD
ENDROOT
BRANCH   2   5
ATOM      5  C   UNL     1       1.982   8.300  18.810  0.00  0.00    +0.000 A 
ATOM      6  C   UNL     1       1.599   9.201  17.829  0.00  0.00    +0.000 A 
ATOM      7  S   UNL     1       0.487  10.336  18.473  0.00  0.00    +0.000 S 
ATOM      8  C   UNL     1       0.669   9.605  20.004  0.00  0.00    +0.000 A 
ATOM      9  N   UNL     1       0.037  10.258  21.016  0.00  0.00    +0.000 N 
ATOM     10  C   UNL     1       0.255  10.108  22.348  0.00  0.00    +0.000 C 
ATOM     11  C   UNL     1       1.311   9.186  22.907  0.00  0.00    +0.000 C 
ATOM     12  O   UNL     1      -0.425  10.788  23.121  0.00  0.00    +0.000 OA
ATOM     13  N   UNL     1       1.404   8.529  20.057  0.00  0.00    +0.000 NA
ATOM     14  H   UNL     1      -0.608  10.995  20.766  0.00  0.00    +0.000 HD
ENDBRANCH   2   5
BRANCH   1  15
ATOM     15  C   UNL     1       3.955   5.221  19.656  0.00  0.00    +0.000 C 
BRANCH  15  20
ATOM     16  N   UNL     1       1.753   4.045  19.369  0.00  0.00    +0.000 NA
ATOM     17  C   UNL     1       1.472   3.719  17.956  0.00  0.00    +0.000 C 
ATOM     18  C   UNL     1       2.439   2.604  17.619  0.00  0.00    +0.000 C 
ATOM     19  C   UNL     1       3.705   3.039  18.323  0.00  0.00    +0.000 C 
ATOM     20  C   UNL     1       3.225   3.865  19.525  0.00  0.00    +0.000 C 
BRANCH  16  22
ATOM     21  C   UNL     1       1.709   2.813  21.554  0.00  0.00    +0.000 C 
ATOM     22  C   UNL     1       0.979   3.155  20.259  0.00  0.00    +0.000 C 
ENDBRANCH  16  22
ENDBRANCH  15  20
ENDBRANCH   1  15
TORSDOF 4
ENDMDL
MODEL 4
REMARK VINA RESULT:      -6.9      4.978      7.653
REMARK  Name = 
REMARK  6 active torsions:
REMARK  status: ('A' for Active; 'I' for Inactive)
REMARK    1  A    between atoms: C_1  and  C_2
REMARK    2  A    between atoms: C_2  and  N_3
REMARK    3  A    between atoms: C_7  and  C_8
REMARK    4  A    between atoms: C_8  and  N_9
REMARK    5  A    between atoms: C_10  and  C_12
REMARK    6  A    between atoms: C_17  and  C_18
REMARK                            x       y       z     vdW  Elec       q    Type
REMARK                         _______ _______ _______ _____ _____    ______ ____
ROOT
ATOM      1  N   UNL     1       2.367   6.642  20.235  0.00  0.00    +0.000 N 
ATOM      2  C   UNL     1       2.038   7.796  19.567  0.00  0.00    +0.000 C 
ATOM      3  O   UNL     1       2.379   8.039  18.409  0.00  0.00    +0.000 OA
ATOM      4  H   UNL     1       2.040   6.528  21.189  0.00  0.00    +0.000 HD
ENDROOT
BRANCH   2   5
ATOM      5  C   UNL     1       1.236   8.729  20.356  0.00  0.00    +0.000 A 
ATOM      6  C   UNL     1       1.139   8.693  21.737  0.00  0.00    +0.000 A 
ATOM      7  S   UNL     1       0.093   9.936  22.287  0.00  0.00    +0.000 S 
ATOM      8  C   UNL     1      -0.212  10.360  20.663  0.00  0.00    +0.000 A 
ATOM      9  N   UNL     1      -1.174  11.308  20.503  0.00  0.00    +0.000 N 
ATOM     10  C   UNL     1      -1.843  11.609  19.359  0.00  0.00    +0.000 C 
ATOM     11  C   UNL     1      -1.630  10.864  18.064  0.00  0.00    +0.000 C 
ATOM     12  O   UNL     1      -2.682  12.512  19.407  0.00  0.00    +0.000 OA
ATOM     13  N   UNL     1       0.473   9.726  19.752  0.00  0.00    +0.000 NA
ATOM     14  H   UNL     1      -1.494  11.793  21.329  0.00  0.00    +0.000 HD
ENDBRANCH   2   5
BRANCH   1  15
ATOM     15  C   UNL     1       3.144   5.580  19.623  0.00  0.00    +0.000 C 
BRANCH  15  20
ATOM     16  N   UNL     1       3.281   3.093  19.958  0.00  0.00    +0.000 NA
ATOM     17  C   UNL     1       2.763   2.676  21.277  0.00  0.00    +0.000 C 
ATOM     18  C   UNL     1       1.265   2.871  21.182  0.00  0.00    +0.000 C 
ATOM     19  C   UNL     1       1.148   4.170  20.415  0.00  0.00    +0.000 C 
ATOM     20  C   UNL     1       2.406   4.225  19.537  0.00  0.00    +0.000 C 
BRANCH  16  22
ATOM     21  C   UNL     1       2.685   2.342  17.640  0.00  0.00    +0.000 C 
ATOM     22  C   UNL     1       3.230   1.960  19.012  0.00  0.00    +0.000 C 
ENDBRANCH  16  22
ENDBRANCH  15  20
ENDBRANCH   1  15
TORSDOF 4
ENDMDL
MODEL 5
REMARK VINA RESULT:      -6.8      4.729      7.238
REMARK  Name = 
REMARK  6 active torsions:
REMARK  status: ('A' for Active; 'I' for Inactive)
REMARK    1  A    between atoms: C_1  and  C_2
REMARK    2  A    between atoms: C_2  and  N_3
REMARK    3  A    between atoms: C_7  and  C_8
REMARK    4  A    between atoms: C_8  and  N_9
REMARK    5  A    between atoms: C_10  and  C_12
REMARK    6  A    between atoms: C_17  and  C_18
REMARK                            x       y       z     vdW  Elec       q    Type
REMARK                         _______ _______ _______ _____ _____    ______ ____
ROOT
ATOM      1  N   UNL     1       2.945   6.539  19.985  0.00  0.00    +0.000 N 
ATOM      2  C   UNL     1       2.305   7.508  19.253  0.00  0.00    +0.000 C 
ATOM      3  O   UNL     1       2.390   7.610  18.029  0.00  0.00    +0.000 OA
ATOM      4  H   UNL     1       2.815   6.532  20.992  0.00  0.00    +0.000 HD
ENDROOT
BRANCH   2   5
ATOM      5  C   UNL     1       1.498   8.424  20.057  0.00  0.00    +0.000 A 
ATOM      6  C   UNL     1       1.422   8.379  21.440  0.00  0.00    +0.000 A 
ATOM      7  S   UNL     1       0.363   9.602  22.011  0.00  0.00    +0.000 S 
ATOM      8  C   UNL     1       0.026  10.027  20.393  0.00  0.00    +0.000 A 
ATOM      9  N   UNL     1      -0.954  10.959  20.252  0.00  0.00    +0.000 N 
ATOM     10  C   UNL     1      -1.646  11.253  19.119  0.00  0.00    +0.000 C 
ATOM     11  C   UNL     1      -1.439  10.517  17.818  0.00  0.00    +0.000 C 
ATOM     12  O   UNL     1      -2.500  12.140  19.183  0.00  0.00    +0.000 OA
ATOM     13  N   UNL     1       0.709   9.409  19.470  0.00  0.00    +0.000 NA
ATOM     14  H   UNL     1      -1.271  11.435  21.085  0.00  0.00    +0.000 HD
ENDBRANCH   2   5
BRANCH   1  15
ATOM     15  C   UNL     1       3.781   5.522  19.374  0.00  0.00    +0.000 C 
BRANCH  15  20
ATOM     16  N   UNL     1       1.701   4.111  19.357  0.00  0.00    +0.000 NA
ATOM     17  C   UNL     1       1.380   3.603  18.008  0.00  0.00    +0.000 C 
ATOM     18  C   UNL     1       2.439   2.558  17.729  0.00  0.00    +0.000 C 
ATOM     19  C   UNL     1       3.689   3.191  18.299  0.00  0.00    +0.000 C 
ATOM     20  C   UNL     1       3.190   4.096  19.435  0.00  0.00    +0.000 C 
BRANCH  16  22
ATOM     21  C   UNL     1       1.942   3.067  21.625  0.00  0.00    +0.000 C 
ATOM     22  C   UNL     1       1.075   3.255  20.385  0.00  0.00    +0.000 C 
ENDBRANCH  16  22
ENDBRANCH  15  20
ENDBRANCH   1  15
TORSDOF 4
ENDMDL
MODEL 6
REMARK VINA RESULT:      -6.8      1.401      1.712
REMARK  Name = 
REMARK  6 active torsions:
REMARK  status: ('A' for Active; 'I' for Inactive)
REMARK    1  A    between atoms: C_1  and  C_2
REMARK    2  A    between atoms: C_2  and  N_3
REMARK    3  A    between atoms: C_7  and  C_8
REMARK    4  A    between atoms: C_8  and  N_9
REMARK    5  A    between atoms: C_10  and  C_12
REMARK    6  A    between atoms: C_17  and  C_18
REMARK                            x       y       z     vdW  Elec       q    Type
REMARK                         _______ _______ _______ _____ _____    ______ ____
ROOT
ATOM      1  N   UNL     1       4.891   3.117  18.334  0.00  0.00    +0.000 N 
ATOM      2  C   UNL     1       5.578   4.127  18.963  0.00  0.00    +0.000 C 
ATOM      3  O   UNL     1       5.577   4.299  20.182  0.00  0.00    +0.000 OA
ATOM      4  H   UNL     1       4.951   3.053  17.323  0.00  0.00    +0.000 HD
ENDROOT
BRANCH   2   5
ATOM      5  C   UNL     1       6.323   4.994  18.053  0.00  0.00    +0.000 A 
ATOM      6  C   UNL     1       6.734   6.279  18.370  0.00  0.00    +0.000 A 
ATOM      7  S   UNL     1       7.561   6.978  17.040  0.00  0.00    +0.000 S 
ATOM      8  C   UNL     1       7.234   5.571  16.132  0.00  0.00    +0.000 A 
ATOM      9  N   UNL     1       7.597   5.651  14.824  0.00  0.00    +0.000 N 
ATOM     10  C   UNL     1       7.187   4.844  13.811  0.00  0.00    +0.000 C 
ATOM     11  C   UNL     1       6.190   3.728  14.004  0.00  0.00    +0.000 C 
ATOM     12  O   UNL     1       7.634   5.068  12.683  0.00  0.00    +0.000 OA
ATOM     13  N   UNL     1       6.653   4.588  16.763  0.00  0.00    +0.000 NA
ATOM     14  H   UNL     1       8.168   6.436  14.545  0.00  0.00    +0.000 HD
ENDBRANCH   2   5
BRANCH   1  15
ATOM     15  C   UNL     1       4.103   2.138  19.059  0.00  0.00    +0.000 C 
BRANCH  15  20
ATOM     16  N   UNL     1       2.278   3.659  19.878  0.00  0.00    +0.000 NA
ATOM     17  C   UNL     1       1.916   4.687  18.882  0.00  0.00    +0.000 C 
ATOM     18  C   UNL     1       1.190   3.928  17.792  0.00  0.00    +0.000 C 
ATOM     19  C   UNL     1       1.998   2.654  17.681  0.00  0.00    +0.000 C 
ATOM     20  C   UNL     1       2.587   2.437  19.082  0.00  0.00    +0.000 C 
BRANCH  16  22
ATOM     21  C   UNL     1       1.480   2.446  21.925  0.00  0.00    +0.000 C 
ATOM     22  C   UNL     1       1.159   3.448  20.820  0.00  0.00    +0.000 C 
ENDBRANCH  16  22
ENDBRANCH  15  20
ENDBRANCH   1  15
TORSDOF 4
ENDMDL
MODEL 7
REMARK VINA RESULT:      -6.6      3.804      5.696
REMARK  Name = 
REMARK  6 active torsions:
REMARK  status: ('A' for Active; 'I' for Inactive)
REMARK    1  A    between atoms: C_1  and  C_2
REMARK    2  A    between atoms: C_2  and  N_3
REMARK    3  A    between atoms: C_7  and  C_8
REMARK    4  A    between atoms: C_8  and  N_9
REMARK    5  A    between atoms: C_10  and  C_12
REMARK    6  A    between atoms: C_17  and  C_18
REMARK                            x       y       z     vdW  Elec       q    Type
REMARK                         _______ _______ _______ _____ _____    ______ ____
ROOT
ATOM      1  N   UNL     1       2.267   7.408  19.253  0.00  0.00    +0.000 N 
ATOM      2  C   UNL     1       2.240   6.122  19.735  0.00  0.00    +0.000 C 
ATOM      3  O   UNL     1       1.673   5.793  20.777  0.00  0.00    +0.000 OA
ATOM      4  H   UNL     1       2.759   7.586  18.384  0.00  0.00    +0.000 HD
ENDROOT
BRANCH   2   5
ATOM      5  C   UNL     1       2.951   5.159  18.896  0.00  0.00    +0.000 A 
ATOM      6  C   UNL     1       2.399   3.974  18.438  0.00  0.00    +0.000 A 
ATOM      7  S   UNL     1       3.549   3.111  17.503  0.00  0.00    +0.000 S 
ATOM      8  C   UNL     1       4.700   4.321  17.852  0.00  0.00    +0.000 A 
ATOM      9  N   UNL     1       5.957   4.042  17.414  0.00  0.00    +0.000 N 
ATOM     10  C   UNL     1       7.112   4.639  17.808  0.00  0.00    +0.000 C 
ATOM     11  C   UNL     1       7.160   5.709  18.871  0.00  0.00    +0.000 C 
ATOM     12  O   UNL     1       8.163   4.254  17.289  0.00  0.00    +0.000 OA
ATOM     13  N   UNL     1       4.276   5.360  18.517  0.00  0.00    +0.000 NA
ATOM     14  H   UNL     1       6.070   3.257  16.788  0.00  0.00    +0.000 HD
ENDBRANCH   2   5
BRANCH   1  15
ATOM     15  C   UNL     1       1.606   8.509  19.928  0.00  0.00    +0.000 C 
BRANCH  15  20
ATOM     16  N   UNL     1       0.408  10.710  19.729  0.00  0.00    +0.000 NA
ATOM     17  C   UNL     1       1.343  11.846  19.600  0.00  0.00    +0.000 C 
ATOM     18  C   UNL     1       1.926  11.709  18.209  0.00  0.00    +0.000 C 
ATOM     19  C   UNL     1       2.128  10.216  18.080  0.00  0.00    +0.000 C 
ATOM     20  C   UNL     1       1.049   9.592  18.977  0.00  0.00    +0.000 C 
BRANCH  16  22
ATOM     21  C   UNL     1      -1.436  10.075  18.150  0.00  0.00    +0.000 C 
ATOM     22  C   UNL     1      -0.913  11.074  19.178  0.00  0.00    +0.000 C 
ENDBRANCH  16  22
ENDBRANCH  15  20
ENDBRANCH   1  15
TORSDOF 4
ENDMDL
MODEL 8
REMARK VINA RESULT:      -6.6      3.077      5.055
REMARK  Name = 
REMARK  6 active torsions:
REMARK  status: ('A' for Active; 'I' for Inactive)
REMARK    1  A    between atoms: C_1  and  C_2
REMARK    2  A    between atoms: C_2  and  N_3
REMARK    3  A    between atoms: C_7  and  C_8
REMARK    4  A    between atoms: C_8  and  N_9
REMARK    5  A    between atoms: C_10  and  C_12
REMARK    6  A    between atoms: C_17  and  C_18
REMARK                            x       y       z     vdW  Elec       q    Type
REMARK                         _______ _______ _______ _____ _____    ______ ____
ROOT
ATOM      1  N   UNL     1       2.118   6.239  20.244  0.00  0.00    +0.000 N 
ATOM      2  C   UNL     1       2.333   4.909  20.510  0.00  0.00    +0.000 C 
ATOM      3  O   UNL     1       1.958   4.346  21.539  0.00  0.00    +0.000 OA
ATOM      4  H   UNL     1       2.463   6.616  19.368  0.00  0.00    +0.000 HD
ENDROOT
BRANCH   2   5
ATOM      5  C   UNL     1       3.054   4.201  19.453  0.00  0.00    +0.000 A 
ATOM      6  C   UNL     1       2.646   2.992  18.912  0.00  0.00    +0.000 A 
ATOM      7  S   UNL     1       3.760   2.477  17.715  0.00  0.00    +0.000 S 
ATOM      8  C   UNL     1       4.728   3.837  18.069  0.00  0.00    +0.000 A 
ATOM      9  N   UNL     1       5.926   3.856  17.426  0.00  0.00    +0.000 N 
ATOM     10  C   UNL     1       7.010   4.613  17.738  0.00  0.00    +0.000 C 
ATOM     11  C   UNL     1       7.045   5.545  18.925  0.00  0.00    +0.000 C 
ATOM     12  O   UNL     1       8.013   4.498  17.029  0.00  0.00    +0.000 OA
ATOM     13  N   UNL     1       4.245   4.694  18.927  0.00  0.00    +0.000 NA
ATOM     14  H   UNL     1       6.070   3.183  16.686  0.00  0.00    +0.000 HD
ENDBRANCH   2   5
BRANCH   1  15
ATOM     15  C   UNL     1       1.407   7.113  21.158  0.00  0.00    +0.000 C 
BRANCH  15  20
ATOM     16  N   UNL     1       0.607   9.017  19.726  0.00  0.00    +0.000 NA
ATOM     17  C   UNL     1      -0.454   9.806  20.384  0.00  0.00    +0.000 C 
ATOM     18  C   UNL     1       0.257  10.557  21.491  0.00  0.00    +0.000 C 
ATOM     19  C   UNL     1       1.226   9.525  22.023  0.00  0.00    +0.000 C 
ATOM     20  C   UNL     1       1.533   8.616  20.824  0.00  0.00    +0.000 C 
BRANCH  16  22
ATOM     21  C   UNL     1       2.223   9.024  17.807  0.00  0.00    +0.000 C 
ATOM     22  C   UNL     1       1.278   9.831  18.692  0.00  0.00    +0.000 C 
ENDBRANCH  16  22
ENDBRANCH  15  20
ENDBRANCH   1  15
TORSDOF 4
ENDMDL
MODEL 9
REMARK VINA RESULT:      -6.6      5.270      7.612
REMARK  Name = 
REMARK  6 active torsions:
REMARK  status: ('A' for Active; 'I' for Inactive)
REMARK    1  A    between atoms: C_1  and  C_2
REMARK    2  A    between atoms: C_2  and  N_3
REMARK    3  A    between atoms: C_7  and  C_8
REMARK    4  A    between atoms: C_8  and  N_9
REMARK    5  A    between atoms: C_10  and  C_12
REMARK    6  A    between atoms: C_17  and  C_18
REMARK                            x       y       z     vdW  Elec       q    Type
REMARK                         _______ _______ _______ _____ _____    ______ ____
ROOT
ATOM      1  N   UNL     1       2.554   7.419  18.668  0.00  0.00    +0.000 N 
ATOM      2  C   UNL     1       2.131   8.605  18.122  0.00  0.00    +0.000 C 
ATOM      3  O   UNL     1       2.563   9.065  17.064  0.00  0.00    +0.000 OA
ATOM      4  H   UNL     1       2.140   7.118  19.544  0.00  0.00    +0.000 HD
ENDROOT
BRANCH   2   5
ATOM      5  C   UNL     1       1.107   9.289  18.909  0.00  0.00    +0.000 A 
ATOM      6  C   UNL     1       1.056   9.276  20.293  0.00  0.00    +0.000 A 
ATOM      7  S   UNL     1      -0.297  10.176  20.841  0.00  0.00    +0.000 S 
ATOM      8  C   UNL     1      -0.750  10.432  19.217  0.00  0.00    +0.000 A 
ATOM      9  N   UNL     1      -1.952  11.049  19.061  0.00  0.00    +0.000 N 
ATOM     10  C   UNL     1      -2.706  11.099  17.931  0.00  0.00    +0.000 C 
ATOM     11  C   UNL     1      -2.311  10.402  16.652  0.00  0.00    +0.000 C 
ATOM     12  O   UNL     1      -3.773  11.716  17.980  0.00  0.00    +0.000 OA
ATOM     13  N   UNL     1       0.071   9.995  18.302  0.00  0.00    +0.000 NA
ATOM     14  H   UNL     1      -2.383  11.448  19.883  0.00  0.00    +0.000 HD
ENDBRANCH   2   5
BRANCH   1  15
ATOM     15  C   UNL     1       3.553   6.578  18.034  0.00  0.00    +0.000 C 
BRANCH  15  20
ATOM     16  N   UNL     1       2.203   4.759  19.125  0.00  0.00    +0.000 NA
ATOM     17  C   UNL     1       1.469   3.940  18.140  0.00  0.00    +0.000 C 
ATOM     18  C   UNL     1       2.538   3.126  17.442  0.00  0.00    +0.000 C 
ATOM     19  C   UNL     1       3.665   4.123  17.287  0.00  0.00    +0.000 C 
ATOM     20  C   UNL     1       3.498   5.095  18.464  0.00  0.00    +0.000 C 
BRANCH  16  22
ATOM     21  C   UNL     1       1.142   3.246  20.820  0.00  0.00    +0.000 C 
ATOM     22  C   UNL     1       2.391   4.000  20.378  0.00  0.00    +0.000 C 
ENDBRANCH  16  22
ENDBRANCH  15  20
ENDBRANCH   1  15
TORSDOF 4
ENDMDL
