MODEL 1
REMARK VINA RESULT:      -8.4      0.000      0.000
REMARK  Name = 
REMARK  6 active torsions:
REMARK  status: ('A' for Active; 'I' for Inactive)
REMARK    1  A    between atoms: O_1  and  C_2
REMARK    2  A    between atoms: C_2  and  C_3
REMARK    3  A    between atoms: C_2  and  C_16
REMARK    4  A    between atoms: C_3  and  O_4
REMARK    5  A    between atoms: O_4  and  C_5
REMARK    6  A    between atoms: C_16  and  N_17
REMARK                            x       y       z     vdW  Elec       q    Type
REMARK                         _______ _______ _______ _____ _____    ______ ____
ROOT
ATOM      1  N   UNL     1       1.259  10.337  19.226  0.00  0.00    +0.000 NA
ATOM      2  C   UNL     1       1.146  11.764  18.934  0.00  0.00    +0.000 C 
ATOM      3  C   UNL     1      -0.263  12.193  18.538  0.00  0.00    +0.000 C 
ATOM      4  C   UNL     1      -1.343  11.741  19.534  0.00  0.00    +0.000 C 
ATOM      5  C   UNL     1      -1.083  10.361  20.172  0.00  0.00    +0.000 C 
ATOM      6  C   UNL     1       0.394  10.013  20.365  0.00  0.00    +0.000 C 
ATOM      7  O   UNL     1      -1.437  12.746  20.591  0.00  0.00    +0.000 OA
ATOM      8  C   UNL     1      -2.832  12.986  20.916  0.00  0.00    +0.000 C 
ATOM      9  C   UNL     1      -3.587  12.529  19.720  0.00  0.00    +0.000 A 
ATOM     10  C   UNL     1      -2.723  11.782  18.926  0.00  0.00    +0.000 A 
ATOM     11  C   UNL     1      -3.184  11.145  17.783  0.00  0.00    +0.000 A 
ATOM     12  C   UNL     1      -4.540  11.237  17.467  0.00  0.00    +0.000 A 
ATOM     13  C   UNL     1      -5.432  11.974  18.268  0.00  0.00    +0.000 A 
ATOM     14  C   UNL     1      -6.804  12.013  17.960  0.00  0.00    +0.000 A 
ATOM     15  C   UNL     1      -7.691  12.762  18.735  0.00  0.00    +0.000 A 
ATOM     16  C   UNL     1      -7.217  13.499  19.808  0.00  0.00    +0.000 A 
ATOM     17  C   UNL     1      -5.859  13.451  20.150  0.00  0.00    +0.000 A 
ATOM     18  C   UNL     1      -4.951  12.672  19.404  0.00  0.00    +0.000 A 
ENDROOT
BRANCH   1  19
ATOM     19  C   UNL     1       1.103   9.413  18.076  0.00  0.00    +0.000 C 
BRANCH  19  20
ATOM     20  C   UNL     1       2.089   8.204  18.043  0.00  0.00    +0.000 C 
BRANCH  20  21
ATOM     21  O   UNL     1       3.399   8.662  17.674  0.00  0.00    +0.000 OA
ATOM     22  H   UNL     1       3.973   8.617  18.455  0.00  0.00    +0.000 HD
ENDBRANCH  20  21
BRANCH  20  23
ATOM     23  C   UNL     1       2.146   7.442  19.394  0.00  0.00    +0.000 C 
BRANCH  23  24
ATOM     24  O   UNL     1       3.232   6.518  19.375  0.00  0.00    +0.000 OA
BRANCH  24  25
ATOM     25  C   UNL     1       3.133   5.365  18.648  0.00  0.00    +0.000 A 
ATOM     26  C   UNL     1       2.185   4.358  18.827  0.00  0.00    +0.000 A 
ATOM     27  C   UNL     1       2.248   3.207  18.041  0.00  0.00    +0.000 A 
ATOM     28  F   UNL     1       1.339   2.244  18.220  0.00  0.00    +0.000 F 
ATOM     29  C   UNL     1       3.250   3.030  17.084  0.00  0.00    +0.000 A 
ATOM     30  C   UNL     1       4.196   4.035  16.883  0.00  0.00    +0.000 A 
ATOM     31  C   UNL     1       4.135   5.197  17.666  0.00  0.00    +0.000 A 
ATOM     32  O   UNL     1       4.991   6.255  17.493  0.00  0.00    +0.000 OA
ATOM     33  C   UNL     1       6.199   5.960  16.796  0.00  0.00    +0.000 C 
ATOM     34  C   UNL     1       5.942   5.176  15.523  0.00  0.00    +0.000 C 
ATOM     35  C   UNL     1       5.301   3.844  15.881  0.00  0.00    +0.000 C 
ENDBRANCH  24  25
ENDBRANCH  23  24
ENDBRANCH  20  23
ENDBRANCH  19  20
ENDBRANCH   1  19
TORSDOF 6
ENDMDL
MODEL 2
REMARK VINA RESULT:      -8.4      1.826      2.510
REMARK  Name = 
REMARK  6 active torsions:
REMARK  status: ('A' for Active; 'I' for Inactive)
REMARK    1  A    between atoms: O_1  and  C_2
REMARK    2  A    between atoms: C_2  and  C_3
REMARK    3  A    between atoms: C_2  and  C_16
REMARK    4  A    between atoms: C_3  and  O_4
REMARK    5  A    between atoms: O_4  and  C_5
REMARK    6  A    between atoms: C_16  and  N_17
REMARK                            x       y       z     vdW  Elec       q    Type
REMARK                         _______ _______ _______ _____ _____    ______ ____
ROOT
ATOM      1  N   UNL     1       1.079  10.687  20.305  0.00  0.00    +0.000 NA
ATOM      2  C   UNL     1       1.294  12.131  20.224  0.00  0.00    +0.000 C 
ATOM      3  C   UNL     1       0.008  12.943  20.344  0.00  0.00    +0.000 C 
ATOM      4  C   UNL     1      -0.836  12.573  21.574  0.00  0.00    +0.000 C 
ATOM      5  C   UNL     1      -0.807  11.075  21.938  0.00  0.00    +0.000 C 
ATOM      6  C   UNL     1       0.508  10.362  21.615  0.00  0.00    +0.000 C 
ATOM      7  O   UNL     1      -0.351  13.351  22.711  0.00  0.00    +0.000 OA
ATOM      8  C   UNL     1      -1.477  13.843  23.485  0.00  0.00    +0.000 C 
ATOM      9  C   UNL     1      -2.629  13.811  22.546  0.00  0.00    +0.000 A 
ATOM     10  C   UNL     1      -2.262  13.048  21.441  0.00  0.00    +0.000 A 
ATOM     11  C   UNL     1      -3.178  12.767  20.440  0.00  0.00    +0.000 A 
ATOM     12  C   UNL     1      -4.488  13.229  20.582  0.00  0.00    +0.000 A 
ATOM     13  C   UNL     1      -4.881  13.988  21.700  0.00  0.00    +0.000 A 
ATOM     14  C   UNL     1      -6.217  14.402  21.848  0.00  0.00    +0.000 A 
ATOM     15  C   UNL     1      -6.610  15.175  22.942  0.00  0.00    +0.000 A 
ATOM     16  C   UNL     1      -5.672  15.563  23.885  0.00  0.00    +0.000 A 
ATOM     17  C   UNL     1      -4.343  15.136  23.772  0.00  0.00    +0.000 A 
ATOM     18  C   UNL     1      -3.930  14.325  22.696  0.00  0.00    +0.000 A 
ENDROOT
BRANCH   1  19
ATOM     19  C   UNL     1       0.361  10.062  19.167  0.00  0.00    +0.000 C 
BRANCH  19  20
ATOM     20  C   UNL     1       1.248   9.247  18.176  0.00  0.00    +0.000 C 
BRANCH  20  21
ATOM     21  O   UNL     1       2.074  10.145  17.420  0.00  0.00    +0.000 OA
ATOM     22  H   UNL     1       2.856  10.364  17.950  0.00  0.00    +0.000 HD
ENDBRANCH  20  21
BRANCH  20  23
ATOM     23  C   UNL     1       2.122   8.183  18.891  0.00  0.00    +0.000 C 
BRANCH  23  24
ATOM     24  O   UNL     1       3.084   7.662  17.976  0.00  0.00    +0.000 OA
BRANCH  24  25
ATOM     25  C   UNL     1       3.126   6.321  17.721  0.00  0.00    +0.000 A 
ATOM     26  C   UNL     1       2.110   5.402  17.983  0.00  0.00    +0.000 A 
ATOM     27  C   UNL     1       2.324   4.049  17.719  0.00  0.00    +0.000 A 
ATOM     28  F   UNL     1       1.348   3.172  17.976  0.00  0.00    +0.000 F 
ATOM     29  C   UNL     1       3.539   3.586  17.210  0.00  0.00    +0.000 A 
ATOM     30  C   UNL     1       4.559   4.495  16.930  0.00  0.00    +0.000 A 
ATOM     31  C   UNL     1       4.349   5.858  17.187  0.00  0.00    +0.000 A 
ATOM     32  O   UNL     1       5.278   6.822  16.887  0.00  0.00    +0.000 OA
ATOM     33  C   UNL     1       6.613   6.354  16.710  0.00  0.00    +0.000 C 
ATOM     34  C   UNL     1       6.674   5.149  15.791  0.00  0.00    +0.000 C 
ATOM     35  C   UNL     1       5.885   4.008  16.415  0.00  0.00    +0.000 C 
ENDBRANCH  24  25
ENDBRANCH  23  24
ENDBRANCH  20  23
ENDBRANCH  19  20
ENDBRANCH   1  19
TORSDOF 6
ENDMDL
MODEL 3
REMARK VINA RESULT:      -8.3      2.150      3.260
REMARK  Name = 
REMARK  6 active torsions:
REMARK  status: ('A' for Active; 'I' for Inactive)
REMARK    1  A    between atoms: O_1  and  C_2
REMARK    2  A    between atoms: C_2  and  C_3
REMARK    3  A    between atoms: C_2  and  C_16
REMARK    4  A    between atoms: C_3  and  O_4
REMARK    5  A    between atoms: O_4  and  C_5
REMARK    6  A    between atoms: C_16  and  N_17
REMARK                            x       y       z     vdW  Elec       q    Type
REMARK                         _______ _______ _______ _____ _____    ______ ____
ROOT
ATOM      1  N   UNL     1       1.084  10.682  20.317  0.00  0.00    +0.000 NA
ATOM      2  C   UNL     1       1.230  12.132  20.220  0.00  0.00    +0.000 C 
ATOM      3  C   UNL     1      -0.093  12.885  20.327  0.00  0.00    +0.000 C 
ATOM      4  C   UNL     1      -0.922  12.490  21.559  0.00  0.00    +0.000 C 
ATOM      5  C   UNL     1      -0.824  10.999  21.941  0.00  0.00    +0.000 C 
ATOM      6  C   UNL     1       0.524  10.345  21.629  0.00  0.00    +0.000 C 
ATOM      7  O   UNL     1      -0.478  13.303  22.689  0.00  0.00    +0.000 OA
ATOM      8  C   UNL     1      -1.629  13.750  23.454  0.00  0.00    +0.000 C 
ATOM      9  C   UNL     1      -2.775  13.652  22.512  0.00  0.00    +0.000 A 
ATOM     10  C   UNL     1      -2.369  12.896  21.418  0.00  0.00    +0.000 A 
ATOM     11  C   UNL     1      -3.268  12.559  20.417  0.00  0.00    +0.000 A 
ATOM     12  C   UNL     1      -4.598  12.961  20.550  0.00  0.00    +0.000 A 
ATOM     13  C   UNL     1      -5.030  13.713  21.658  0.00  0.00    +0.000 A 
ATOM     14  C   UNL     1      -6.384  14.066  21.798  0.00  0.00    +0.000 A 
ATOM     15  C   UNL     1      -6.817  14.832  22.882  0.00  0.00    +0.000 A 
ATOM     16  C   UNL     1      -5.901  15.274  23.823  0.00  0.00    +0.000 A 
ATOM     17  C   UNL     1      -4.553  14.910  23.719  0.00  0.00    +0.000 A 
ATOM     18  C   UNL     1      -4.099  14.106  22.653  0.00  0.00    +0.000 A 
ENDROOT
BRANCH   1  19
ATOM     19  C   UNL     1       0.399  10.010  19.185  0.00  0.00    +0.000 C 
BRANCH  19  20
ATOM     20  C   UNL     1       1.315   9.159  18.252  0.00  0.00    +0.000 C 
BRANCH  20  21
ATOM     21  O   UNL     1       2.127  10.030  17.450  0.00  0.00    +0.000 OA
ATOM     22  H   UNL     1       2.152  10.903  17.872  0.00  0.00    +0.000 HD
ENDBRANCH  20  21
BRANCH  20  23
ATOM     23  C   UNL     1       2.208   8.163  19.038  0.00  0.00    +0.000 C 
BRANCH  23  24
ATOM     24  O   UNL     1       1.897   6.828  18.643  0.00  0.00    +0.000 OA
BRANCH  24  25
ATOM     25  C   UNL     1       2.873   6.026  18.123  0.00  0.00    +0.000 A 
ATOM     26  C   UNL     1       4.016   6.453  17.449  0.00  0.00    +0.000 A 
ATOM     27  C   UNL     1       4.896   5.508  16.921  0.00  0.00    +0.000 A 
ATOM     28  F   UNL     1       5.989   5.924  16.273  0.00  0.00    +0.000 F 
ATOM     29  C   UNL     1       4.654   4.138  17.039  0.00  0.00    +0.000 A 
ATOM     30  C   UNL     1       3.522   3.695  17.723  0.00  0.00    +0.000 A 
ATOM     31  C   UNL     1       2.635   4.641  18.260  0.00  0.00    +0.000 A 
ATOM     32  O   UNL     1       1.531   4.289  18.995  0.00  0.00    +0.000 OA
ATOM     33  C   UNL     1       1.084   2.946  18.827  0.00  0.00    +0.000 C 
ATOM     34  C   UNL     1       2.223   1.951  18.936  0.00  0.00    +0.000 C 
ATOM     35  C   UNL     1       3.228   2.224  17.827  0.00  0.00    +0.000 C 
ENDBRANCH  24  25
ENDBRANCH  23  24
ENDBRANCH  20  23
ENDBRANCH  19  20
ENDBRANCH   1  19
TORSDOF 6
ENDMDL
MODEL 4
REMARK VINA RESULT:      -8.3      2.089      3.216
REMARK  Name = 
REMARK  6 active torsions:
REMARK  status: ('A' for Active; 'I' for Inactive)
REMARK    1  A    between atoms: O_1  and  C_2
REMARK    2  A    between atoms: C_2  and  C_3
REMARK    3  A    between atoms: C_2  and  C_16
REMARK    4  A    between atoms: C_3  and  O_4
REMARK    5  A    between atoms: O_4  and  C_5
REMARK    6  A    between atoms: C_16  and  N_17
REMARK                            x       y       z     vdW  Elec       q    Type
REMARK                         _______ _______ _______ _____ _____    ______ ____
ROOT
ATOM      1  N   UNL     1       1.587  11.775  20.175  0.00  0.00    +0.000 NA
ATOM      2  C   UNL     1       1.318  13.144  20.611  0.00  0.00    +0.000 C 
ATOM      3  C   UNL     1      -0.169  13.484  20.662  0.00  0.00    +0.000 C 
ATOM      4  C   UNL     1      -0.999  12.470  21.465  0.00  0.00    +0.000 C 
ATOM      5  C   UNL     1      -0.523  11.009  21.332  0.00  0.00    +0.000 C 
ATOM      6  C   UNL     1       0.984  10.843  21.132  0.00  0.00    +0.000 C 
ATOM      7  O   UNL     1      -0.959  12.859  22.873  0.00  0.00    +0.000 OA
ATOM      8  C   UNL     1      -2.279  12.709  23.461  0.00  0.00    +0.000 C 
ATOM      9  C   UNL     1      -3.216  12.733  22.308  0.00  0.00    +0.000 A 
ATOM     10  C   UNL     1      -2.470  12.569  21.144  0.00  0.00    +0.000 A 
ATOM     11  C   UNL     1      -3.097  12.456  19.913  0.00  0.00    +0.000 A 
ATOM     12  C   UNL     1      -4.492  12.471  19.868  0.00  0.00    +0.000 A 
ATOM     13  C   UNL     1      -5.263  12.620  21.036  0.00  0.00    +0.000 A 
ATOM     14  C   UNL     1      -6.667  12.582  20.975  0.00  0.00    +0.000 A 
ATOM     15  C   UNL     1      -7.439  12.753  22.125  0.00  0.00    +0.000 A 
ATOM     16  C   UNL     1      -6.820  12.987  23.343  0.00  0.00    +0.000 A 
ATOM     17  C   UNL     1      -5.422  12.999  23.431  0.00  0.00    +0.000 A 
ATOM     18  C   UNL     1      -4.622  12.792  22.288  0.00  0.00    +0.000 A 
ENDROOT
BRANCH   1  19
ATOM     19  C   UNL     1       1.278  11.460  18.758  0.00  0.00    +0.000 C 
BRANCH  19  20
ATOM     20  C   UNL     1       0.768  10.011  18.485  0.00  0.00    +0.000 C 
BRANCH  20  21
ATOM     21  O   UNL     1      -0.446  10.065  17.721  0.00  0.00    +0.000 OA
ATOM     22  H   UNL     1      -0.259  10.502  16.875  0.00  0.00    +0.000 HD
ENDBRANCH  20  21
BRANCH  20  23
ATOM     23  C   UNL     1       1.822   9.133  17.761  0.00  0.00    +0.000 C 
BRANCH  23  24
ATOM     24  O   UNL     1       2.495   8.312  18.712  0.00  0.00    +0.000 OA
BRANCH  24  25
ATOM     25  C   UNL     1       3.119   7.166  18.305  0.00  0.00    +0.000 A 
ATOM     26  C   UNL     1       4.001   7.048  17.232  0.00  0.00    +0.000 A 
ATOM     27  C   UNL     1       4.515   5.794  16.901  0.00  0.00    +0.000 A 
ATOM     28  F   UNL     1       5.357   5.685  15.869  0.00  0.00    +0.000 F 
ATOM     29  C   UNL     1       4.157   4.646  17.612  0.00  0.00    +0.000 A 
ATOM     30  C   UNL     1       3.287   4.751  18.697  0.00  0.00    +0.000 A 
ATOM     31  C   UNL     1       2.770   6.011  19.038  0.00  0.00    +0.000 A 
ATOM     32  O   UNL     1       1.956   6.209  20.124  0.00  0.00    +0.000 OA
ATOM     33  C   UNL     1       1.312   5.042  20.630  0.00  0.00    +0.000 C 
ATOM     34  C   UNL     1       2.282   3.890  20.806  0.00  0.00    +0.000 C 
ATOM     35  C   UNL     1       2.865   3.520  19.449  0.00  0.00    +0.000 C 
ENDBRANCH  24  25
ENDBRANCH  23  24
ENDBRANCH  20  23
ENDBRANCH  19  20
ENDBRANCH   1  19
TORSDOF 6
ENDMDL
MODEL 5
REMARK VINA RESULT:      -8.3      3.441     10.161
REMARK  Name = 
REMARK  6 active torsions:
REMARK  status: ('A' for Active; 'I' for Inactive)
REMARK    1  A    between atoms: O_1  and  C_2
REMARK    2  A    between atoms: C_2  and  C_3
REMARK    3  A    between atoms: C_2  and  C_16
REMARK    4  A    between atoms: C_3  and  O_4
REMARK    5  A    between atoms: O_4  and  C_5
REMARK    6  A    between atoms: C_16  and  N_17
REMARK                            x       y       z     vdW  Elec       q    Type
REMARK                         _______ _______ _______ _____ _____    ______ ____
ROOT
ATOM      1  N   UNL     1      -0.748  12.825  20.790  0.00  0.00    +0.000 NA
ATOM      2  C   UNL     1       0.707  12.938  20.718  0.00  0.00    +0.000 C 
ATOM      3  C   UNL     1       1.422  11.590  20.721  0.00  0.00    +0.000 C 
ATOM      4  C   UNL     1       0.886  10.612  19.663  0.00  0.00    +0.000 C 
ATOM      5  C   UNL     1      -0.635  10.704  19.424  0.00  0.00    +0.000 C 
ATOM      6  C   UNL     1      -1.229  12.102  19.610  0.00  0.00    +0.000 C 
ATOM      7  O   UNL     1       1.584  10.872  18.406  0.00  0.00    +0.000 OA
ATOM      8  C   UNL     1       1.929   9.614  17.767  0.00  0.00    +0.000 C 
ATOM      9  C   UNL     1       1.911   8.611  18.864  0.00  0.00    +0.000 A 
ATOM     10  C   UNL     1       1.280   9.187  19.963  0.00  0.00    +0.000 A 
ATOM     11  C   UNL     1       1.035   8.444  21.107  0.00  0.00    +0.000 A 
ATOM     12  C   UNL     1       1.398   7.096  21.121  0.00  0.00    +0.000 A 
ATOM     13  C   UNL     1       2.023   6.493  20.013  0.00  0.00    +0.000 A 
ATOM     14  C   UNL     1       2.336   5.122  20.028  0.00  0.00    +0.000 A 
ATOM     15  C   UNL     1       2.976   4.522  18.943  0.00  0.00    +0.000 A 
ATOM     16  C   UNL     1       3.334   5.286  17.844  0.00  0.00    +0.000 A 
ATOM     17  C   UNL     1       3.005   6.646  17.796  0.00  0.00    +0.000 A 
ATOM     18  C   UNL     1       2.325   7.267  18.864  0.00  0.00    +0.000 A 
ENDROOT
BRANCH   1  19
ATOM     19  C   UNL     1      -1.309  12.323  22.069  0.00  0.00    +0.000 C 
BRANCH  19  20
ATOM     20  C   UNL     1      -1.748  13.418  23.089  0.00  0.00    +0.000 C 
BRANCH  20  21
ATOM     21  O   UNL     1      -0.628  14.258  23.404  0.00  0.00    +0.000 OA
ATOM     22  H   UNL     1       0.002  13.746  23.935  0.00  0.00    +0.000 HD
ENDBRANCH  20  21
BRANCH  20  23
ATOM     23  C   UNL     1      -2.935  14.274  22.574  0.00  0.00    +0.000 C 
BRANCH  23  24
ATOM     24  O   UNL     1      -3.678  13.530  21.611  0.00  0.00    +0.000 OA
BRANCH  24  25
ATOM     25  C   UNL     1      -4.956  13.135  21.892  0.00  0.00    +0.000 A 
ATOM     26  C   UNL     1      -5.622  13.308  23.105  0.00  0.00    +0.000 A 
ATOM     27  C   UNL     1      -6.911  12.797  23.259  0.00  0.00    +0.000 A 
ATOM     28  F   UNL     1      -7.543  12.963  24.425  0.00  0.00    +0.000 F 
ATOM     29  C   UNL     1      -7.549  12.100  22.231  0.00  0.00    +0.000 A 
ATOM     30  C   UNL     1      -6.901  11.931  21.008  0.00  0.00    +0.000 A 
ATOM     31  C   UNL     1      -5.607  12.448  20.843  0.00  0.00    +0.000 A 
ATOM     32  O   UNL     1      -4.923  12.375  19.656  0.00  0.00    +0.000 OA
ATOM     33  C   UNL     1      -5.391  11.390  18.738  0.00  0.00    +0.000 C 
ATOM     34  C   UNL     1      -6.897  11.445  18.565  0.00  0.00    +0.000 C 
ATOM     35  C   UNL     1      -7.560  11.153  19.904  0.00  0.00    +0.000 C 
ENDBRANCH  24  25
ENDBRANCH  23  24
ENDBRANCH  20  23
ENDBRANCH  19  20
ENDBRANCH   1  19
TORSDOF 6
ENDMDL
MODEL 6
REMARK VINA RESULT:      -8.2      1.471      2.387
REMARK  Name = 
REMARK  6 active torsions:
REMARK  status: ('A' for Active; 'I' for Inactive)
REMARK    1  A    between atoms: O_1  and  C_2
REMARK    2  A    between atoms: C_2  and  C_3
REMARK    3  A    between atoms: C_2  and  C_16
REMARK    4  A    between atoms: C_3  and  O_4
REMARK    5  A    between atoms: O_4  and  C_5
REMARK    6  A    between atoms: C_16  and  N_17
REMARK                            x       y       z     vdW  Elec       q    Type
REMARK                         _______ _______ _______ _____ _____    ______ ____
ROOT
ATOM      1  N   UNL     1       1.680  11.381  19.413  0.00  0.00    +0.000 NA
ATOM      2  C   UNL     1       1.296  12.789  19.350  0.00  0.00    +0.000 C 
ATOM      3  C   UNL     1      -0.156  13.006  18.937  0.00  0.00    +0.000 C 
ATOM      4  C   UNL     1      -1.157  12.193  19.775  0.00  0.00    +0.000 C 
ATOM      5  C   UNL     1      -0.650  10.799  20.196  0.00  0.00    +0.000 C 
ATOM      6  C   UNL     1       0.860  10.708  20.426  0.00  0.00    +0.000 C 
ATOM      7  O   UNL     1      -1.482  12.964  20.972  0.00  0.00    +0.000 OA
ATOM      8  C   UNL     1      -2.907  12.877  21.240  0.00  0.00    +0.000 C 
ATOM      9  C   UNL     1      -3.517  12.497  19.939  0.00  0.00    +0.000 A 
ATOM     10  C   UNL     1      -2.497  12.075  19.092  0.00  0.00    +0.000 A 
ATOM     11  C   UNL     1      -2.786  11.569  17.834  0.00  0.00    +0.000 A 
ATOM     12  C   UNL     1      -4.123  11.454  17.450  0.00  0.00    +0.000 A 
ATOM     13  C   UNL     1      -5.168  11.861  18.299  0.00  0.00    +0.000 A 
ATOM     14  C   UNL     1      -6.510  11.692  17.913  0.00  0.00    +0.000 A 
ATOM     15  C   UNL     1      -7.552  12.114  18.740  0.00  0.00    +0.000 A 
ATOM     16  C   UNL     1      -7.268  12.733  19.947  0.00  0.00    +0.000 A 
ATOM     17  C   UNL     1      -5.940  12.884  20.364  0.00  0.00    +0.000 A 
ATOM     18  C   UNL     1      -4.871  12.432  19.563  0.00  0.00    +0.000 A 
ENDROOT
BRANCH   1  19
ATOM     19  C   UNL     1       1.747  10.655  18.121  0.00  0.00    +0.000 C 
BRANCH  19  20
ATOM     20  C   UNL     1       1.593   9.106  18.208  0.00  0.00    +0.000 C 
BRANCH  20  21
ATOM     21  O   UNL     1       0.480   8.686  17.405  0.00  0.00    +0.000 OA
ATOM     22  H   UNL     1       0.809   8.107  16.700  0.00  0.00    +0.000 HD
ENDBRANCH  20  21
BRANCH  20  23
ATOM     23  C   UNL     1       2.880   8.352  17.779  0.00  0.00    +0.000 C 
BRANCH  23  24
ATOM     24  O   UNL     1       2.927   7.082  18.425  0.00  0.00    +0.000 OA
BRANCH  24  25
ATOM     25  C   UNL     1       3.532   6.024  17.806  0.00  0.00    +0.000 A 
ATOM     26  C   UNL     1       4.583   6.097  16.892  0.00  0.00    +0.000 A 
ATOM     27  C   UNL     1       5.058   4.928  16.297  0.00  0.00    +0.000 A 
ATOM     28  F   UNL     1       6.063   5.004  15.419  0.00  0.00    +0.000 F 
ATOM     29  C   UNL     1       4.498   3.681  16.585  0.00  0.00    +0.000 A 
ATOM     30  C   UNL     1       3.456   3.591  17.508  0.00  0.00    +0.000 A 
ATOM     31  C   UNL     1       2.976   4.762  18.113  0.00  0.00    +0.000 A 
ATOM     32  O   UNL     1       1.995   4.754  19.072  0.00  0.00    +0.000 OA
ATOM     33  C   UNL     1       1.190   3.579  19.116  0.00  0.00    +0.000 C 
ATOM     34  C   UNL     1       2.028   2.315  19.100  0.00  0.00    +0.000 C 
ATOM     35  C   UNL     1       2.818   2.261  17.801  0.00  0.00    +0.000 C 
ENDBRANCH  24  25
ENDBRANCH  23  24
ENDBRANCH  20  23
ENDBRANCH  19  20
ENDBRANCH   1  19
TORSDOF 6
ENDMDL
MODEL 7
REMARK VINA RESULT:      -8.2      2.983      4.816
REMARK  Name = 
REMARK  6 active torsions:
REMARK  status: ('A' for Active; 'I' for Inactive)
REMARK    1  A    between atoms: O_1  and  C_2
REMARK    2  A    between atoms: C_2  and  C_3
REMARK    3  A    between atoms: C_2  and  C_16
REMARK    4  A    between atoms: C_3  and  O_4
REMARK    5  A    between atoms: O_4  and  C_5
REMARK    6  A    between atoms: C_16  and  N_17
REMARK                            x       y       z     vdW  Elec       q    Type
REMARK                         _______ _______ _______ _____ _____    ______ ____
ROOT
ATOM      1  N   UNL     1       0.107   9.648  20.286  0.00  0.00    +0.000 NA
ATOM      2  C   UNL     1       0.075  10.474  21.491  0.00  0.00    +0.000 C 
ATOM      3  C   UNL     1       0.436  11.935  21.236  0.00  0.00    +0.000 C 
ATOM      4  C   UNL     1      -0.378  12.575  20.099  0.00  0.00    +0.000 C 
ATOM      5  C   UNL     1      -0.700  11.621  18.931  0.00  0.00    +0.000 C 
ATOM      6  C   UNL     1      -0.884  10.156  19.333  0.00  0.00    +0.000 C 
ATOM      7  O   UNL     1      -1.628  13.081  20.661  0.00  0.00    +0.000 OA
ATOM      8  C   UNL     1      -1.927  14.385  20.096  0.00  0.00    +0.000 C 
ATOM      9  C   UNL     1      -0.622  14.895  19.600  0.00  0.00    +0.000 A 
ATOM     10  C   UNL     1       0.275  13.831  19.579  0.00  0.00    +0.000 A 
ATOM     11  C   UNL     1       1.553  13.995  19.067  0.00  0.00    +0.000 A 
ATOM     12  C   UNL     1       1.909  15.236  18.537  0.00  0.00    +0.000 A 
ATOM     13  C   UNL     1       1.009  16.318  18.535  0.00  0.00    +0.000 A 
ATOM     14  C   UNL     1       1.369  17.546  17.951  0.00  0.00    +0.000 A 
ATOM     15  C   UNL     1       0.491  18.631  17.966  0.00  0.00    +0.000 A 
ATOM     16  C   UNL     1      -0.744  18.511  18.584  0.00  0.00    +0.000 A 
ATOM     17  C   UNL     1      -1.133  17.289  19.145  0.00  0.00    +0.000 A 
ATOM     18  C   UNL     1      -0.278  16.168  19.110  0.00  0.00    +0.000 A 
ENDROOT
BRANCH   1  19
ATOM     19  C   UNL     1       1.442   9.405  19.687  0.00  0.00    +0.000 C 
BRANCH  19  20
ATOM     20  C   UNL     1       1.451   9.112  18.154  0.00  0.00    +0.000 C 
BRANCH  20  21
ATOM     21  O   UNL     1       1.950  10.259  17.449  0.00  0.00    +0.000 OA
ATOM     22  H   UNL     1       2.898  10.346  17.636  0.00  0.00    +0.000 HD
ENDBRANCH  20  21
BRANCH  20  23
ATOM     23  C   UNL     1       2.280   7.853  17.790  0.00  0.00    +0.000 C 
BRANCH  23  24
ATOM     24  O   UNL     1       2.396   7.010  18.935  0.00  0.00    +0.000 OA
BRANCH  24  25
ATOM     25  C   UNL     1       3.302   5.987  18.939  0.00  0.00    +0.000 A 
ATOM     26  C   UNL     1       4.512   5.957  18.247  0.00  0.00    +0.000 A 
ATOM     27  C   UNL     1       5.307   4.812  18.304  0.00  0.00    +0.000 A 
ATOM     28  F   UNL     1       6.465   4.787  17.635  0.00  0.00    +0.000 F 
ATOM     29  C   UNL     1       4.915   3.684  19.029  0.00  0.00    +0.000 A 
ATOM     30  C   UNL     1       3.714   3.705  19.738  0.00  0.00    +0.000 A 
ATOM     31  C   UNL     1       2.912   4.855  19.689  0.00  0.00    +0.000 A 
ATOM     32  O   UNL     1       1.746   4.978  20.402  0.00  0.00    +0.000 OA
ATOM     33  C   UNL     1       1.165   3.754  20.845  0.00  0.00    +0.000 C 
ATOM     34  C   UNL     1       2.186   2.848  21.508  0.00  0.00    +0.000 C 
ATOM     35  C   UNL     1       3.261   2.486  20.493  0.00  0.00    +0.000 C 
ENDBRANCH  24  25
ENDBRANCH  23  24
ENDBRANCH  20  23
ENDBRANCH  19  20
ENDBRANCH   1  19
TORSDOF 6
ENDMDL
MODEL 8
REMARK VINA RESULT:      -8.1      1.620      2.679
REMARK  Name = 
REMARK  6 active torsions:
REMARK  status: ('A' for Active; 'I' for Inactive)
REMARK    1  A    between atoms: O_1  and  C_2
REMARK    2  A    between atoms: C_2  and  C_3
REMARK    3  A    between atoms: C_2  and  C_16
REMARK    4  A    between atoms: C_3  and  O_4
REMARK    5  A    between atoms: O_4  and  C_5
REMARK    6  A    between atoms: C_16  and  N_17
REMARK                            x       y       z     vdW  Elec       q    Type
REMARK                         _______ _______ _______ _____ _____    ______ ____
ROOT
ATOM      1  N   UNL     1       1.419  11.021  19.565  0.00  0.00    +0.000 NA
ATOM      2  C   UNL     1       1.151  12.354  19.028  0.00  0.00    +0.000 C 
ATOM      3  C   UNL     1      -0.303  12.562  18.615  0.00  0.00    +0.000 C 
ATOM      4  C   UNL     1      -1.309  12.193  19.718  0.00  0.00    +0.000 C 
ATOM      5  C   UNL     1      -0.893  10.984  20.580  0.00  0.00    +0.000 C 
ATOM      6  C   UNL     1       0.616  10.825  20.776  0.00  0.00    +0.000 C 
ATOM      7  O   UNL     1      -1.487  13.358  20.582  0.00  0.00    +0.000 OA
ATOM      8  C   UNL     1      -2.893  13.513  20.912  0.00  0.00    +0.000 C 
ATOM      9  C   UNL     1      -3.619  12.774  19.847  0.00  0.00    +0.000 A 
ATOM     10  C   UNL     1      -2.697  11.985  19.166  0.00  0.00    +0.000 A 
ATOM     11  C   UNL     1      -3.112  11.109  18.174  0.00  0.00    +0.000 A 
ATOM     12  C   UNL     1      -4.477  11.006  17.899  0.00  0.00    +0.000 A 
ATOM     13  C   UNL     1      -5.425  11.785  18.589  0.00  0.00    +0.000 A 
ATOM     14  C   UNL     1      -6.799  11.630  18.333  0.00  0.00    +0.000 A 
ATOM     15  C   UNL     1      -7.744  12.415  18.995  0.00  0.00    +0.000 A 
ATOM     16  C   UNL     1      -7.328  13.378  19.901  0.00  0.00    +0.000 A 
ATOM     17  C   UNL     1      -5.967  13.528  20.193  0.00  0.00    +0.000 A 
ATOM     18  C   UNL     1      -4.996  12.721  19.563  0.00  0.00    +0.000 A 
ENDROOT
BRANCH   1  19
ATOM     19  C   UNL     1       1.338   9.893  18.604  0.00  0.00    +0.000 C 
BRANCH  19  20
ATOM     20  C   UNL     1       2.268   8.679  18.911  0.00  0.00    +0.000 C 
BRANCH  20  21
ATOM     21  O   UNL     1       1.669   7.858  19.925  0.00  0.00    +0.000 OA
ATOM     22  H   UNL     1       0.752   8.147  20.054  0.00  0.00    +0.000 HD
ENDBRANCH  20  21
BRANCH  20  23
ATOM     23  C   UNL     1       2.580   7.832  17.648  0.00  0.00    +0.000 C 
BRANCH  23  24
ATOM     24  O   UNL     1       2.223   6.472  17.885  0.00  0.00    +0.000 OA
BRANCH  24  25
ATOM     25  C   UNL     1       3.176   5.575  18.277  0.00  0.00    +0.000 A 
ATOM     26  C   UNL     1       4.466   5.467  17.759  0.00  0.00    +0.000 A 
ATOM     27  C   UNL     1       5.310   4.458  18.223  0.00  0.00    +0.000 A 
ATOM     28  F   UNL     1       6.545   4.357  17.720  0.00  0.00    +0.000 F 
ATOM     29  C   UNL     1       4.890   3.539  19.188  0.00  0.00    +0.000 A 
ATOM     30  C   UNL     1       3.608   3.643  19.726  0.00  0.00    +0.000 A 
ATOM     31  C   UNL     1       2.755   4.660  19.267  0.00  0.00    +0.000 A 
ATOM     32  O   UNL     1       1.502   4.866  19.784  0.00  0.00    +0.000 OA
ATOM     33  C   UNL     1       0.937   3.762  20.487  0.00  0.00    +0.000 C 
ATOM     34  C   UNL     1       1.912   3.166  21.485  0.00  0.00    +0.000 C 
ATOM     35  C   UNL     1       3.129   2.641  20.738  0.00  0.00    +0.000 C 
ENDBRANCH  24  25
ENDBRANCH  23  24
ENDBRANCH  20  23
ENDBRANCH  19  20
ENDBRANCH   1  19
TORSDOF 6
ENDMDL
MODEL 9
REMARK VINA RESULT:      -8.0      1.962      2.585
REMARK  Name = 
REMARK  6 active torsions:
REMARK  status: ('A' for Active; 'I' for Inactive)
REMARK    1  A    between atoms: O_1  and  C_2
REMARK    2  A    between atoms: C_2  and  C_3
REMARK    3  A    between atoms: C_2  and  C_16
REMARK    4  A    between atoms: C_3  and  O_4
REMARK    5  A    between atoms: O_4  and  C_5
REMARK    6  A    between atoms: C_16  and  N_17
REMARK                            x       y       z     vdW  Elec       q    Type
REMARK                         _______ _______ _______ _____ _____    ______ ____
ROOT
ATOM      1  N   UNL     1       1.309  11.579  20.395  0.00  0.00    +0.000 NA
ATOM      2  C   UNL     1       1.107  12.947  20.868  0.00  0.00    +0.000 C 
ATOM      3  C   UNL     1      -0.360  13.362  20.922  0.00  0.00    +0.000 C 
ATOM      4  C   UNL     1      -1.246  12.370  21.692  0.00  0.00    +0.000 C 
ATOM      5  C   UNL     1      -0.845  10.891  21.520  0.00  0.00    +0.000 C 
ATOM      6  C   UNL     1       0.653  10.653  21.323  0.00  0.00    +0.000 C 
ATOM      7  O   UNL     1      -1.195  12.718  23.110  0.00  0.00    +0.000 OA
ATOM      8  C   UNL     1      -2.524  12.620  23.688  0.00  0.00    +0.000 C 
ATOM      9  C   UNL     1      -3.452  12.723  22.531  0.00  0.00    +0.000 A 
ATOM     10  C   UNL     1      -2.708  12.553  21.367  0.00  0.00    +0.000 A 
ATOM     11  C   UNL     1      -3.333  12.507  20.130  0.00  0.00    +0.000 A 
ATOM     12  C   UNL     1      -4.725  12.594  20.079  0.00  0.00    +0.000 A 
ATOM     13  C   UNL     1      -5.494  12.750  21.247  0.00  0.00    +0.000 A 
ATOM     14  C   UNL     1      -6.898  12.787  21.179  0.00  0.00    +0.000 A 
ATOM     15  C   UNL     1      -7.667  12.965  22.330  0.00  0.00    +0.000 A 
ATOM     16  C   UNL     1      -7.044  13.134  23.557  0.00  0.00    +0.000 A 
ATOM     17  C   UNL     1      -5.648  13.071  23.651  0.00  0.00    +0.000 A 
ATOM     18  C   UNL     1      -4.852  12.855  22.507  0.00  0.00    +0.000 A 
ENDROOT
BRANCH   1  19
ATOM     19  C   UNL     1       0.993  11.319  18.969  0.00  0.00    +0.000 C 
BRANCH  19  20
ATOM     20  C   UNL     1       0.981   9.819  18.543  0.00  0.00    +0.000 C 
BRANCH  20  21
ATOM     21  O   UNL     1       0.079   9.639  17.441  0.00  0.00    +0.000 OA
ATOM     22  H   UNL     1       0.600   9.549  16.627  0.00  0.00    +0.000 HD
ENDBRANCH  20  21
BRANCH  20  23
ATOM     23  C   UNL     1       2.393   9.291  18.175  0.00  0.00    +0.000 C 
BRANCH  23  24
ATOM     24  O   UNL     1       2.283   7.982  17.620  0.00  0.00    +0.000 OA
BRANCH  24  25
ATOM     25  C   UNL     1       2.714   6.900  18.334  0.00  0.00    +0.000 A 
ATOM     26  C   UNL     1       2.162   6.427  19.524  0.00  0.00    +0.000 A 
ATOM     27  C   UNL     1       2.751   5.340  20.170  0.00  0.00    +0.000 A 
ATOM     28  F   UNL     1       2.219   4.893  21.312  0.00  0.00    +0.000 F 
ATOM     29  C   UNL     1       3.893   4.718  19.661  0.00  0.00    +0.000 A 
ATOM     30  C   UNL     1       4.448   5.170  18.464  0.00  0.00    +0.000 A 
ATOM     31  C   UNL     1       3.858   6.260  17.806  0.00  0.00    +0.000 A 
ATOM     32  O   UNL     1       4.307   6.730  16.598  0.00  0.00    +0.000 OA
ATOM     33  C   UNL     1       5.638   6.358  16.251  0.00  0.00    +0.000 C 
ATOM     34  C   UNL     1       5.883   4.874  16.450  0.00  0.00    +0.000 C 
ATOM     35  C   UNL     1       5.698   4.535  17.922  0.00  0.00    +0.000 C 
ENDBRANCH  24  25
ENDBRANCH  23  24
ENDBRANCH  20  23
ENDBRANCH  19  20
ENDBRANCH   1  19
TORSDOF 6
ENDMDL
