MODEL 1
REMARK VINA RESULT:      -7.3      0.000      0.000
REMARK  Name = 
REMARK  9 active torsions:
REMARK  status: ('A' for Active; 'I' for Inactive)
REMARK    1  A    between atoms: C_1  and  C_2
REMARK    2  A    between atoms: N_4  and  C_5
REMARK    3  A    between atoms: C_5  and  C_6
REMARK    4  A    between atoms: C_5  and  C_7
REMARK    5  A    between atoms: C_10  and  O_11
REMARK    6  A    between atoms: O_11  and  C_12
REMARK    7  A    between atoms: C_17  and  O_18
REMARK    8  A    between atoms: O_18  and  C_19
REMARK    9  A    between atoms: C_19  and  C_20
REMARK                            x       y       z     vdW  Elec       q    Type
REMARK                         _______ _______ _______ _____ _____    ______ ____
ROOT
ATOM      1  C   UNL     1       0.461   9.376  20.263  0.00  0.00    +0.000 C 
ATOM      2  C   UNL     1       1.594   8.970  19.309  0.00  0.00    +0.000 C 
ATOM      3  N   UNL     1       1.941   7.902  20.195  0.00  0.00    +0.000 N 
ATOM      4  C   UNL     1       2.285   6.580  19.845  0.00  0.00    +0.000 A 
ATOM      5  C   UNL     1       2.958   6.313  18.667  0.00  0.00    +0.000 A 
ATOM      6  C   UNL     1       3.161   4.985  18.363  0.00  0.00    +0.000 A 
ATOM      7  N   UNL     1       2.803   3.974  19.169  0.00  0.00    +0.000 NA
ATOM      8  C   UNL     1       2.213   4.339  20.309  0.00  0.00    +0.000 A 
ATOM      9  N   UNL     1       1.927   5.590  20.685  0.00  0.00    +0.000 NA
ATOM     10  C   UNL     1       0.968   8.261  21.188  0.00  0.00    +0.000 C 
ENDROOT
BRANCH   1  11
ATOM     11  O   UNL     1       0.501  10.737  20.762  0.00  0.00    +0.000 OA
BRANCH  11  15
ATOM     12  C   UNL     1      -2.964  12.381  22.477  0.00  0.00    +0.000 A 
ATOM     13  C   UNL     1      -2.056  11.607  23.217  0.00  0.00    +0.000 A 
ATOM     14  C   UNL     1      -0.915  11.069  22.612  0.00  0.00    +0.000 A 
ATOM     15  C   UNL     1      -0.659  11.284  21.254  0.00  0.00    +0.000 A 
ATOM     16  C   UNL     1      -1.542  12.063  20.513  0.00  0.00    +0.000 A 
ATOM     17  C   UNL     1      -2.690  12.597  21.113  0.00  0.00    +0.000 A 
BRANCH  12  18
ATOM     18  C   UNL     1      -4.219  12.939  23.143  0.00  0.00    +0.000 C 
ATOM     19  C   UNL     1      -4.212  12.605  24.641  0.00  0.00    +0.000 C 
BRANCH  18  23
ATOM     20  C   UNL     1      -7.451  12.529  21.190  0.00  0.00    +0.000 C 
ATOM     21  C   UNL     1      -6.293  13.267  21.806  0.00  0.00    +0.000 C 
ATOM     22  O   UNL     1      -6.168  14.482  21.713  0.00  0.00    +0.000 OA
ATOM     23  N   UNL     1      -5.415  12.444  22.470  0.00  0.00    +0.000 N 
ATOM     24  H   UNL     1      -5.464  11.450  22.286  0.00  0.00    +0.000 HD
ENDBRANCH  18  23
ENDBRANCH  12  18
ENDBRANCH  11  15
ENDBRANCH   1  11
BRANCH   6  25
ATOM     25  O   UNL     1       3.778   4.701  17.157  0.00  0.00    +0.000 OA
BRANCH  25  26
ATOM     26  C   UNL     1       5.023   5.397  17.016  0.00  0.00    +0.000 C 
BRANCH  26  27
ATOM     27  C   UNL     1       6.072   4.706  17.835  0.00  0.00    +0.000 C 
ATOM     28  C   UNL     1       7.480   4.610  17.291  0.00  0.00    +0.000 C 
ATOM     29  C   UNL     1       7.195   5.465  18.495  0.00  0.00    +0.000 C 
ENDBRANCH  26  27
ENDBRANCH  25  26
ENDBRANCH   6  25
TORSDOF 7
ENDMDL
MODEL 2
REMARK VINA RESULT:      -7.1      2.691      3.555
REMARK  Name = 
REMARK  9 active torsions:
REMARK  status: ('A' for Active; 'I' for Inactive)
REMARK    1  A    between atoms: C_1  and  C_2
REMARK    2  A    between atoms: N_4  and  C_5
REMARK    3  A    between atoms: C_5  and  C_6
REMARK    4  A    between atoms: C_5  and  C_7
REMARK    5  A    between atoms: C_10  and  O_11
REMARK    6  A    between atoms: O_11  and  C_12
REMARK    7  A    between atoms: C_17  and  O_18
REMARK    8  A    between atoms: O_18  and  C_19
REMARK    9  A    between atoms: C_19  and  C_20
REMARK                            x       y       z     vdW  Elec       q    Type
REMARK                         _______ _______ _______ _____ _____    ______ ____
ROOT
ATOM      1  C   UNL     1       1.449   8.596  18.129  0.00  0.00    +0.000 C 
ATOM      2  C   UNL     1       2.798   8.429  17.414  0.00  0.00    +0.000 C 
ATOM      3  N   UNL     1       3.221   7.535  18.446  0.00  0.00    +0.000 N 
ATOM      4  C   UNL     1       3.922   6.322  18.290  0.00  0.00    +0.000 A 
ATOM      5  C   UNL     1       4.839   6.161  17.267  0.00  0.00    +0.000 A 
ATOM      6  C   UNL     1       5.399   4.910  17.134  0.00  0.00    +0.000 A 
ATOM      7  N   UNL     1       5.150   3.891  17.970  0.00  0.00    +0.000 NA
ATOM      8  C   UNL     1       4.297   4.164  18.959  0.00  0.00    +0.000 A 
ATOM      9  N   UNL     1       3.663   5.324  19.157  0.00  0.00    +0.000 NA
ATOM     10  C   UNL     1       2.030   7.699  19.231  0.00  0.00    +0.000 C 
ENDROOT
BRANCH   1  11
ATOM     11  O   UNL     1       1.079   9.952  18.490  0.00  0.00    +0.000 OA
BRANCH  11  15
ATOM     12  C   UNL     1      -2.933  11.197  18.451  0.00  0.00    +0.000 A 
ATOM     13  C   UNL     1      -1.999  11.709  19.365  0.00  0.00    +0.000 A 
ATOM     14  C   UNL     1      -0.671  11.266  19.355  0.00  0.00    +0.000 A 
ATOM     15  C   UNL     1      -0.250  10.299  18.438  0.00  0.00    +0.000 A 
ATOM     16  C   UNL     1      -1.162   9.796  17.515  0.00  0.00    +0.000 A 
ATOM     17  C   UNL     1      -2.494  10.230  17.528  0.00  0.00    +0.000 A 
BRANCH  12  18
ATOM     18  C   UNL     1      -4.384  11.670  18.492  0.00  0.00    +0.000 C 
ATOM     19  C   UNL     1      -4.910  11.882  17.067  0.00  0.00    +0.000 C 
BRANCH  18  23
ATOM     20  C   UNL     1      -5.148  14.242  21.181  0.00  0.00    +0.000 C 
ATOM     21  C   UNL     1      -5.157  12.891  20.520  0.00  0.00    +0.000 C 
ATOM     22  O   UNL     1      -5.702  11.917  21.028  0.00  0.00    +0.000 OA
ATOM     23  N   UNL     1      -4.503  12.872  19.311  0.00  0.00    +0.000 N 
ATOM     24  H   UNL     1      -3.884  13.642  19.094  0.00  0.00    +0.000 HD
ENDBRANCH  18  23
ENDBRANCH  12  18
ENDBRANCH  11  15
ENDBRANCH   1  11
BRANCH   6  25
ATOM     25  O   UNL     1       6.271   4.718  16.076  0.00  0.00    +0.000 OA
BRANCH  25  26
ATOM     26  C   UNL     1       5.604   4.799  14.810  0.00  0.00    +0.000 C 
BRANCH  26  27
ATOM     27  C   UNL     1       6.183   3.776  13.880  0.00  0.00    +0.000 C 
ATOM     28  C   UNL     1       5.460   3.469  12.587  0.00  0.00    +0.000 C 
ATOM     29  C   UNL     1       6.795   4.161  12.556  0.00  0.00    +0.000 C 
ENDBRANCH  26  27
ENDBRANCH  25  26
ENDBRANCH   6  25
TORSDOF 7
ENDMDL
MODEL 3
REMARK VINA RESULT:      -7.1      2.412      3.284
REMARK  Name = 
REMARK  9 active torsions:
REMARK  status: ('A' for Active; 'I' for Inactive)
REMARK    1  A    between atoms: C_1  and  C_2
REMARK    2  A    between atoms: N_4  and  C_5
REMARK    3  A    between atoms: C_5  and  C_6
REMARK    4  A    between atoms: C_5  and  C_7
REMARK    5  A    between atoms: C_10  and  O_11
REMARK    6  A    between atoms: O_11  and  C_12
REMARK    7  A    between atoms: C_17  and  O_18
REMARK    8  A    between atoms: O_18  and  C_19
REMARK    9  A    between atoms: C_19  and  C_20
REMARK                            x       y       z     vdW  Elec       q    Type
REMARK                         _______ _______ _______ _____ _____    ______ ____
ROOT
ATOM      1  C   UNL     1       1.395   8.691  18.211  0.00  0.00    +0.000 C 
ATOM      2  C   UNL     1       2.777   8.315  17.658  0.00  0.00    +0.000 C 
ATOM      3  N   UNL     1       2.989   7.472  18.794  0.00  0.00    +0.000 N 
ATOM      4  C   UNL     1       3.553   6.181  18.807  0.00  0.00    +0.000 A 
ATOM      5  C   UNL     1       4.539   5.830  17.902  0.00  0.00    +0.000 A 
ATOM      6  C   UNL     1       4.956   4.518  17.925  0.00  0.00    +0.000 A 
ATOM      7  N   UNL     1       4.508   3.610  18.804  0.00  0.00    +0.000 NA
ATOM      8  C   UNL     1       3.601   4.061  19.674  0.00  0.00    +0.000 A 
ATOM      9  N   UNL     1       3.093   5.298  19.714  0.00  0.00    +0.000 NA
ATOM     10  C   UNL     1       1.755   7.835  19.433  0.00  0.00    +0.000 C 
ENDROOT
BRANCH   1  11
ATOM     11  O   UNL     1       1.155  10.106  18.426  0.00  0.00    +0.000 OA
BRANCH  11  15
ATOM     12  C   UNL     1      -2.883  11.264  18.432  0.00  0.00    +0.000 A 
ATOM     13  C   UNL     1      -2.397  10.245  17.598  0.00  0.00    +0.000 A 
ATOM     14  C   UNL     1      -1.044   9.889  17.617  0.00  0.00    +0.000 A 
ATOM     15  C   UNL     1      -0.145  10.547  18.462  0.00  0.00    +0.000 A 
ATOM     16  C   UNL     1      -0.617  11.548  19.305  0.00  0.00    +0.000 A 
ATOM     17  C   UNL     1      -1.969  11.913  19.284  0.00  0.00    +0.000 A 
BRANCH  12  18
ATOM     18  C   UNL     1      -4.356  11.660  18.382  0.00  0.00    +0.000 C 
ATOM     19  C   UNL     1      -4.829  11.745  16.925  0.00  0.00    +0.000 C 
BRANCH  18  23
ATOM     20  C   UNL     1      -5.411  14.372  20.824  0.00  0.00    +0.000 C 
ATOM     21  C   UNL     1      -5.333  12.982  20.251  0.00  0.00    +0.000 C 
ATOM     22  O   UNL     1      -5.903  12.028  20.769  0.00  0.00    +0.000 OA
ATOM     23  N   UNL     1      -4.573  12.906  19.109  0.00  0.00    +0.000 N 
ATOM     24  H   UNL     1      -3.952  13.677  18.900  0.00  0.00    +0.000 HD
ENDBRANCH  18  23
ENDBRANCH  12  18
ENDBRANCH  11  15
ENDBRANCH   1  11
BRANCH   6  25
ATOM     25  O   UNL     1       5.898   4.139  16.984  0.00  0.00    +0.000 OA
BRANCH  25  26
ATOM     26  C   UNL     1       6.422   5.265  16.268  0.00  0.00    +0.000 C 
BRANCH  26  27
ATOM     27  C   UNL     1       6.049   5.146  14.820  0.00  0.00    +0.000 C 
ATOM     28  C   UNL     1       7.139   4.889  13.802  0.00  0.00    +0.000 C 
ATOM     29  C   UNL     1       6.111   3.829  14.088  0.00  0.00    +0.000 C 
ENDBRANCH  26  27
ENDBRANCH  25  26
ENDBRANCH   6  25
TORSDOF 7
ENDMDL
MODEL 4
REMARK VINA RESULT:      -7.1      2.858     11.451
REMARK  Name = 
REMARK  9 active torsions:
REMARK  status: ('A' for Active; 'I' for Inactive)
REMARK    1  A    between atoms: C_1  and  C_2
REMARK    2  A    between atoms: N_4  and  C_5
REMARK    3  A    between atoms: C_5  and  C_6
REMARK    4  A    between atoms: C_5  and  C_7
REMARK    5  A    between atoms: C_10  and  O_11
REMARK    6  A    between atoms: O_11  and  C_12
REMARK    7  A    between atoms: C_17  and  O_18
REMARK    8  A    between atoms: O_18  and  C_19
REMARK    9  A    between atoms: C_19  and  C_20
REMARK                            x       y       z     vdW  Elec       q    Type
REMARK                         _______ _______ _______ _____ _____    ______ ____
ROOT
ATOM      1  C   UNL     1       2.535   6.123  19.318  0.00  0.00    +0.000 C 
ATOM      2  C   UNL     1       2.160   6.960  20.550  0.00  0.00    +0.000 C 
ATOM      3  N   UNL     1       2.073   8.121  19.720  0.00  0.00    +0.000 N 
ATOM      4  C   UNL     1       1.086   9.127  19.758  0.00  0.00    +0.000 A 
ATOM      5  C   UNL     1       0.486   9.484  20.952  0.00  0.00    +0.000 A 
ATOM      6  C   UNL     1      -0.537  10.403  20.875  0.00  0.00    +0.000 A 
ATOM      7  N   UNL     1      -0.920  10.997  19.735  0.00  0.00    +0.000 NA
ATOM      8  C   UNL     1      -0.240  10.628  18.647  0.00  0.00    +0.000 A 
ATOM      9  N   UNL     1       0.737   9.716  18.599  0.00  0.00    +0.000 NA
ATOM     10  C   UNL     1       2.506   7.441  18.532  0.00  0.00    +0.000 C 
ENDROOT
BRANCH   1  11
ATOM     11  O   UNL     1       3.796   5.409  19.390  0.00  0.00    +0.000 OA
BRANCH  11  15
ATOM     12  C   UNL     1       5.633   4.476  15.729  0.00  0.00    +0.000 A 
ATOM     13  C   UNL     1       4.476   3.818  16.176  0.00  0.00    +0.000 A 
ATOM     14  C   UNL     1       3.893   4.150  17.405  0.00  0.00    +0.000 A 
ATOM     15  C   UNL     1       4.457   5.138  18.217  0.00  0.00    +0.000 A 
ATOM     16  C   UNL     1       5.594   5.809  17.778  0.00  0.00    +0.000 A 
ATOM     17  C   UNL     1       6.185   5.475  16.553  0.00  0.00    +0.000 A 
BRANCH  12  18
ATOM     18  C   UNL     1       6.272   4.085  14.399  0.00  0.00    +0.000 C 
ATOM     19  C   UNL     1       7.328   5.122  13.997  0.00  0.00    +0.000 C 
BRANCH  18  23
ATOM     20  C   UNL     1       4.262   3.178  11.306  0.00  0.00    +0.000 C 
ATOM     21  C   UNL     1       5.467   3.224  12.206  0.00  0.00    +0.000 C 
ATOM     22  O   UNL     1       6.531   2.694  11.904  0.00  0.00    +0.000 OA
ATOM     23  N   UNL     1       5.247   3.912  13.375  0.00  0.00    +0.000 N 
ATOM     24  H   UNL     1       4.289   4.096  13.644  0.00  0.00    +0.000 HD
ENDBRANCH  18  23
ENDBRANCH  12  18
ENDBRANCH  11  15
ENDBRANCH   1  11
BRANCH   6  25
ATOM     25  O   UNL     1      -1.187  10.724  22.055  0.00  0.00    +0.000 OA
BRANCH  25  26
ATOM     26  C   UNL     1      -0.850  12.041  22.511  0.00  0.00    +0.000 C 
BRANCH  26  27
ATOM     27  C   UNL     1      -2.076  12.699  23.069  0.00  0.00    +0.000 C 
ATOM     28  C   UNL     1      -2.649  13.904  22.357  0.00  0.00    +0.000 C 
ATOM     29  C   UNL     1      -3.413  12.609  22.378  0.00  0.00    +0.000 C 
ENDBRANCH  26  27
ENDBRANCH  25  26
ENDBRANCH   6  25
TORSDOF 7
ENDMDL
MODEL 5
REMARK VINA RESULT:      -7.1      3.001     11.549
REMARK  Name = 
REMARK  9 active torsions:
REMARK  status: ('A' for Active; 'I' for Inactive)
REMARK    1  A    between atoms: C_1  and  C_2
REMARK    2  A    between atoms: N_4  and  C_5
REMARK    3  A    between atoms: C_5  and  C_6
REMARK    4  A    between atoms: C_5  and  C_7
REMARK    5  A    between atoms: C_10  and  O_11
REMARK    6  A    between atoms: O_11  and  C_12
REMARK    7  A    between atoms: C_17  and  O_18
REMARK    8  A    between atoms: O_18  and  C_19
REMARK    9  A    between atoms: C_19  and  C_20
REMARK                            x       y       z     vdW  Elec       q    Type
REMARK                         _______ _______ _______ _____ _____    ______ ____
ROOT
ATOM      1  C   UNL     1       2.412   6.706  18.963  0.00  0.00    +0.000 C 
ATOM      2  C   UNL     1       2.041   7.639  20.125  0.00  0.00    +0.000 C 
ATOM      3  N   UNL     1       1.827   8.699  19.190  0.00  0.00    +0.000 N 
ATOM      4  C   UNL     1       0.772   9.634  19.187  0.00  0.00    +0.000 A 
ATOM      5  C   UNL     1       0.211  10.072  20.373  0.00  0.00    +0.000 A 
ATOM      6  C   UNL     1      -0.879  10.907  20.266  0.00  0.00    +0.000 A 
ATOM      7  N   UNL     1      -1.363  11.353  19.097  0.00  0.00    +0.000 NA
ATOM      8  C   UNL     1      -0.716  10.920  18.013  0.00  0.00    +0.000 A 
ATOM      9  N   UNL     1       0.321  10.076  17.997  0.00  0.00    +0.000 NA
ATOM     10  C   UNL     1       2.246   7.930  18.052  0.00  0.00    +0.000 C 
ENDROOT
BRANCH   1  11
ATOM     11  O   UNL     1       3.724   6.090  19.030  0.00  0.00    +0.000 OA
BRANCH  11  15
ATOM     12  C   UNL     1       5.448   4.561  15.518  0.00  0.00    +0.000 A 
ATOM     13  C   UNL     1       5.616   5.897  15.915  0.00  0.00    +0.000 A 
ATOM     14  C   UNL     1       5.022   6.375  17.088  0.00  0.00    +0.000 A 
ATOM     15  C   UNL     1       4.241   5.533  17.886  0.00  0.00    +0.000 A 
ATOM     16  C   UNL     1       4.080   4.202  17.512  0.00  0.00    +0.000 A 
ATOM     17  C   UNL     1       4.667   3.722  16.334  0.00  0.00    +0.000 A 
BRANCH  12  18
ATOM     18  C   UNL     1       6.081   4.061  14.222  0.00  0.00    +0.000 C 
ATOM     19  C   UNL     1       7.266   4.954  13.835  0.00  0.00    +0.000 C 
BRANCH  18  23
ATOM     20  C   UNL     1       4.056   3.261  11.109  0.00  0.00    +0.000 C 
ATOM     21  C   UNL     1       5.218   3.176  12.060  0.00  0.00    +0.000 C 
ATOM     22  O   UNL     1       6.186   2.453  11.848  0.00  0.00    +0.000 OA
ATOM     23  N   UNL     1       5.078   3.982  13.165  0.00  0.00    +0.000 N 
ATOM     24  H   UNL     1       4.157   4.344  13.374  0.00  0.00    +0.000 HD
ENDBRANCH  18  23
ENDBRANCH  12  18
ENDBRANCH  11  15
ENDBRANCH   1  11
BRANCH   6  25
ATOM     25  O   UNL     1      -1.488  11.303  21.444  0.00  0.00    +0.000 OA
BRANCH  25  26
ATOM     26  C   UNL     1      -2.297  12.472  21.262  0.00  0.00    +0.000 C 
BRANCH  26  27
ATOM     27  C   UNL     1      -2.704  13.006  22.603  0.00  0.00    +0.000 C 
ATOM     28  C   UNL     1      -4.168  12.993  22.983  0.00  0.00    +0.000 C 
ATOM     29  C   UNL     1      -3.195  12.101  23.704  0.00  0.00    +0.000 C 
ENDBRANCH  26  27
ENDBRANCH  25  26
ENDBRANCH   6  25
TORSDOF 7
ENDMDL
MODEL 6
REMARK VINA RESULT:      -7.1      2.180      3.179
REMARK  Name = 
REMARK  9 active torsions:
REMARK  status: ('A' for Active; 'I' for Inactive)
REMARK    1  A    between atoms: C_1  and  C_2
REMARK    2  A    between atoms: N_4  and  C_5
REMARK    3  A    between atoms: C_5  and  C_6
REMARK    4  A    between atoms: C_5  and  C_7
REMARK    5  A    between atoms: C_10  and  O_11
REMARK    6  A    between atoms: O_11  and  C_12
REMARK    7  A    between atoms: C_17  and  O_18
REMARK    8  A    between atoms: O_18  and  C_19
REMARK    9  A    between atoms: C_19  and  C_20
REMARK                            x       y       z     vdW  Elec       q    Type
REMARK                         _______ _______ _______ _____ _____    ______ ____
ROOT
ATOM      1  C   UNL     1       1.498   7.015  20.389  0.00  0.00    +0.000 C 
ATOM      2  C   UNL     1       2.858   7.144  19.687  0.00  0.00    +0.000 C 
ATOM      3  N   UNL     1       3.028   5.727  19.781  0.00  0.00    +0.000 N 
ATOM      4  C   UNL     1       3.523   4.858  18.787  0.00  0.00    +0.000 A 
ATOM      5  C   UNL     1       4.487   5.284  17.891  0.00  0.00    +0.000 A 
ATOM      6  C   UNL     1       4.834   4.399  16.895  0.00  0.00    +0.000 A 
ATOM      7  N   UNL     1       4.341   3.155  16.800  0.00  0.00    +0.000 NA
ATOM      8  C   UNL     1       3.461   2.819  17.746  0.00  0.00    +0.000 A 
ATOM      9  N   UNL     1       3.020   3.611  18.729  0.00  0.00    +0.000 NA
ATOM     10  C   UNL     1       1.816   5.519  20.523  0.00  0.00    +0.000 C 
ENDROOT
BRANCH   1  11
ATOM     11  O   UNL     1       1.334   7.781  21.611  0.00  0.00    +0.000 OA
BRANCH  11  15
ATOM     12  C   UNL     1      -1.035  11.249  21.712  0.00  0.00    +0.000 A 
ATOM     13  C   UNL     1      -0.704  10.533  22.874  0.00  0.00    +0.000 A 
ATOM     14  C   UNL     1       0.082   9.377  22.803  0.00  0.00    +0.000 A 
ATOM     15  C   UNL     1       0.548   8.907  21.571  0.00  0.00    +0.000 A 
ATOM     16  C   UNL     1       0.242   9.616  20.415  0.00  0.00    +0.000 A 
ATOM     17  C   UNL     1      -0.552  10.769  20.481  0.00  0.00    +0.000 A 
BRANCH  12  18
ATOM     18  C   UNL     1      -1.916  12.492  21.803  0.00  0.00    +0.000 C 
ATOM     19  C   UNL     1      -1.091  13.746  21.485  0.00  0.00    +0.000 C 
BRANCH  18  23
ATOM     20  C   UNL     1      -4.343  12.586  24.723  0.00  0.00    +0.000 C 
ATOM     21  C   UNL     1      -3.917  12.485  23.283  0.00  0.00    +0.000 C 
ATOM     22  O   UNL     1      -4.723  12.345  22.371  0.00  0.00    +0.000 OA
ATOM     23  N   UNL     1      -2.556  12.567  23.112  0.00  0.00    +0.000 N 
ATOM     24  H   UNL     1      -1.966  12.433  23.923  0.00  0.00    +0.000 HD
ENDBRANCH  18  23
ENDBRANCH  12  18
ENDBRANCH  11  15
ENDBRANCH   1  11
BRANCH   6  25
ATOM     25  O   UNL     1       5.753   4.835  15.956  0.00  0.00    +0.000 OA
BRANCH  25  26
ATOM     26  C   UNL     1       5.273   4.659  14.617  0.00  0.00    +0.000 C 
BRANCH  26  27
ATOM     27  C   UNL     1       6.252   3.824  13.847  0.00  0.00    +0.000 C 
ATOM     28  C   UNL     1       5.874   3.341  12.464  0.00  0.00    +0.000 C 
ATOM     29  C   UNL     1       6.971   4.356  12.633  0.00  0.00    +0.000 C 
ENDBRANCH  26  27
ENDBRANCH  25  26
ENDBRANCH   6  25
TORSDOF 7
ENDMDL
MODEL 7
REMARK VINA RESULT:      -7.0      1.279      1.670
REMARK  Name = 
REMARK  9 active torsions:
REMARK  status: ('A' for Active; 'I' for Inactive)
REMARK    1  A    between atoms: C_1  and  C_2
REMARK    2  A    between atoms: N_4  and  C_5
REMARK    3  A    between atoms: C_5  and  C_6
REMARK    4  A    between atoms: C_5  and  C_7
REMARK    5  A    between atoms: C_10  and  O_11
REMARK    6  A    between atoms: O_11  and  C_12
REMARK    7  A    between atoms: C_17  and  O_18
REMARK    8  A    between atoms: O_18  and  C_19
REMARK    9  A    between atoms: C_19  and  C_20
REMARK                            x       y       z     vdW  Elec       q    Type
REMARK                         _______ _______ _______ _____ _____    ______ ____
ROOT
ATOM      1  C   UNL     1       0.385  10.043  18.994  0.00  0.00    +0.000 C 
ATOM      2  C   UNL     1       1.627   9.676  18.168  0.00  0.00    +0.000 C 
ATOM      3  N   UNL     1       2.009   8.741  19.181  0.00  0.00    +0.000 N 
ATOM      4  C   UNL     1       2.513   7.438  18.993  0.00  0.00    +0.000 A 
ATOM      5  C   UNL     1       3.302   7.136  17.898  0.00  0.00    +0.000 A 
ATOM      6  C   UNL     1       3.663   5.815  17.746  0.00  0.00    +0.000 A 
ATOM      7  N   UNL     1       3.347   4.852  18.624  0.00  0.00    +0.000 NA
ATOM      8  C   UNL     1       2.634   5.256  19.678  0.00  0.00    +0.000 A 
ATOM      9  N   UNL     1       2.192   6.498  19.902  0.00  0.00    +0.000 NA
ATOM     10  C   UNL     1       0.928   9.083  20.062  0.00  0.00    +0.000 C 
ENDROOT
BRANCH   1  11
ATOM     11  O   UNL     1       0.246  11.442  19.353  0.00  0.00    +0.000 OA
BRANCH  11  15
ATOM     12  C   UNL     1      -2.984  12.496  21.824  0.00  0.00    +0.000 A 
ATOM     13  C   UNL     1      -3.071  12.526  20.423  0.00  0.00    +0.000 A 
ATOM     14  C   UNL     1      -1.973  12.175  19.630  0.00  0.00    +0.000 A 
ATOM     15  C   UNL     1      -0.763  11.794  20.217  0.00  0.00    +0.000 A 
ATOM     16  C   UNL     1      -0.668  11.744  21.604  0.00  0.00    +0.000 A 
ATOM     17  C   UNL     1      -1.763  12.103  22.402  0.00  0.00    +0.000 A 
BRANCH  12  18
ATOM     18  C   UNL     1      -4.182  12.908  22.676  0.00  0.00    +0.000 C 
ATOM     19  C   UNL     1      -3.898  12.622  24.156  0.00  0.00    +0.000 C 
BRANCH  18  23
ATOM     20  C   UNL     1      -7.583  12.022  21.233  0.00  0.00    +0.000 C 
ATOM     21  C   UNL     1      -6.447  12.921  21.643  0.00  0.00    +0.000 C 
ATOM     22  O   UNL     1      -6.484  14.136  21.484  0.00  0.00    +0.000 OA
ATOM     23  N   UNL     1      -5.392  12.242  22.205  0.00  0.00    +0.000 N 
ATOM     24  H   UNL     1      -5.347  11.241  22.071  0.00  0.00    +0.000 HD
ENDBRANCH  18  23
ENDBRANCH  12  18
ENDBRANCH  11  15
ENDBRANCH   1  11
BRANCH   6  25
ATOM     25  O   UNL     1       4.402   5.489  16.622  0.00  0.00    +0.000 OA
BRANCH  25  26
ATOM     26  C   UNL     1       4.648   4.079  16.534  0.00  0.00    +0.000 C 
BRANCH  26  27
ATOM     27  C   UNL     1       5.961   3.849  15.847  0.00  0.00    +0.000 C 
ATOM     28  C   UNL     1       6.031   3.971  14.341  0.00  0.00    +0.000 C 
ATOM     29  C   UNL     1       6.735   4.976  15.211  0.00  0.00    +0.000 C 
ENDBRANCH  26  27
ENDBRANCH  25  26
ENDBRANCH   6  25
TORSDOF 7
ENDMDL
MODEL 8
REMARK VINA RESULT:      -7.0      1.904      2.626
REMARK  Name = 
REMARK  9 active torsions:
REMARK  status: ('A' for Active; 'I' for Inactive)
REMARK    1  A    between atoms: C_1  and  C_2
REMARK    2  A    between atoms: N_4  and  C_5
REMARK    3  A    between atoms: C_5  and  C_6
REMARK    4  A    between atoms: C_5  and  C_7
REMARK    5  A    between atoms: C_10  and  O_11
REMARK    6  A    between atoms: O_11  and  C_12
REMARK    7  A    between atoms: C_17  and  O_18
REMARK    8  A    between atoms: O_18  and  C_19
REMARK    9  A    between atoms: C_19  and  C_20
REMARK                            x       y       z     vdW  Elec       q    Type
REMARK                         _______ _______ _______ _____ _____    ______ ____
ROOT
ATOM      1  C   UNL     1       1.270   7.568  20.552  0.00  0.00    +0.000 C 
ATOM      2  C   UNL     1       2.558   7.364  19.740  0.00  0.00    +0.000 C 
ATOM      3  N   UNL     1       2.491   5.961  20.009  0.00  0.00    +0.000 N 
ATOM      4  C   UNL     1       2.732   4.905  19.106  0.00  0.00    +0.000 A 
ATOM      5  C   UNL     1       3.663   5.040  18.092  0.00  0.00    +0.000 A 
ATOM      6  C   UNL     1       3.756   3.995  17.200  0.00  0.00    +0.000 A 
ATOM      7  N   UNL     1       3.051   2.860  17.308  0.00  0.00    +0.000 NA
ATOM      8  C   UNL     1       2.222   2.803  18.354  0.00  0.00    +0.000 A 
ATOM      9  N   UNL     1       2.020   3.772  19.253  0.00  0.00    +0.000 NA
ATOM     10  C   UNL     1       1.339   6.066  20.860  0.00  0.00    +0.000 C 
ENDROOT
BRANCH   1  11
ATOM     11  O   UNL     1       1.358   8.490  21.669  0.00  0.00    +0.000 OA
BRANCH  11  15
ATOM     12  C   UNL     1      -1.461  11.566  22.154  0.00  0.00    +0.000 A 
ATOM     13  C   UNL     1      -1.102  10.706  23.204  0.00  0.00    +0.000 A 
ATOM     14  C   UNL     1      -0.164   9.687  23.006  0.00  0.00    +0.000 A 
ATOM     15  C   UNL     1       0.430   9.499  21.755  0.00  0.00    +0.000 A 
ATOM     16  C   UNL     1       0.096  10.355  20.710  0.00  0.00    +0.000 A 
ATOM     17  C   UNL     1      -0.849  11.371  20.902  0.00  0.00    +0.000 A 
BRANCH  12  18
ATOM     18  C   UNL     1      -2.505  12.656  22.379  0.00  0.00    +0.000 C 
ATOM     19  C   UNL     1      -2.791  13.391  21.063  0.00  0.00    +0.000 C 
BRANCH  18  23
ATOM     20  C   UNL     1      -2.275  15.100  25.279  0.00  0.00    +0.000 C 
ATOM     21  C   UNL     1      -2.954  14.222  24.262  0.00  0.00    +0.000 C 
ATOM     22  O   UNL     1      -4.174  14.121  24.195  0.00  0.00    +0.000 OA
ATOM     23  N   UNL     1      -2.074  13.563  23.438  0.00  0.00    +0.000 N 
ATOM     24  H   UNL     1      -1.104  13.513  23.722  0.00  0.00    +0.000 HD
ENDBRANCH  18  23
ENDBRANCH  12  18
ENDBRANCH  11  15
ENDBRANCH   1  11
BRANCH   6  25
ATOM     25  O   UNL     1       4.641   4.143  16.146  0.00  0.00    +0.000 OA
BRANCH  25  26
ATOM     26  C   UNL     1       5.170   5.473  16.074  0.00  0.00    +0.000 C 
BRANCH  26  27
ATOM     27  C   UNL     1       6.665   5.417  16.180  0.00  0.00    +0.000 C 
ATOM     28  C   UNL     1       7.350   6.184  17.289  0.00  0.00    +0.000 C 
ATOM     29  C   UNL     1       7.356   4.680  17.299  0.00  0.00    +0.000 C 
ENDBRANCH  26  27
ENDBRANCH  25  26
ENDBRANCH   6  25
TORSDOF 7
ENDMDL
MODEL 9
REMARK VINA RESULT:      -6.9      2.210     10.744
REMARK  Name = 
REMARK  9 active torsions:
REMARK  status: ('A' for Active; 'I' for Inactive)
REMARK    1  A    between atoms: C_1  and  C_2
REMARK    2  A    between atoms: N_4  and  C_5
REMARK    3  A    between atoms: C_5  and  C_6
REMARK    4  A    between atoms: C_5  and  C_7
REMARK    5  A    between atoms: C_10  and  O_11
REMARK    6  A    between atoms: O_11  and  C_12
REMARK    7  A    between atoms: C_17  and  O_18
REMARK    8  A    between atoms: O_18  and  C_19
REMARK    9  A    between atoms: C_19  and  C_20
REMARK                            x       y       z     vdW  Elec       q    Type
REMARK                         _______ _______ _______ _____ _____    ______ ____
ROOT
ATOM      1  C   UNL     1      -0.577  10.182  19.527  0.00  0.00    +0.000 C 
ATOM      2  C   UNL     1      -1.250  11.329  20.296  0.00  0.00    +0.000 C 
ATOM      3  N   UNL     1      -1.991  11.666  19.120  0.00  0.00    +0.000 N 
ATOM      4  C   UNL     1      -3.354  12.017  19.042  0.00  0.00    +0.000 A 
ATOM      5  C   UNL     1      -3.968  12.705  20.073  0.00  0.00    +0.000 A 
ATOM      6  C   UNL     1      -5.324  12.915  19.951  0.00  0.00    +0.000 A 
ATOM      7  N   UNL     1      -6.039  12.548  18.877  0.00  0.00    +0.000 NA
ATOM      8  C   UNL     1      -5.345  11.943  17.911  0.00  0.00    +0.000 A 
ATOM      9  N   UNL     1      -4.040  11.649  17.943  0.00  0.00    +0.000 NA
ATOM     10  C   UNL     1      -1.349  10.679  18.297  0.00  0.00    +0.000 C 
ENDROOT
BRANCH   1  11
ATOM     11  O   UNL     1       0.873  10.213  19.470  0.00  0.00    +0.000 OA
BRANCH  11  15
ATOM     12  C   UNL     1       3.005   6.732  18.477  0.00  0.00    +0.000 A 
ATOM     13  C   UNL     1       2.819   7.783  17.565  0.00  0.00    +0.000 A 
ATOM     14  C   UNL     1       2.097   8.926  17.927  0.00  0.00    +0.000 A 
ATOM     15  C   UNL     1       1.539   9.042  19.204  0.00  0.00    +0.000 A 
ATOM     16  C   UNL     1       1.729   8.015  20.123  0.00  0.00    +0.000 A 
ATOM     17  C   UNL     1       2.444   6.865  19.761  0.00  0.00    +0.000 A 
BRANCH  12  18
ATOM     18  C   UNL     1       3.772   5.481  18.059  0.00  0.00    +0.000 C 
ATOM     19  C   UNL     1       4.614   5.771  16.811  0.00  0.00    +0.000 C 
BRANCH  18  23
ATOM     20  C   UNL     1       1.748   2.275  18.314  0.00  0.00    +0.000 C 
ATOM     21  C   UNL     1       2.768   3.302  18.727  0.00  0.00    +0.000 C 
ATOM     22  O   UNL     1       3.447   3.179  19.740  0.00  0.00    +0.000 OA
ATOM     23  N   UNL     1       2.852   4.365  17.860  0.00  0.00    +0.000 N 
ATOM     24  H   UNL     1       2.097   4.501  17.200  0.00  0.00    +0.000 HD
ENDBRANCH  18  23
ENDBRANCH  12  18
ENDBRANCH  11  15
ENDBRANCH   1  11
BRANCH   6  25
ATOM     25  O   UNL     1      -5.961  13.548  21.003  0.00  0.00    +0.000 OA
BRANCH  25  26
ATOM     26  C   UNL     1      -6.144  12.673  22.123  0.00  0.00    +0.000 C 
BRANCH  26  27
ATOM     27  C   UNL     1      -5.710  13.375  23.376  0.00  0.00    +0.000 C 
ATOM     28  C   UNL     1      -4.627  12.751  24.227  0.00  0.00    +0.000 C 
ATOM     29  C   UNL     1      -4.360  14.035  23.491  0.00  0.00    +0.000 C 
ENDBRANCH  26  27
ENDBRANCH  25  26
ENDBRANCH   6  25
TORSDOF 7
ENDMDL
