MODEL 1
REMARK VINA RESULT:      -7.8      0.000      0.000
REMARK  Name = 
REMARK  5 active torsions:
REMARK  status: ('A' for Active; 'I' for Inactive)
REMARK    1  A    between atoms: C_4  and  C_5
REMARK    2  A    between atoms: C_5  and  O_6
REMARK    3  A    between atoms: O_6  and  C_7
REMARK    4  A    between atoms: C_15  and  O_16
REMARK    5  A    between atoms: O_16  and  C_17
REMARK                            x       y       z     vdW  Elec       q    Type
REMARK                         _______ _______ _______ _____ _____    ______ ____
ROOT
ATOM      1  O   UNL     1       7.318   4.398  18.681  0.00  0.00    +0.000 OA
ATOM      2  C   UNL     1       6.903   5.421  18.146  0.00  0.00    +0.000 A 
ATOM      3  C   UNL     1       7.673   6.684  18.302  0.00  0.00    +0.000 A 
ATOM      4  C   UNL     1       7.328   7.761  17.575  0.00  0.00    +0.000 A 
ATOM      5  N   UNL     1       6.260   7.702  16.694  0.00  0.00    +0.000 N 
ATOM      6  C   UNL     1       5.439   6.605  16.630  0.00  0.00    +0.000 A 
ATOM      7  C   UNL     1       5.639   5.477  17.332  0.00  0.00    +0.000 A 
ATOM      8  H   UNL     1       5.974   8.558  16.225  0.00  0.00    +0.000 HD
ENDROOT
BRANCH   4   9
ATOM      9  C   UNL     1       8.156   9.027  17.655  0.00  0.00    +0.000 C 
BRANCH   9  10
ATOM     10  O   UNL     1       8.817   9.084  18.920  0.00  0.00    +0.000 OA
BRANCH  10  11
ATOM     11  C   UNL     1       9.346  10.305  19.251  0.00  0.00    +0.000 A 
ATOM     12  C   UNL     1       9.856  11.046  18.182  0.00  0.00    +0.000 A 
ATOM     13  C   UNL     1      10.444  12.294  18.401  0.00  0.00    +0.000 A 
ATOM     14  C   UNL     1      10.510  12.820  19.689  0.00  0.00    +0.000 A 
ATOM     15  C   UNL     1       9.971  12.100  20.757  0.00  0.00    +0.000 A 
ATOM     16  C   UNL     1       9.389  10.850  20.537  0.00  0.00    +0.000 A 
ENDBRANCH  10  11
ENDBRANCH   9  10
ENDBRANCH   4   9
BRANCH   7  17
ATOM     17  O   UNL     1       4.737   4.421  17.264  0.00  0.00    +0.000 OA
BRANCH  17  18
ATOM     18  C   UNL     1       3.963   4.126  18.364  0.00  0.00    +0.000 A 
ATOM     19  C   UNL     1       3.498   5.113  19.243  0.00  0.00    +0.000 A 
ATOM     20  C   UNL     1       2.748   4.762  20.366  0.00  0.00    +0.000 A 
ATOM     21  C   UNL     1       2.410   3.428  20.582  0.00  0.00    +0.000 A 
ATOM     22 CL   UNL     1       1.483   3.001  21.966  0.00  0.00    +0.000 Cl
ATOM     23  C   UNL     1       2.809   2.442  19.681  0.00  0.00    +0.000 A 
ATOM     24  C   UNL     1       3.584   2.791  18.574  0.00  0.00    +0.000 A 
ATOM     25 CL   UNL     1       4.056   1.542  17.479  0.00  0.00    +0.000 Cl
ENDBRANCH  17  18
ENDBRANCH   7  17
TORSDOF 5
ENDMDL
MODEL 2
REMARK VINA RESULT:      -7.8      4.976      8.002
REMARK  Name = 
REMARK  5 active torsions:
REMARK  status: ('A' for Active; 'I' for Inactive)
REMARK    1  A    between atoms: C_4  and  C_5
REMARK    2  A    between atoms: C_5  and  O_6
REMARK    3  A    between atoms: O_6  and  C_7
REMARK    4  A    between atoms: C_15  and  O_16
REMARK    5  A    between atoms: O_16  and  C_17
REMARK                            x       y       z     vdW  Elec       q    Type
REMARK                         _______ _______ _______ _____ _____    ______ ____
ROOT
ATOM      1  O   UNL     1       7.550   4.526  18.111  0.00  0.00    +0.000 OA
ATOM      2  C   UNL     1       6.556   5.180  17.813  0.00  0.00    +0.000 A 
ATOM      3  C   UNL     1       5.452   5.314  18.800  0.00  0.00    +0.000 A 
ATOM      4  C   UNL     1       4.448   6.173  18.555  0.00  0.00    +0.000 A 
ATOM      5  N   UNL     1       4.433   6.924  17.389  0.00  0.00    +0.000 N 
ATOM      6  C   UNL     1       5.353   6.723  16.392  0.00  0.00    +0.000 A 
ATOM      7  C   UNL     1       6.384   5.865  16.484  0.00  0.00    +0.000 A 
ATOM      8  H   UNL     1       3.617   7.498  17.197  0.00  0.00    +0.000 HD
ENDROOT
BRANCH   4   9
ATOM      9  C   UNL     1       3.362   6.387  19.590  0.00  0.00    +0.000 C 
BRANCH   9  10
ATOM     10  O   UNL     1       2.103   5.992  19.046  0.00  0.00    +0.000 OA
BRANCH  10  11
ATOM     11  C   UNL     1       1.789   4.665  19.195  0.00  0.00    +0.000 A 
ATOM     12  C   UNL     1       1.437   4.275  20.490  0.00  0.00    +0.000 A 
ATOM     13  C   UNL     1       1.123   2.943  20.768  0.00  0.00    +0.000 A 
ATOM     14  C   UNL     1       1.140   1.992  19.750  0.00  0.00    +0.000 A 
ATOM     15  C   UNL     1       1.458   2.382  18.448  0.00  0.00    +0.000 A 
ATOM     16  C   UNL     1       1.778   3.713  18.172  0.00  0.00    +0.000 A 
ENDBRANCH  10  11
ENDBRANCH   9  10
ENDBRANCH   4   9
BRANCH   7  17
ATOM     17  O   UNL     1       7.249   5.667  15.414  0.00  0.00    +0.000 OA
BRANCH  17  18
ATOM     18  C   UNL     1       6.867   4.836  14.385  0.00  0.00    +0.000 A 
ATOM     19  C   UNL     1       5.763   3.978  14.482  0.00  0.00    +0.000 A 
ATOM     20  C   UNL     1       5.437   3.126  13.425  0.00  0.00    +0.000 A 
ATOM     21  C   UNL     1       6.178   3.171  12.246  0.00  0.00    +0.000 A 
ATOM     22 CL   UNL     1       5.769   2.121  10.947  0.00  0.00    +0.000 Cl
ATOM     23  C   UNL     1       7.238   4.066  12.110  0.00  0.00    +0.000 A 
ATOM     24  C   UNL     1       7.581   4.897  13.179  0.00  0.00    +0.000 A 
ATOM     25 CL   UNL     1       8.899   5.994  12.970  0.00  0.00    +0.000 Cl
ENDBRANCH  17  18
ENDBRANCH   7  17
TORSDOF 5
ENDMDL
MODEL 3
REMARK VINA RESULT:      -7.8      1.866      2.457
REMARK  Name = 
REMARK  5 active torsions:
REMARK  status: ('A' for Active; 'I' for Inactive)
REMARK    1  A    between atoms: C_4  and  C_5
REMARK    2  A    between atoms: C_5  and  O_6
REMARK    3  A    between atoms: O_6  and  C_7
REMARK    4  A    between atoms: C_15  and  O_16
REMARK    5  A    between atoms: O_16  and  C_17
REMARK                            x       y       z     vdW  Elec       q    Type
REMARK                         _______ _______ _______ _____ _____    ______ ____
ROOT
ATOM      1  O   UNL     1       5.913   7.013  16.252  0.00  0.00    +0.000 OA
ATOM      2  C   UNL     1       6.788   7.016  17.111  0.00  0.00    +0.000 A 
ATOM      3  C   UNL     1       7.510   8.283  17.407  0.00  0.00    +0.000 A 
ATOM      4  C   UNL     1       8.337   8.339  18.465  0.00  0.00    +0.000 A 
ATOM      5  N   UNL     1       8.527   7.228  19.270  0.00  0.00    +0.000 N 
ATOM      6  C   UNL     1       7.995   6.005  18.946  0.00  0.00    +0.000 A 
ATOM      7  C   UNL     1       7.186   5.794  17.894  0.00  0.00    +0.000 A 
ATOM      8  H   UNL     1       9.223   7.281  20.008  0.00  0.00    +0.000 HD
ENDROOT
BRANCH   4   9
ATOM      9  C   UNL     1       9.010   9.646  18.832  0.00  0.00    +0.000 C 
BRANCH   9  10
ATOM     10  O   UNL     1       8.664  10.645  17.872  0.00  0.00    +0.000 OA
BRANCH  10  11
ATOM     11  C   UNL     1       9.410  11.796  17.928  0.00  0.00    +0.000 A 
ATOM     12  C   UNL     1      10.780  11.632  17.705  0.00  0.00    +0.000 A 
ATOM     13  C   UNL     1      11.643  12.728  17.763  0.00  0.00    +0.000 A 
ATOM     14  C   UNL     1      11.141  14.001  18.024  0.00  0.00    +0.000 A 
ATOM     15  C   UNL     1       9.770  14.177  18.214  0.00  0.00    +0.000 A 
ATOM     16  C   UNL     1       8.908  13.078  18.162  0.00  0.00    +0.000 A 
ENDBRANCH  10  11
ENDBRANCH   9  10
ENDBRANCH   4   9
BRANCH   7  17
ATOM     17  O   UNL     1       6.726   4.518  17.588  0.00  0.00    +0.000 OA
BRANCH  17  18
ATOM     18  C   UNL     1       5.421   4.187  17.876  0.00  0.00    +0.000 A 
ATOM     19  C   UNL     1       4.924   4.158  19.186  0.00  0.00    +0.000 A 
ATOM     20  C   UNL     1       3.604   3.778  19.431  0.00  0.00    +0.000 A 
ATOM     21  C   UNL     1       2.759   3.483  18.363  0.00  0.00    +0.000 A 
ATOM     22 CL   UNL     1       1.132   3.019  18.672  0.00  0.00    +0.000 Cl
ATOM     23  C   UNL     1       3.220   3.571  17.051  0.00  0.00    +0.000 A 
ATOM     24  C   UNL     1       4.549   3.923  16.809  0.00  0.00    +0.000 A 
ATOM     25 CL   UNL     1       5.082   4.024  15.168  0.00  0.00    +0.000 Cl
ENDBRANCH  17  18
ENDBRANCH   7  17
TORSDOF 5
ENDMDL
MODEL 4
REMARK VINA RESULT:      -7.7      1.572      1.818
REMARK  Name = 
REMARK  5 active torsions:
REMARK  status: ('A' for Active; 'I' for Inactive)
REMARK    1  A    between atoms: C_4  and  C_5
REMARK    2  A    between atoms: C_5  and  O_6
REMARK    3  A    between atoms: O_6  and  C_7
REMARK    4  A    between atoms: C_15  and  O_16
REMARK    5  A    between atoms: O_16  and  C_17
REMARK                            x       y       z     vdW  Elec       q    Type
REMARK                         _______ _______ _______ _____ _____    ______ ____
ROOT
ATOM      1  O   UNL     1       8.439   5.176  19.777  0.00  0.00    +0.000 OA
ATOM      2  C   UNL     1       8.055   5.984  18.938  0.00  0.00    +0.000 A 
ATOM      3  C   UNL     1       8.407   7.420  19.099  0.00  0.00    +0.000 A 
ATOM      4  C   UNL     1       8.149   8.278  18.098  0.00  0.00    +0.000 A 
ATOM      5  N   UNL     1       7.552   7.837  16.928  0.00  0.00    +0.000 N 
ATOM      6  C   UNL     1       7.082   6.554  16.799  0.00  0.00    +0.000 A 
ATOM      7  C   UNL     1       7.232   5.603  17.737  0.00  0.00    +0.000 A 
ATOM      8  H   UNL     1       7.294   8.527  16.228  0.00  0.00    +0.000 HD
ENDROOT
BRANCH   4   9
ATOM      9  C   UNL     1       8.582   9.726  18.210  0.00  0.00    +0.000 C 
BRANCH   9  10
ATOM     10  O   UNL     1       9.294   9.916  19.433  0.00  0.00    +0.000 OA
BRANCH  10  11
ATOM     11  C   UNL     1       9.854  11.158  19.599  0.00  0.00    +0.000 A 
ATOM     12  C   UNL     1      11.078  11.353  18.955  0.00  0.00    +0.000 A 
ATOM     13  C   UNL     1      11.755  12.569  19.074  0.00  0.00    +0.000 A 
ATOM     14  C   UNL     1      11.204  13.607  19.823  0.00  0.00    +0.000 A 
ATOM     15  C   UNL     1       9.965  13.430  20.440  0.00  0.00    +0.000 A 
ATOM     16  C   UNL     1       9.292  12.211  20.325  0.00  0.00    +0.000 A 
ENDBRANCH  10  11
ENDBRANCH   9  10
ENDBRANCH   4   9
BRANCH   7  17
ATOM     17  O   UNL     1       6.682   4.337  17.569  0.00  0.00    +0.000 OA
BRANCH  17  18
ATOM     18  C   UNL     1       5.369   4.122  17.920  0.00  0.00    +0.000 A 
ATOM     19  C   UNL     1       4.950   4.050  19.255  0.00  0.00    +0.000 A 
ATOM     20  C   UNL     1       3.614   3.791  19.562  0.00  0.00    +0.000 A 
ATOM     21  C   UNL     1       2.680   3.663  18.536  0.00  0.00    +0.000 A 
ATOM     22 CL   UNL     1       1.034   3.347  18.921  0.00  0.00    +0.000 Cl
ATOM     23  C   UNL     1       3.069   3.798  17.205  0.00  0.00    +0.000 A 
ATOM     24  C   UNL     1       4.412   4.027  16.898  0.00  0.00    +0.000 A 
ATOM     25 CL   UNL     1       4.855   4.192  15.237  0.00  0.00    +0.000 Cl
ENDBRANCH  17  18
ENDBRANCH   7  17
TORSDOF 5
ENDMDL
MODEL 5
REMARK VINA RESULT:      -7.6      5.895      8.077
REMARK  Name = 
REMARK  5 active torsions:
REMARK  status: ('A' for Active; 'I' for Inactive)
REMARK    1  A    between atoms: C_4  and  C_5
REMARK    2  A    between atoms: C_5  and  O_6
REMARK    3  A    between atoms: O_6  and  C_7
REMARK    4  A    between atoms: C_15  and  O_16
REMARK    5  A    between atoms: O_16  and  C_17
REMARK                            x       y       z     vdW  Elec       q    Type
REMARK                         _______ _______ _______ _____ _____    ______ ____
ROOT
ATOM      1  O   UNL     1       2.242   9.635  17.198  0.00  0.00    +0.000 OA
ATOM      2  C   UNL     1       2.010   8.918  18.166  0.00  0.00    +0.000 A 
ATOM      3  C   UNL     1       2.475   7.505  18.151  0.00  0.00    +0.000 A 
ATOM      4  C   UNL     1       2.387   6.771  19.272  0.00  0.00    +0.000 A 
ATOM      5  N   UNL     1       1.860   7.316  20.432  0.00  0.00    +0.000 N 
ATOM      6  C   UNL     1       1.289   8.563  20.446  0.00  0.00    +0.000 A 
ATOM      7  C   UNL     1       1.267   9.390  19.387  0.00  0.00    +0.000 A 
ATOM      8  H   UNL     1       1.729   6.707  21.235  0.00  0.00    +0.000 HD
ENDROOT
BRANCH   4   9
ATOM      9  C   UNL     1       2.937   5.359  19.299  0.00  0.00    +0.000 C 
BRANCH   9  10
ATOM     10  O   UNL     1       4.258   5.373  19.841  0.00  0.00    +0.000 OA
BRANCH  10  11
ATOM     11  C   UNL     1       5.267   5.169  18.934  0.00  0.00    +0.000 A 
ATOM     12  C   UNL     1       4.873   4.604  17.719  0.00  0.00    +0.000 A 
ATOM     13  C   UNL     1       5.818   4.326  16.728  0.00  0.00    +0.000 A 
ATOM     14  C   UNL     1       7.162   4.629  16.937  0.00  0.00    +0.000 A 
ATOM     15  C   UNL     1       7.556   5.225  18.136  0.00  0.00    +0.000 A 
ATOM     16  C   UNL     1       6.612   5.497  19.128  0.00  0.00    +0.000 A 
ENDBRANCH  10  11
ENDBRANCH   9  10
ENDBRANCH   4   9
BRANCH   7  17
ATOM     17  O   UNL     1       0.622  10.620  19.451  0.00  0.00    +0.000 OA
BRANCH  17  18
ATOM     18  C   UNL     1      -0.641  10.746  18.918  0.00  0.00    +0.000 A 
ATOM     19  C   UNL     1      -1.079   9.975  17.833  0.00  0.00    +0.000 A 
ATOM     20  C   UNL     1      -2.356  10.165  17.303  0.00  0.00    +0.000 A 
ATOM     21  C   UNL     1      -3.220  11.085  17.893  0.00  0.00    +0.000 A 
ATOM     22 CL   UNL     1      -4.794  11.312  17.237  0.00  0.00    +0.000 Cl
ATOM     23  C   UNL     1      -2.823  11.811  19.014  0.00  0.00    +0.000 A 
ATOM     24  C   UNL     1      -1.534  11.641  19.525  0.00  0.00    +0.000 A 
ATOM     25 CL   UNL     1      -1.080  12.557  20.917  0.00  0.00    +0.000 Cl
ENDBRANCH  17  18
ENDBRANCH   7  17
TORSDOF 5
ENDMDL
MODEL 6
REMARK VINA RESULT:      -7.6      5.995      7.907
REMARK  Name = 
REMARK  5 active torsions:
REMARK  status: ('A' for Active; 'I' for Inactive)
REMARK    1  A    between atoms: C_4  and  C_5
REMARK    2  A    between atoms: C_5  and  O_6
REMARK    3  A    between atoms: O_6  and  C_7
REMARK    4  A    between atoms: C_15  and  O_16
REMARK    5  A    between atoms: O_16  and  C_17
REMARK                            x       y       z     vdW  Elec       q    Type
REMARK                         _______ _______ _______ _____ _____    ______ ____
ROOT
ATOM      1  O   UNL     1       2.065  10.023  17.363  0.00  0.00    +0.000 OA
ATOM      2  C   UNL     1       1.889   9.214  18.268  0.00  0.00    +0.000 A 
ATOM      3  C   UNL     1       2.467   7.849  18.145  0.00  0.00    +0.000 A 
ATOM      4  C   UNL     1       2.435   7.022  19.204  0.00  0.00    +0.000 A 
ATOM      5  N   UNL     1       1.862   7.428  20.398  0.00  0.00    +0.000 N 
ATOM      6  C   UNL     1       1.191   8.621  20.506  0.00  0.00    +0.000 A 
ATOM      7  C   UNL     1       1.106   9.525  19.515  0.00  0.00    +0.000 A 
ATOM      8  H   UNL     1       1.779   6.748  21.148  0.00  0.00    +0.000 HD
ENDROOT
BRANCH   4   9
ATOM      9  C   UNL     1       3.099   5.662  19.123  0.00  0.00    +0.000 C 
BRANCH   9  10
ATOM     10  O   UNL     1       3.872   5.580  17.926  0.00  0.00    +0.000 OA
BRANCH  10  11
ATOM     11  C   UNL     1       5.200   5.900  18.061  0.00  0.00    +0.000 A 
ATOM     12  C   UNL     1       5.846   5.317  19.155  0.00  0.00    +0.000 A 
ATOM     13  C   UNL     1       7.192   5.590  19.409  0.00  0.00    +0.000 A 
ATOM     14  C   UNL     1       7.909   6.432  18.561  0.00  0.00    +0.000 A 
ATOM     15  C   UNL     1       7.277   6.990  17.449  0.00  0.00    +0.000 A 
ATOM     16  C   UNL     1       5.930   6.721  17.198  0.00  0.00    +0.000 A 
ENDBRANCH  10  11
ENDBRANCH   9  10
ENDBRANCH   4   9
BRANCH   7  17
ATOM     17  O   UNL     1       0.363  10.689  19.670  0.00  0.00    +0.000 OA
BRANCH  17  18
ATOM     18  C   UNL     1      -0.865  10.792  19.055  0.00  0.00    +0.000 A 
ATOM     19  C   UNL     1      -1.247   9.954  17.998  0.00  0.00    +0.000 A 
ATOM     20  C   UNL     1      -2.488  10.121  17.380  0.00  0.00    +0.000 A 
ATOM     21  C   UNL     1      -3.373  11.086  17.854  0.00  0.00    +0.000 A 
ATOM     22 CL   UNL     1      -4.901  11.285  17.090  0.00  0.00    +0.000 Cl
ATOM     23  C   UNL     1      -3.033  11.883  18.946  0.00  0.00    +0.000 A 
ATOM     24  C   UNL     1      -1.780  11.735  19.545  0.00  0.00    +0.000 A 
ATOM     25 CL   UNL     1      -1.397  12.738  20.898  0.00  0.00    +0.000 Cl
ENDBRANCH  17  18
ENDBRANCH   7  17
TORSDOF 5
ENDMDL
MODEL 7
REMARK VINA RESULT:      -7.6      1.689      2.238
REMARK  Name = 
REMARK  5 active torsions:
REMARK  status: ('A' for Active; 'I' for Inactive)
REMARK    1  A    between atoms: C_4  and  C_5
REMARK    2  A    between atoms: C_5  and  O_6
REMARK    3  A    between atoms: O_6  and  C_7
REMARK    4  A    between atoms: C_15  and  O_16
REMARK    5  A    between atoms: O_16  and  C_17
REMARK                            x       y       z     vdW  Elec       q    Type
REMARK                         _______ _______ _______ _____ _____    ______ ____
ROOT
ATOM      1  O   UNL     1       5.763   6.828  16.342  0.00  0.00    +0.000 OA
ATOM      2  C   UNL     1       6.691   6.981  17.128  0.00  0.00    +0.000 A 
ATOM      3  C   UNL     1       7.358   8.307  17.215  0.00  0.00    +0.000 A 
ATOM      4  C   UNL     1       8.248   8.535  18.195  0.00  0.00    +0.000 A 
ATOM      5  N   UNL     1       8.553   7.544  19.115  0.00  0.00    +0.000 N 
ATOM      6  C   UNL     1       8.070   6.266  18.982  0.00  0.00    +0.000 A 
ATOM      7  C   UNL     1       7.207   5.887  18.024  0.00  0.00    +0.000 A 
ATOM      8  H   UNL     1       9.292   7.722  19.789  0.00  0.00    +0.000 HD
ENDROOT
BRANCH   4   9
ATOM      9  C   UNL     1       8.869   9.909  18.351  0.00  0.00    +0.000 C 
BRANCH   9  10
ATOM     10  O   UNL     1       9.381  10.052  19.677  0.00  0.00    +0.000 OA
BRANCH  10  11
ATOM     11  C   UNL     1       9.853  11.300  19.992  0.00  0.00    +0.000 A 
ATOM     12  C   UNL     1      11.119  11.607  19.484  0.00  0.00    +0.000 A 
ATOM     13  C   UNL     1      11.714  12.839  19.761  0.00  0.00    +0.000 A 
ATOM     14  C   UNL     1      11.041  13.784  20.533  0.00  0.00    +0.000 A 
ATOM     15  C   UNL     1       9.763  13.497  21.015  0.00  0.00    +0.000 A 
ATOM     16  C   UNL     1       9.171  12.261  20.742  0.00  0.00    +0.000 A 
ENDBRANCH  10  11
ENDBRANCH   9  10
ENDBRANCH   4   9
BRANCH   7  17
ATOM     17  O   UNL     1       6.800   4.562  17.910  0.00  0.00    +0.000 OA
BRANCH  17  18
ATOM     18  C   UNL     1       5.469   4.250  18.077  0.00  0.00    +0.000 A 
ATOM     19  C   UNL     1       4.793   4.467  19.285  0.00  0.00    +0.000 A 
ATOM     20  C   UNL     1       3.453   4.099  19.418  0.00  0.00    +0.000 A 
ATOM     21  C   UNL     1       2.769   3.568  18.327  0.00  0.00    +0.000 A 
ATOM     22 CL   UNL     1       1.118   3.119  18.497  0.00  0.00    +0.000 Cl
ATOM     23  C   UNL     1       3.410   3.407  17.100  0.00  0.00    +0.000 A 
ATOM     24  C   UNL     1       4.759   3.749  16.976  0.00  0.00    +0.000 A 
ATOM     25 CL   UNL     1       5.518   3.538  15.439  0.00  0.00    +0.000 Cl
ENDBRANCH  17  18
ENDBRANCH   7  17
TORSDOF 5
ENDMDL
MODEL 8
REMARK VINA RESULT:      -7.6      5.999      8.193
REMARK  Name = 
REMARK  5 active torsions:
REMARK  status: ('A' for Active; 'I' for Inactive)
REMARK    1  A    between atoms: C_4  and  C_5
REMARK    2  A    between atoms: C_5  and  O_6
REMARK    3  A    between atoms: O_6  and  C_7
REMARK    4  A    between atoms: C_15  and  O_16
REMARK    5  A    between atoms: O_16  and  C_17
REMARK                            x       y       z     vdW  Elec       q    Type
REMARK                         _______ _______ _______ _____ _____    ______ ____
ROOT
ATOM      1  O   UNL     1       2.207   9.934  17.434  0.00  0.00    +0.000 OA
ATOM      2  C   UNL     1       1.943   9.137  18.329  0.00  0.00    +0.000 A 
ATOM      3  C   UNL     1       2.448   7.742  18.231  0.00  0.00    +0.000 A 
ATOM      4  C   UNL     1       2.320   6.919  19.286  0.00  0.00    +0.000 A 
ATOM      5  N   UNL     1       1.715   7.358  20.453  0.00  0.00    +0.000 N 
ATOM      6  C   UNL     1       1.109   8.586  20.531  0.00  0.00    +0.000 A 
ATOM      7  C   UNL     1       1.121   9.493  19.539  0.00  0.00    +0.000 A 
ATOM      8  H   UNL     1       1.558   6.684  21.197  0.00  0.00    +0.000 HD
ENDROOT
BRANCH   4   9
ATOM      9  C   UNL     1       2.908   5.523  19.234  0.00  0.00    +0.000 C 
BRANCH   9  10
ATOM     10  O   UNL     1       4.265   5.562  19.675  0.00  0.00    +0.000 OA
BRANCH  10  11
ATOM     11  C   UNL     1       5.199   5.216  18.731  0.00  0.00    +0.000 A 
ATOM     12  C   UNL     1       6.527   5.484  19.077  0.00  0.00    +0.000 A 
ATOM     13  C   UNL     1       7.562   5.199  18.185  0.00  0.00    +0.000 A 
ATOM     14  C   UNL     1       7.282   4.625  16.946  0.00  0.00    +0.000 A 
ATOM     15  C   UNL     1       5.961   4.324  16.609  0.00  0.00    +0.000 A 
ATOM     16  C   UNL     1       4.925   4.615  17.500  0.00  0.00    +0.000 A 
ENDBRANCH  10  11
ENDBRANCH   9  10
ENDBRANCH   4   9
BRANCH   7  17
ATOM     17  O   UNL     1       0.439  10.698  19.661  0.00  0.00    +0.000 OA
BRANCH  17  18
ATOM     18  C   UNL     1      -0.814  10.821  19.105  0.00  0.00    +0.000 A 
ATOM     19  C   UNL     1      -1.228  10.055  18.007  0.00  0.00    +0.000 A 
ATOM     20  C   UNL     1      -2.495  10.242  17.453  0.00  0.00    +0.000 A 
ATOM     21  C   UNL     1      -3.375  11.155  18.031  0.00  0.00    +0.000 A 
ATOM     22 CL   UNL     1      -4.936  11.379  17.346  0.00  0.00    +0.000 Cl
ATOM     23  C   UNL     1      -3.002  11.877  19.164  0.00  0.00    +0.000 A 
ATOM     24  C   UNL     1      -1.723  11.709  19.699  0.00  0.00    +0.000 A 
ATOM     25 CL   UNL     1      -1.300  12.620  21.104  0.00  0.00    +0.000 Cl
ENDBRANCH  17  18
ENDBRANCH   7  17
TORSDOF 5
ENDMDL
MODEL 9
REMARK VINA RESULT:      -7.6      1.854      2.479
REMARK  Name = 
REMARK  5 active torsions:
REMARK  status: ('A' for Active; 'I' for Inactive)
REMARK    1  A    between atoms: C_4  and  C_5
REMARK    2  A    between atoms: C_5  and  O_6
REMARK    3  A    between atoms: O_6  and  C_7
REMARK    4  A    between atoms: C_15  and  O_16
REMARK    5  A    between atoms: O_16  and  C_17
REMARK                            x       y       z     vdW  Elec       q    Type
REMARK                         _______ _______ _______ _____ _____    ______ ____
ROOT
ATOM      1  O   UNL     1       5.815   7.096  16.367  0.00  0.00    +0.000 OA
ATOM      2  C   UNL     1       6.729   7.085  17.185  0.00  0.00    +0.000 A 
ATOM      3  C   UNL     1       7.452   8.350  17.483  0.00  0.00    +0.000 A 
ATOM      4  C   UNL     1       8.326   8.386  18.503  0.00  0.00    +0.000 A 
ATOM      5  N   UNL     1       8.563   7.254  19.267  0.00  0.00    +0.000 N 
ATOM      6  C   UNL     1       8.028   6.036  18.934  0.00  0.00    +0.000 A 
ATOM      7  C   UNL     1       7.174   5.846  17.914  0.00  0.00    +0.000 A 
ATOM      8  H   UNL     1       9.292   7.294  19.974  0.00  0.00    +0.000 HD
ENDROOT
BRANCH   4   9
ATOM      9  C   UNL     1       9.004   9.689  18.876  0.00  0.00    +0.000 C 
BRANCH   9  10
ATOM     10  O   UNL     1       9.360  10.397  17.688  0.00  0.00    +0.000 OA
BRANCH  10  11
ATOM     11  C   UNL     1      10.071  11.553  17.885  0.00  0.00    +0.000 A 
ATOM     12  C   UNL     1       9.338  12.736  17.751  0.00  0.00    +0.000 A 
ATOM     13  C   UNL     1       9.961  13.976  17.902  0.00  0.00    +0.000 A 
ATOM     14  C   UNL     1      11.319  14.045  18.210  0.00  0.00    +0.000 A 
ATOM     15  C   UNL     1      12.048  12.867  18.378  0.00  0.00    +0.000 A 
ATOM     16  C   UNL     1      11.425  11.627  18.220  0.00  0.00    +0.000 A 
ENDBRANCH  10  11
ENDBRANCH   9  10
ENDBRANCH   4   9
BRANCH   7  17
ATOM     17  O   UNL     1       6.711   4.574  17.594  0.00  0.00    +0.000 OA
BRANCH  17  18
ATOM     18  C   UNL     1       5.406   4.241  17.879  0.00  0.00    +0.000 A 
ATOM     19  C   UNL     1       4.904   4.224  19.187  0.00  0.00    +0.000 A 
ATOM     20  C   UNL     1       3.584   3.842  19.431  0.00  0.00    +0.000 A 
ATOM     21  C   UNL     1       2.745   3.533  18.363  0.00  0.00    +0.000 A 
ATOM     22 CL   UNL     1       1.118   3.066  18.669  0.00  0.00    +0.000 Cl
ATOM     23  C   UNL     1       3.211   3.609  17.051  0.00  0.00    +0.000 A 
ATOM     24  C   UNL     1       4.540   3.963  16.811  0.00  0.00    +0.000 A 
ATOM     25 CL   UNL     1       5.080   4.049  15.173  0.00  0.00    +0.000 Cl
ENDBRANCH  17  18
ENDBRANCH   7  17
TORSDOF 5
ENDMDL
