MODEL 1
REMARK VINA RESULT:      -6.3      0.000      0.000
REMARK  Name = 
REMARK  3 active torsions:
REMARK  status: ('A' for Active; 'I' for Inactive)
REMARK    1  A    between atoms: C_1  and  C_2
REMARK    2  A    between atoms: C_4  and  C_5
REMARK    3  A    between atoms: N_13  and  C_14
REMARK                            x       y       z     vdW  Elec       q    Type
REMARK                         _______ _______ _______ _____ _____    ______ ____
ROOT
ATOM      1  C   UNL     1       3.708   1.475  18.365  0.00  0.00    +0.000 C 
ATOM      2  C   UNL     1       3.666   2.962  18.226  0.00  0.00    +0.000 A 
ATOM      3  S   UNL     1       4.566   3.693  16.978  0.00  0.00    +0.000 S 
ATOM      4  C   UNL     1       4.071   5.280  17.414  0.00  0.00    +0.000 A 
ATOM      5  C   UNL     1       4.661   6.396  16.626  0.00  0.00    +0.000 C 
ATOM      6  C   UNL     1       3.208   5.251  18.490  0.00  0.00    +0.000 A 
ATOM      7  C   UNL     1       2.974   3.900  18.971  0.00  0.00    +0.000 A 
ATOM      8  C   UNL     1       2.025   3.617  20.118  0.00  0.00    +0.000 C 
ATOM      9  C   UNL     1       1.922   4.784  21.115  0.00  0.00    +0.000 C 
ATOM     10  C   UNL     1       1.907   6.109  20.433  0.00  0.00    +0.000 A 
ATOM     11  C   UNL     1       1.362   7.334  20.844  0.00  0.00    +0.000 A 
ATOM     12  N   UNL     1       1.608   8.313  19.971  0.00  0.00    +0.000 NA
ATOM     13  N   UNL     1       2.323   7.711  18.991  0.00  0.00    +0.000 N 
ATOM     14  C   UNL     1       2.678   8.521  17.856  0.00  0.00    +0.000 C 
ATOM     15  C   UNL     1       2.526   6.377  19.217  0.00  0.00    +0.000 A 
ENDROOT
TORSDOF 0
ENDMDL
MODEL 2
REMARK VINA RESULT:      -6.2      2.358      4.044
REMARK  Name = 
REMARK  3 active torsions:
REMARK  status: ('A' for Active; 'I' for Inactive)
REMARK    1  A    between atoms: C_1  and  C_2
REMARK    2  A    between atoms: C_4  and  C_5
REMARK    3  A    between atoms: N_13  and  C_14
REMARK                            x       y       z     vdW  Elec       q    Type
REMARK                         _______ _______ _______ _____ _____    ______ ____
ROOT
ATOM      1  C   UNL     1       1.456   2.815  21.598  0.00  0.00    +0.000 C 
ATOM      2  C   UNL     1       2.004   3.795  20.612  0.00  0.00    +0.000 A 
ATOM      3  S   UNL     1       1.587   5.438  20.774  0.00  0.00    +0.000 S 
ATOM      4  C   UNL     1       2.506   5.911  19.400  0.00  0.00    +0.000 A 
ATOM      5  C   UNL     1       2.438   7.348  19.023  0.00  0.00    +0.000 C 
ATOM      6  C   UNL     1       3.145   4.827  18.836  0.00  0.00    +0.000 A 
ATOM      7  C   UNL     1       2.849   3.589  19.536  0.00  0.00    +0.000 A 
ATOM      8  C   UNL     1       3.474   2.271  19.122  0.00  0.00    +0.000 C 
ATOM      9  C   UNL     1       3.808   2.209  17.621  0.00  0.00    +0.000 C 
ATOM     10  C   UNL     1       4.356   3.498  17.113  0.00  0.00    +0.000 A 
ATOM     11  C   UNL     1       5.208   3.756  16.028  0.00  0.00    +0.000 A 
ATOM     12  N   UNL     1       5.427   5.060  15.858  0.00  0.00    +0.000 NA
ATOM     13  N   UNL     1       4.705   5.649  16.843  0.00  0.00    +0.000 N 
ATOM     14  C   UNL     1       4.806   7.080  16.954  0.00  0.00    +0.000 C 
ATOM     15  C   UNL     1       4.045   4.749  17.633  0.00  0.00    +0.000 A 
ENDROOT
TORSDOF 0
ENDMDL
MODEL 3
REMARK VINA RESULT:      -5.9      2.331      4.047
REMARK  Name = 
REMARK  3 active torsions:
REMARK  status: ('A' for Active; 'I' for Inactive)
REMARK    1  A    between atoms: C_1  and  C_2
REMARK    2  A    between atoms: C_4  and  C_5
REMARK    3  A    between atoms: N_13  and  C_14
REMARK                            x       y       z     vdW  Elec       q    Type
REMARK                         _______ _______ _______ _____ _____    ______ ____
ROOT
ATOM      1  C   UNL     1       2.756   8.826  17.758  0.00  0.00    +0.000 C 
ATOM      2  C   UNL     1       3.136   7.403  18.011  0.00  0.00    +0.000 A 
ATOM      3  S   UNL     1       4.205   6.636  16.929  0.00  0.00    +0.000 S 
ATOM      4  C   UNL     1       4.172   5.150  17.791  0.00  0.00    +0.000 A 
ATOM      5  C   UNL     1       4.946   4.026  17.200  0.00  0.00    +0.000 C 
ATOM      6  C   UNL     1       3.370   5.245  18.910  0.00  0.00    +0.000 A 
ATOM      7  C   UNL     1       2.758   6.556  19.037  0.00  0.00    +0.000 A 
ATOM      8  C   UNL     1       1.868   6.909  20.213  0.00  0.00    +0.000 C 
ATOM      9  C   UNL     1       1.133   5.690  20.797  0.00  0.00    +0.000 C 
ATOM     10  C   UNL     1       1.997   4.477  20.841  0.00  0.00    +0.000 A 
ATOM     11  C   UNL     1       1.944   3.356  21.682  0.00  0.00    +0.000 A 
ATOM     12  N   UNL     1       2.866   2.445  21.366  0.00  0.00    +0.000 NA
ATOM     13  N   UNL     1       3.516   2.985  20.307  0.00  0.00    +0.000 N 
ATOM     14  C   UNL     1       4.633   2.242  19.784  0.00  0.00    +0.000 C 
ATOM     15  C   UNL     1       3.035   4.215  19.954  0.00  0.00    +0.000 A 
ENDROOT
TORSDOF 0
ENDMDL
MODEL 4
REMARK VINA RESULT:      -5.8      2.565      4.224
REMARK  Name = 
REMARK  3 active torsions:
REMARK  status: ('A' for Active; 'I' for Inactive)
REMARK    1  A    between atoms: C_1  and  C_2
REMARK    2  A    between atoms: C_4  and  C_5
REMARK    3  A    between atoms: N_13  and  C_14
REMARK                            x       y       z     vdW  Elec       q    Type
REMARK                         _______ _______ _______ _____ _____    ______ ____
ROOT
ATOM      1  C   UNL     1       0.829   8.992  19.670  0.00  0.00    +0.000 C 
ATOM      2  C   UNL     1       1.851   8.028  19.158  0.00  0.00    +0.000 A 
ATOM      3  S   UNL     1       2.791   8.472  17.809  0.00  0.00    +0.000 S 
ATOM      4  C   UNL     1       3.661   6.989  17.802  0.00  0.00    +0.000 A 
ATOM      5  C   UNL     1       4.646   6.807  16.703  0.00  0.00    +0.000 C 
ATOM      6  C   UNL     1       3.254   6.172  18.836  0.00  0.00    +0.000 A 
ATOM      7  C   UNL     1       2.192   6.772  19.625  0.00  0.00    +0.000 A 
ATOM      8  C   UNL     1       1.614   6.075  20.841  0.00  0.00    +0.000 C 
ATOM      9  C   UNL     1       1.688   4.541  20.748  0.00  0.00    +0.000 C 
ATOM     10  C   UNL     1       2.970   4.075  20.149  0.00  0.00    +0.000 A 
ATOM     11  C   UNL     1       3.657   2.862  20.309  0.00  0.00    +0.000 A 
ATOM     12  N   UNL     1       4.753   2.800  19.551  0.00  0.00    +0.000 NA
ATOM     13  N   UNL     1       4.769   3.985  18.894  0.00  0.00    +0.000 N 
ATOM     14  C   UNL     1       5.898   4.236  18.037  0.00  0.00    +0.000 C 
ATOM     15  C   UNL     1       3.717   4.795  19.224  0.00  0.00    +0.000 A 
ENDROOT
TORSDOF 0
ENDMDL
MODEL 5
REMARK VINA RESULT:      -5.8      1.658      2.401
REMARK  Name = 
REMARK  3 active torsions:
REMARK  status: ('A' for Active; 'I' for Inactive)
REMARK    1  A    between atoms: C_1  and  C_2
REMARK    2  A    between atoms: C_4  and  C_5
REMARK    3  A    between atoms: N_13  and  C_14
REMARK                            x       y       z     vdW  Elec       q    Type
REMARK                         _______ _______ _______ _____ _____    ______ ____
ROOT
ATOM      1  C   UNL     1       2.186   2.413  21.657  0.00  0.00    +0.000 C 
ATOM      2  C   UNL     1       2.861   3.269  20.633  0.00  0.00    +0.000 A 
ATOM      3  S   UNL     1       4.232   2.657  19.830  0.00  0.00    +0.000 S 
ATOM      4  C   UNL     1       4.441   4.080  18.890  0.00  0.00    +0.000 A 
ATOM      5  C   UNL     1       5.624   4.109  17.989  0.00  0.00    +0.000 C 
ATOM      6  C   UNL     1       3.458   5.007  19.170  0.00  0.00    +0.000 A 
ATOM      7  C   UNL     1       2.538   4.539  20.193  0.00  0.00    +0.000 A 
ATOM      8  C   UNL     1       1.350   5.371  20.635  0.00  0.00    +0.000 C 
ATOM      9  C   UNL     1       1.588   6.884  20.491  0.00  0.00    +0.000 C 
ATOM     10  C   UNL     1       2.324   7.223  19.241  0.00  0.00    +0.000 A 
ATOM     11  C   UNL     1       2.329   8.404  18.484  0.00  0.00    +0.000 A 
ATOM     12  N   UNL     1       3.170   8.337  17.451  0.00  0.00    +0.000 NA
ATOM     13  N   UNL     1       3.716   7.100  17.548  0.00  0.00    +0.000 N 
ATOM     14  C   UNL     1       4.630   6.711  16.506  0.00  0.00    +0.000 C 
ATOM     15  C   UNL     1       3.234   6.384  18.608  0.00  0.00    +0.000 A 
ENDROOT
TORSDOF 0
ENDMDL
MODEL 6
REMARK VINA RESULT:      -5.8      1.268      3.298
REMARK  Name = 
REMARK  3 active torsions:
REMARK  status: ('A' for Active; 'I' for Inactive)
REMARK    1  A    between atoms: C_1  and  C_2
REMARK    2  A    between atoms: C_4  and  C_5
REMARK    3  A    between atoms: N_13  and  C_14
REMARK                            x       y       z     vdW  Elec       q    Type
REMARK                         _______ _______ _______ _____ _____    ______ ____
ROOT
ATOM      1  C   UNL     1       5.774   4.988  15.204  0.00  0.00    +0.000 C 
ATOM      2  C   UNL     1       4.891   4.712  16.378  0.00  0.00    +0.000 A 
ATOM      3  S   UNL     1       4.600   3.094  16.822  0.00  0.00    +0.000 S 
ATOM      4  C   UNL     1       3.584   3.532  18.137  0.00  0.00    +0.000 A 
ATOM      5  C   UNL     1       2.958   2.411  18.889  0.00  0.00    +0.000 C 
ATOM      6  C   UNL     1       3.485   4.903  18.251  0.00  0.00    +0.000 A 
ATOM      7  C   UNL     1       4.241   5.596  17.221  0.00  0.00    +0.000 A 
ATOM      8  C   UNL     1       4.317   7.109  17.172  0.00  0.00    +0.000 C 
ATOM      9  C   UNL     1       3.070   7.793  17.759  0.00  0.00    +0.000 C 
ATOM     10  C   UNL     1       2.571   7.101  18.981  0.00  0.00    +0.000 A 
ATOM     11  C   UNL     1       1.832   7.598  20.066  0.00  0.00    +0.000 A 
ATOM     12  N   UNL     1       1.524   6.643  20.944  0.00  0.00    +0.000 NA
ATOM     13  N   UNL     1       2.066   5.519  20.416  0.00  0.00    +0.000 N 
ATOM     14  C   UNL     1       1.951   4.315  21.196  0.00  0.00    +0.000 C 
ATOM     15  C   UNL     1       2.716   5.742  19.233  0.00  0.00    +0.000 A 
ENDROOT
TORSDOF 0
ENDMDL
MODEL 7
REMARK VINA RESULT:      -5.7      2.559      4.299
REMARK  Name = 
REMARK  3 active torsions:
REMARK  status: ('A' for Active; 'I' for Inactive)
REMARK    1  A    between atoms: C_1  and  C_2
REMARK    2  A    between atoms: C_4  and  C_5
REMARK    3  A    between atoms: N_13  and  C_14
REMARK                            x       y       z     vdW  Elec       q    Type
REMARK                         _______ _______ _______ _____ _____    ______ ____
ROOT
ATOM      1  C   UNL     1       1.140   7.990  21.068  0.00  0.00    +0.000 C 
ATOM      2  C   UNL     1       1.881   7.208  20.032  0.00  0.00    +0.000 A 
ATOM      3  S   UNL     1       2.702   8.051  18.801  0.00  0.00    +0.000 S 
ATOM      4  C   UNL     1       3.263   6.611  18.050  0.00  0.00    +0.000 A 
ATOM      5  C   UNL     1       4.041   6.781  16.793  0.00  0.00    +0.000 C 
ATOM      6  C   UNL     1       2.847   5.495  18.746  0.00  0.00    +0.000 A 
ATOM      7  C   UNL     1       2.034   5.839  19.900  0.00  0.00    +0.000 A 
ATOM      8  C   UNL     1       1.499   4.778  20.841  0.00  0.00    +0.000 C 
ATOM      9  C   UNL     1       1.265   3.424  20.150  0.00  0.00    +0.000 C 
ATOM     10  C   UNL     1       2.343   3.095  19.176  0.00  0.00    +0.000 A 
ATOM     11  C   UNL     1       2.799   1.850  18.715  0.00  0.00    +0.000 A 
ATOM     12  N   UNL     1       3.753   1.975  17.791  0.00  0.00    +0.000 NA
ATOM     13  N   UNL     1       3.909   3.314  17.653  0.00  0.00    +0.000 N 
ATOM     14  C   UNL     1       4.942   3.757  16.755  0.00  0.00    +0.000 C 
ATOM     15  C   UNL     1       3.085   4.036  18.472  0.00  0.00    +0.000 A 
ENDROOT
TORSDOF 0
ENDMDL
MODEL 8
REMARK VINA RESULT:      -5.6      2.604      5.138
REMARK  Name = 
REMARK  3 active torsions:
REMARK  status: ('A' for Active; 'I' for Inactive)
REMARK    1  A    between atoms: C_1  and  C_2
REMARK    2  A    between atoms: C_4  and  C_5
REMARK    3  A    between atoms: N_13  and  C_14
REMARK                            x       y       z     vdW  Elec       q    Type
REMARK                         _______ _______ _______ _____ _____    ______ ____
ROOT
ATOM      1  C   UNL     1       1.486   8.546  20.169  0.00  0.00    +0.000 C 
ATOM      2  C   UNL     1       1.990   7.177  19.846  0.00  0.00    +0.000 A 
ATOM      3  S   UNL     1       1.563   5.885  20.870  0.00  0.00    +0.000 S 
ATOM      4  C   UNL     1       2.437   4.730  19.944  0.00  0.00    +0.000 A 
ATOM      5  C   UNL     1       2.453   3.338  20.470  0.00  0.00    +0.000 C 
ATOM      6  C   UNL     1       3.031   5.321  18.849  0.00  0.00    +0.000 A 
ATOM      7  C   UNL     1       2.778   6.751  18.792  0.00  0.00    +0.000 A 
ATOM      8  C   UNL     1       3.295   7.606  17.652  0.00  0.00    +0.000 C 
ATOM      9  C   UNL     1       4.593   7.059  17.031  0.00  0.00    +0.000 C 
ATOM     10  C   UNL     1       4.581   5.574  16.916  0.00  0.00    +0.000 A 
ATOM     11  C   UNL     1       5.262   4.728  16.028  0.00  0.00    +0.000 A 
ATOM     12  N   UNL     1       5.032   3.439  16.284  0.00  0.00    +0.000 NA
ATOM     13  N   UNL     1       4.198   3.457  17.351  0.00  0.00    +0.000 N 
ATOM     14  C   UNL     1       3.713   2.184  17.817  0.00  0.00    +0.000 C 
ATOM     15  C   UNL     1       3.888   4.722  17.768  0.00  0.00    +0.000 A 
ENDROOT
TORSDOF 0
ENDMDL
MODEL 9
REMARK VINA RESULT:      -5.6      1.668      3.566
REMARK  Name = 
REMARK  3 active torsions:
REMARK  status: ('A' for Active; 'I' for Inactive)
REMARK    1  A    between atoms: C_1  and  C_2
REMARK    2  A    between atoms: C_4  and  C_5
REMARK    3  A    between atoms: N_13  and  C_14
REMARK                            x       y       z     vdW  Elec       q    Type
REMARK                         _______ _______ _______ _____ _____    ______ ____
ROOT
ATOM      1  C   UNL     1       5.654   6.113  15.194  0.00  0.00    +0.000 C 
ATOM      2  C   UNL     1       4.965   5.294  16.238  0.00  0.00    +0.000 A 
ATOM      3  S   UNL     1       5.112   3.599  16.178  0.00  0.00    +0.000 S 
ATOM      4  C   UNL     1       4.133   3.364  17.570  0.00  0.00    +0.000 A 
ATOM      5  C   UNL     1       3.862   1.953  17.957  0.00  0.00    +0.000 C 
ATOM      6  C   UNL     1       3.715   4.571  18.091  0.00  0.00    +0.000 A 
ATOM      7  C   UNL     1       4.193   5.700  17.311  0.00  0.00    +0.000 A 
ATOM      8  C   UNL     1       3.895   7.130  17.717  0.00  0.00    +0.000 C 
ATOM      9  C   UNL     1       2.573   7.273  18.491  0.00  0.00    +0.000 C 
ATOM     10  C   UNL     1       2.359   6.155  19.452  0.00  0.00    +0.000 A 
ATOM     11  C   UNL     1       1.615   6.112  20.641  0.00  0.00    +0.000 A 
ATOM     12  N   UNL     1       1.622   4.898  21.195  0.00  0.00    +0.000 NA
ATOM     13  N   UNL     1       2.374   4.152  20.351  0.00  0.00    +0.000 N 
ATOM     14  C   UNL     1       2.619   2.786  20.735  0.00  0.00    +0.000 C 
ATOM     15  C   UNL     1       2.850   4.865  19.285  0.00  0.00    +0.000 A 
ENDROOT
TORSDOF 0
ENDMDL
