MODEL 1
REMARK VINA RESULT:      -7.8      0.000      0.000
REMARK  Name = 
REMARK  6 active torsions:
REMARK  status: ('A' for Active; 'I' for Inactive)
REMARK    1  A    between atoms: C_1  and  C_2
REMARK    2  A    between atoms: C_2  and  C_3
REMARK    3  A    between atoms: C_3  and  C_4
REMARK    4  A    between atoms: C_4  and  C_5
REMARK    5  A    between atoms: C_12  and  O_13
REMARK    6  A    between atoms: O_13  and  C_14
REMARK                            x       y       z     vdW  Elec       q    Type
REMARK                         _______ _______ _______ _____ _____    ______ ____
ROOT
ATOM      1  C   UNL     1      -0.108  10.797  19.891  0.00  0.00    +0.000 A 
ATOM      2  C   UNL     1      -0.362  10.967  21.197  0.00  0.00    +0.000 A 
ATOM      3  C   UNL     1       0.111  10.058  22.250  0.00  0.00    +0.000 A 
ATOM      4  O   UNL     1      -0.162  10.264  23.421  0.00  0.00    +0.000 OA
ATOM      5  O   UNL     1       0.837   8.961  21.831  0.00  0.00    +0.000 OA
ATOM      6  C   UNL     1       1.178   8.782  20.472  0.00  0.00    +0.000 A 
ATOM      7  C   UNL     1       1.996   7.683  20.195  0.00  0.00    +0.000 A 
ATOM      8  C   UNL     1       2.453   7.463  18.899  0.00  0.00    +0.000 A 
ATOM      9  C   UNL     1       2.003   8.314  17.886  0.00  0.00    +0.000 A 
ATOM     10  C   UNL     1       1.157   9.403  18.174  0.00  0.00    +0.000 A 
ATOM     11  C   UNL     1       0.743   9.665  19.486  0.00  0.00    +0.000 A 
ENDROOT
BRANCH   1  12
ATOM     12  C   UNL     1      -0.707  11.740  18.877  0.00  0.00    +0.000 C 
BRANCH  12  13
ATOM     13  C   UNL     1      -2.230  11.784  19.034  0.00  0.00    +0.000 C 
BRANCH  13  15
ATOM     14  C   UNL     1      -2.134  10.559  16.847  0.00  0.00    +0.000 C 
ATOM     15  C   UNL     1      -2.924  10.768  18.130  0.00  0.00    +0.000 C 
ENDBRANCH  13  15
ENDBRANCH  12  13
ENDBRANCH   1  12
BRANCH   8  16
ATOM     16  O   UNL     1       3.338   6.484  18.509  0.00  0.00    +0.000 OA
BRANCH  16  17
ATOM     17  C   UNL     1       3.306   5.252  19.231  0.00  0.00    +0.000 C 
ATOM     18  C   UNL     1       1.918   4.609  19.108  0.00  0.00    +0.000 C 
ATOM     19  C   UNL     1       1.626   4.023  17.729  0.00  0.00    +0.000 C 
ATOM     20  C   UNL     1       2.703   3.056  17.254  0.00  0.00    +0.000 C 
ATOM     21  C   UNL     1       4.121   3.580  17.410  0.00  0.00    +0.000 C 
ATOM     22  C   UNL     1       4.349   4.240  18.750  0.00  0.00    +0.000 C 
ATOM     23  O   UNL     1       5.387   4.030  19.383  0.00  0.00    +0.000 OA
ENDBRANCH  16  17
ENDBRANCH   8  16
TORSDOF 5
ENDMDL
MODEL 2
REMARK VINA RESULT:      -7.5      0.968      1.686
REMARK  Name = 
REMARK  6 active torsions:
REMARK  status: ('A' for Active; 'I' for Inactive)
REMARK    1  A    between atoms: C_1  and  C_2
REMARK    2  A    between atoms: C_2  and  C_3
REMARK    3  A    between atoms: C_3  and  C_4
REMARK    4  A    between atoms: C_4  and  C_5
REMARK    5  A    between atoms: C_12  and  O_13
REMARK    6  A    between atoms: O_13  and  C_14
REMARK                            x       y       z     vdW  Elec       q    Type
REMARK                         _______ _______ _______ _____ _____    ______ ____
ROOT
ATOM      1  C   UNL     1      -0.146  10.820  19.785  0.00  0.00    +0.000 A 
ATOM      2  C   UNL     1      -0.421  11.038  21.080  0.00  0.00    +0.000 A 
ATOM      3  C   UNL     1       0.045  10.177  22.174  0.00  0.00    +0.000 A 
ATOM      4  O   UNL     1      -0.248  10.426  23.332  0.00  0.00    +0.000 OA
ATOM      5  O   UNL     1       0.787   9.071  21.810  0.00  0.00    +0.000 OA
ATOM      6  C   UNL     1       1.149   8.841  20.464  0.00  0.00    +0.000 A 
ATOM      7  C   UNL     1       1.982   7.741  20.243  0.00  0.00    +0.000 A 
ATOM      8  C   UNL     1       2.459   7.474  18.963  0.00  0.00    +0.000 A 
ATOM      9  C   UNL     1       2.017   8.280  17.910  0.00  0.00    +0.000 A 
ATOM     10  C   UNL     1       1.156   9.371  18.143  0.00  0.00    +0.000 A 
ATOM     11  C   UNL     1       0.721   9.680  19.438  0.00  0.00    +0.000 A 
ENDROOT
BRANCH   1  12
ATOM     12  C   UNL     1      -0.739  11.715  18.726  0.00  0.00    +0.000 C 
BRANCH  12  13
ATOM     13  C   UNL     1      -0.215  13.145  18.891  0.00  0.00    +0.000 C 
BRANCH  13  15
ATOM     14  C   UNL     1       2.136  13.801  19.471  0.00  0.00    +0.000 C 
ATOM     15  C   UNL     1       1.214  13.290  18.374  0.00  0.00    +0.000 C 
ENDBRANCH  13  15
ENDBRANCH  12  13
ENDBRANCH   1  12
BRANCH   8  16
ATOM     16  O   UNL     1       3.359   6.489  18.625  0.00  0.00    +0.000 OA
BRANCH  16  17
ATOM     17  C   UNL     1       3.239   5.236  19.302  0.00  0.00    +0.000 C 
ATOM     18  C   UNL     1       1.832   4.660  19.091  0.00  0.00    +0.000 C 
ATOM     19  C   UNL     1       1.584   4.132  17.680  0.00  0.00    +0.000 C 
ATOM     20  C   UNL     1       2.641   3.134  17.225  0.00  0.00    +0.000 C 
ATOM     21  C   UNL     1       4.071   3.590  17.466  0.00  0.00    +0.000 C 
ATOM     22  C   UNL     1       4.261   4.196  18.838  0.00  0.00    +0.000 C 
ATOM     23  O   UNL     1       5.256   3.920  19.512  0.00  0.00    +0.000 OA
ENDBRANCH  16  17
ENDBRANCH   8  16
TORSDOF 5
ENDMDL
MODEL 3
REMARK VINA RESULT:      -7.5      1.103      1.669
REMARK  Name = 
REMARK  6 active torsions:
REMARK  status: ('A' for Active; 'I' for Inactive)
REMARK    1  A    between atoms: C_1  and  C_2
REMARK    2  A    between atoms: C_2  and  C_3
REMARK    3  A    between atoms: C_3  and  C_4
REMARK    4  A    between atoms: C_4  and  C_5
REMARK    5  A    between atoms: C_12  and  O_13
REMARK    6  A    between atoms: O_13  and  C_14
REMARK                            x       y       z     vdW  Elec       q    Type
REMARK                         _______ _______ _______ _____ _____    ______ ____
ROOT
ATOM      1  C   UNL     1       0.124  10.880  19.878  0.00  0.00    +0.000 A 
ATOM      2  C   UNL     1      -0.228  11.109  21.152  0.00  0.00    +0.000 A 
ATOM      3  C   UNL     1       0.043  10.182  22.259  0.00  0.00    +0.000 A 
ATOM      4  O   UNL     1      -0.312  10.447  23.395  0.00  0.00    +0.000 OA
ATOM      5  O   UNL     1       0.678   9.002  21.927  0.00  0.00    +0.000 OA
ATOM      6  C   UNL     1       1.120   8.752  20.609  0.00  0.00    +0.000 A 
ATOM      7  C   UNL     1       1.834   7.564  20.427  0.00  0.00    +0.000 A 
ATOM      8  C   UNL     1       2.380   7.262  19.183  0.00  0.00    +0.000 A 
ATOM      9  C   UNL     1       2.122   8.131  18.119  0.00  0.00    +0.000 A 
ATOM     10  C   UNL     1       1.379   9.312  18.310  0.00  0.00    +0.000 A 
ATOM     11  C   UNL     1       0.878   9.651  19.573  0.00  0.00    +0.000 A 
ENDROOT
BRANCH   1  12
ATOM     12  C   UNL     1      -0.271  11.855  18.798  0.00  0.00    +0.000 C 
BRANCH  12  13
ATOM     13  C   UNL     1      -1.743  11.657  18.421  0.00  0.00    +0.000 C 
BRANCH  13  15
ATOM     14  C   UNL     1      -3.374   9.981  17.513  0.00  0.00    +0.000 C 
ATOM     15  C   UNL     1      -1.934  10.471  17.480  0.00  0.00    +0.000 C 
ENDBRANCH  13  15
ENDBRANCH  12  13
ENDBRANCH   1  12
BRANCH   8  16
ATOM     16  O   UNL     1       3.183   6.183  18.893  0.00  0.00    +0.000 OA
BRANCH  16  17
ATOM     17  C   UNL     1       2.545   5.018  18.367  0.00  0.00    +0.000 C 
ATOM     18  C   UNL     1       3.519   4.252  17.462  0.00  0.00    +0.000 C 
ATOM     19  C   UNL     1       4.631   3.528  18.219  0.00  0.00    +0.000 C 
ATOM     20  C   UNL     1       4.103   2.618  19.322  0.00  0.00    +0.000 C 
ATOM     21  C   UNL     1       3.071   3.273  20.226  0.00  0.00    +0.000 C 
ATOM     22  C   UNL     1       2.040   4.062  19.450  0.00  0.00    +0.000 C 
ATOM     23  O   UNL     1       0.846   3.995  19.749  0.00  0.00    +0.000 OA
ENDBRANCH  16  17
ENDBRANCH   8  16
TORSDOF 5
ENDMDL
MODEL 4
REMARK VINA RESULT:      -7.5      4.934      7.761
REMARK  Name = 
REMARK  6 active torsions:
REMARK  status: ('A' for Active; 'I' for Inactive)
REMARK    1  A    between atoms: C_1  and  C_2
REMARK    2  A    between atoms: C_2  and  C_3
REMARK    3  A    between atoms: C_3  and  C_4
REMARK    4  A    between atoms: C_4  and  C_5
REMARK    5  A    between atoms: C_12  and  O_13
REMARK    6  A    between atoms: O_13  and  C_14
REMARK                            x       y       z     vdW  Elec       q    Type
REMARK                         _______ _______ _______ _____ _____    ______ ____
ROOT
ATOM      1  C   UNL     1       7.008   5.837  17.351  0.00  0.00    +0.000 A 
ATOM      2  C   UNL     1       7.227   5.939  16.031  0.00  0.00    +0.000 A 
ATOM      3  C   UNL     1       6.581   5.085  15.024  0.00  0.00    +0.000 A 
ATOM      4  O   UNL     1       6.831   5.223  13.838  0.00  0.00    +0.000 OA
ATOM      5  O   UNL     1       5.723   4.115  15.503  0.00  0.00    +0.000 OA
ATOM      6  C   UNL     1       5.420   4.018  16.879  0.00  0.00    +0.000 A 
ATOM      7  C   UNL     1       4.464   3.057  17.220  0.00  0.00    +0.000 A 
ATOM      8  C   UNL     1       4.038   2.936  18.539  0.00  0.00    +0.000 A 
ATOM      9  C   UNL     1       4.649   3.734  19.508  0.00  0.00    +0.000 A 
ATOM     10  C   UNL     1       5.631   4.682  19.155  0.00  0.00    +0.000 A 
ATOM     11  C   UNL     1       6.021   4.850  17.821  0.00  0.00    +0.000 A 
ENDROOT
BRANCH   1  12
ATOM     12  C   UNL     1       7.781   6.705  18.313  0.00  0.00    +0.000 C 
BRANCH  12  13
ATOM     13  C   UNL     1       7.893   8.130  17.764  0.00  0.00    +0.000 C 
BRANCH  13  15
ATOM     14  C   UNL     1       8.888  10.412  18.076  0.00  0.00    +0.000 C 
ATOM     15  C   UNL     1       8.690   9.037  18.697  0.00  0.00    +0.000 C 
ENDBRANCH  13  15
ENDBRANCH  12  13
ENDBRANCH   1  12
BRANCH   8  16
ATOM     16  O   UNL     1       3.037   2.105  18.991  0.00  0.00    +0.000 OA
BRANCH  16  17
ATOM     17  C   UNL     1       1.692   2.563  18.841  0.00  0.00    +0.000 C 
ATOM     18  C   UNL     1       0.969   2.516  20.194  0.00  0.00    +0.000 C 
ATOM     19  C   UNL     1       1.422   3.593  21.176  0.00  0.00    +0.000 C 
ATOM     20  C   UNL     1       1.359   4.998  20.588  0.00  0.00    +0.000 C 
ATOM     21  C   UNL     1       1.987   5.122  19.209  0.00  0.00    +0.000 C 
ATOM     22  C   UNL     1       1.594   3.988  18.291  0.00  0.00    +0.000 C 
ATOM     23  O   UNL     1       1.293   4.209  17.116  0.00  0.00    +0.000 OA
ENDBRANCH  16  17
ENDBRANCH   8  16
TORSDOF 5
ENDMDL
MODEL 5
REMARK VINA RESULT:      -7.4      2.091      7.636
REMARK  Name = 
REMARK  6 active torsions:
REMARK  status: ('A' for Active; 'I' for Inactive)
REMARK    1  A    between atoms: C_1  and  C_2
REMARK    2  A    between atoms: C_2  and  C_3
REMARK    3  A    between atoms: C_3  and  C_4
REMARK    4  A    between atoms: C_4  and  C_5
REMARK    5  A    between atoms: C_12  and  O_13
REMARK    6  A    between atoms: O_13  and  C_14
REMARK                            x       y       z     vdW  Elec       q    Type
REMARK                         _______ _______ _______ _____ _____    ______ ____
ROOT
ATOM      1  C   UNL     1       4.524   4.558  18.214  0.00  0.00    +0.000 A 
ATOM      2  C   UNL     1       5.333   4.650  17.147  0.00  0.00    +0.000 A 
ATOM      3  C   UNL     1       5.377   5.811  16.248  0.00  0.00    +0.000 A 
ATOM      4  O   UNL     1       6.130   5.828  15.288  0.00  0.00    +0.000 OA
ATOM      5  O   UNL     1       4.502   6.840  16.534  0.00  0.00    +0.000 OA
ATOM      6  C   UNL     1       3.681   6.807  17.682  0.00  0.00    +0.000 A 
ATOM      7  C   UNL     1       2.913   7.953  17.908  0.00  0.00    +0.000 A 
ATOM      8  C   UNL     1       2.129   8.053  19.054  0.00  0.00    +0.000 A 
ATOM      9  C   UNL     1       2.071   6.953  19.913  0.00  0.00    +0.000 A 
ATOM     10  C   UNL     1       2.830   5.793  19.661  0.00  0.00    +0.000 A 
ATOM     11  C   UNL     1       3.667   5.710  18.541  0.00  0.00    +0.000 A 
ENDROOT
BRANCH   1  12
ATOM     12  C   UNL     1       4.493   3.290  19.031  0.00  0.00    +0.000 C 
BRANCH  12  13
ATOM     13  C   UNL     1       3.443   2.327  18.468  0.00  0.00    +0.000 C 
BRANCH  13  15
ATOM     14  C   UNL     1       0.969   2.616  18.760  0.00  0.00    +0.000 C 
ATOM     15  C   UNL     1       2.261   2.157  19.418  0.00  0.00    +0.000 C 
ENDBRANCH  13  15
ENDBRANCH  12  13
ENDBRANCH   1  12
BRANCH   8  16
ATOM     16  O   UNL     1       1.408   9.158  19.445  0.00  0.00    +0.000 OA
BRANCH  16  17
ATOM     17  C   UNL     1       1.038  10.089  18.427  0.00  0.00    +0.000 C 
ATOM     18  C   UNL     1      -0.491  10.153  18.307  0.00  0.00    +0.000 C 
ATOM     19  C   UNL     1      -1.175  10.869  19.469  0.00  0.00    +0.000 C 
ATOM     20  C   UNL     1      -0.604  12.257  19.730  0.00  0.00    +0.000 C 
ATOM     21  C   UNL     1       0.915  12.303  19.790  0.00  0.00    +0.000 C 
ATOM     22  C   UNL     1       1.561  11.505  18.680  0.00  0.00    +0.000 C 
ATOM     23  O   UNL     1       2.532  11.956  18.069  0.00  0.00    +0.000 OA
ENDBRANCH  16  17
ENDBRANCH   8  16
TORSDOF 5
ENDMDL
MODEL 6
REMARK VINA RESULT:      -7.4      1.095      1.699
REMARK  Name = 
REMARK  6 active torsions:
REMARK  status: ('A' for Active; 'I' for Inactive)
REMARK    1  A    between atoms: C_1  and  C_2
REMARK    2  A    between atoms: C_2  and  C_3
REMARK    3  A    between atoms: C_3  and  C_4
REMARK    4  A    between atoms: C_4  and  C_5
REMARK    5  A    between atoms: C_12  and  O_13
REMARK    6  A    between atoms: O_13  and  C_14
REMARK                            x       y       z     vdW  Elec       q    Type
REMARK                         _______ _______ _______ _____ _____    ______ ____
ROOT
ATOM      1  C   UNL     1      -0.212  11.157  19.888  0.00  0.00    +0.000 A 
ATOM      2  C   UNL     1      -0.561  11.430  21.155  0.00  0.00    +0.000 A 
ATOM      3  C   UNL     1      -0.243  10.564  22.299  0.00  0.00    +0.000 A 
ATOM      4  O   UNL     1      -0.597  10.866  23.426  0.00  0.00    +0.000 OA
ATOM      5  O   UNL     1       0.435   9.396  22.013  0.00  0.00    +0.000 OA
ATOM      6  C   UNL     1       0.874   9.104  20.702  0.00  0.00    +0.000 A 
ATOM      7  C   UNL     1       1.632   7.938  20.566  0.00  0.00    +0.000 A 
ATOM      8  C   UNL     1       2.177   7.602  19.330  0.00  0.00    +0.000 A 
ATOM      9  C   UNL     1       1.875   8.410  18.231  0.00  0.00    +0.000 A 
ATOM     10  C   UNL     1       1.088   9.570  18.378  0.00  0.00    +0.000 A 
ATOM     11  C   UNL     1       0.587   9.945  19.630  0.00  0.00    +0.000 A 
ENDROOT
BRANCH   1  12
ATOM     12  C   UNL     1      -0.656  12.066  18.770  0.00  0.00    +0.000 C 
BRANCH  12  13
ATOM     13  C   UNL     1      -2.147  11.861  18.484  0.00  0.00    +0.000 C 
BRANCH  13  15
ATOM     14  C   UNL     1      -2.240   9.805  17.051  0.00  0.00    +0.000 C 
ATOM     15  C   UNL     1      -2.386  11.319  17.078  0.00  0.00    +0.000 C 
ENDBRANCH  13  15
ENDBRANCH  12  13
ENDBRANCH   1  12
BRANCH   8  16
ATOM     16  O   UNL     1       3.020   6.542  19.080  0.00  0.00    +0.000 OA
BRANCH  16  17
ATOM     17  C   UNL     1       2.948   5.944  17.784  0.00  0.00    +0.000 C 
ATOM     18  C   UNL     1       4.357   5.803  17.195  0.00  0.00    +0.000 C 
ATOM     19  C   UNL     1       5.200   4.714  17.855  0.00  0.00    +0.000 C 
ATOM     20  C   UNL     1       4.501   3.361  17.889  0.00  0.00    +0.000 C 
ATOM     21  C   UNL     1       3.067   3.415  18.391  0.00  0.00    +0.000 C 
ATOM     22  C   UNL     1       2.288   4.563  17.790  0.00  0.00    +0.000 C 
ATOM     23  O   UNL     1       1.128   4.398  17.404  0.00  0.00    +0.000 OA
ENDBRANCH  16  17
ENDBRANCH   8  16
TORSDOF 5
ENDMDL
MODEL 7
REMARK VINA RESULT:      -7.4      0.999      1.178
REMARK  Name = 
REMARK  6 active torsions:
REMARK  status: ('A' for Active; 'I' for Inactive)
REMARK    1  A    between atoms: C_1  and  C_2
REMARK    2  A    between atoms: C_2  and  C_3
REMARK    3  A    between atoms: C_3  and  C_4
REMARK    4  A    between atoms: C_4  and  C_5
REMARK    5  A    between atoms: C_12  and  O_13
REMARK    6  A    between atoms: O_13  and  C_14
REMARK                            x       y       z     vdW  Elec       q    Type
REMARK                         _______ _______ _______ _____ _____    ______ ____
ROOT
ATOM      1  C   UNL     1       0.520  10.215  19.749  0.00  0.00    +0.000 A 
ATOM      2  C   UNL     1       0.181  10.554  21.002  0.00  0.00    +0.000 A 
ATOM      3  C   UNL     1       0.465   9.725  22.182  0.00  0.00    +0.000 A 
ATOM      4  O   UNL     1       0.122  10.087  23.295  0.00  0.00    +0.000 OA
ATOM      5  O   UNL     1       1.096   8.520  21.947  0.00  0.00    +0.000 OA
ATOM      6  C   UNL     1       1.524   8.157  20.650  0.00  0.00    +0.000 A 
ATOM      7  C   UNL     1       2.236   6.957  20.564  0.00  0.00    +0.000 A 
ATOM      8  C   UNL     1       2.769   6.549  19.345  0.00  0.00    +0.000 A 
ATOM      9  C   UNL     1       2.499   7.322  18.213  0.00  0.00    +0.000 A 
ATOM     10  C   UNL     1       1.758   8.517  18.309  0.00  0.00    +0.000 A 
ATOM     11  C   UNL     1       1.271   8.964  19.543  0.00  0.00    +0.000 A 
ENDROOT
BRANCH   1  12
ATOM     12  C   UNL     1       0.113  11.093  18.593  0.00  0.00    +0.000 C 
BRANCH  12  13
ATOM     13  C   UNL     1      -1.168  10.556  17.948  0.00  0.00    +0.000 C 
BRANCH  13  15
ATOM     14  C   UNL     1      -3.226  11.720  18.786  0.00  0.00    +0.000 C 
ATOM     15  C   UNL     1      -2.180  11.667  17.683  0.00  0.00    +0.000 C 
ENDBRANCH  13  15
ENDBRANCH  12  13
ENDBRANCH   1  12
BRANCH   8  16
ATOM     16  O   UNL     1       3.569   5.448  19.141  0.00  0.00    +0.000 OA
BRANCH  16  17
ATOM     17  C   UNL     1       3.196   4.239  19.805  0.00  0.00    +0.000 C 
ATOM     18  C   UNL     1       1.715   3.934  19.543  0.00  0.00    +0.000 C 
ATOM     19  C   UNL     1       1.420   3.463  18.121  0.00  0.00    +0.000 C 
ATOM     20  C   UNL     1       2.288   2.286  17.694  0.00  0.00    +0.000 C 
ATOM     21  C   UNL     1       3.769   2.468  17.985  0.00  0.00    +0.000 C 
ATOM     22  C   UNL     1       4.022   3.027  19.367  0.00  0.00    +0.000 C 
ATOM     23  O   UNL     1       4.925   2.570  20.071  0.00  0.00    +0.000 OA
ENDBRANCH  16  17
ENDBRANCH   8  16
TORSDOF 5
ENDMDL
MODEL 8
REMARK VINA RESULT:      -7.4      2.136      7.184
REMARK  Name = 
REMARK  6 active torsions:
REMARK  status: ('A' for Active; 'I' for Inactive)
REMARK    1  A    between atoms: C_1  and  C_2
REMARK    2  A    between atoms: C_2  and  C_3
REMARK    3  A    between atoms: C_3  and  C_4
REMARK    4  A    between atoms: C_4  and  C_5
REMARK    5  A    between atoms: C_12  and  O_13
REMARK    6  A    between atoms: O_13  and  C_14
REMARK                            x       y       z     vdW  Elec       q    Type
REMARK                         _______ _______ _______ _____ _____    ______ ____
ROOT
ATOM      1  C   UNL     1       2.897   4.184  18.653  0.00  0.00    +0.000 A 
ATOM      2  C   UNL     1       2.775   3.282  19.639  0.00  0.00    +0.000 A 
ATOM      3  C   UNL     1       2.342   3.611  21.004  0.00  0.00    +0.000 A 
ATOM      4  O   UNL     1       2.260   2.743  21.858  0.00  0.00    +0.000 OA
ATOM      5  O   UNL     1       2.079   4.942  21.259  0.00  0.00    +0.000 OA
ATOM      6  C   UNL     1       2.137   5.911  20.232  0.00  0.00    +0.000 A 
ATOM      7  C   UNL     1       1.754   7.203  20.601  0.00  0.00    +0.000 A 
ATOM      8  C   UNL     1       1.701   8.214  19.645  0.00  0.00    +0.000 A 
ATOM      9  C   UNL     1       2.118   7.917  18.345  0.00  0.00    +0.000 A 
ATOM     10  C   UNL     1       2.526   6.616  17.992  0.00  0.00    +0.000 A 
ATOM     11  C   UNL     1       2.525   5.581  18.936  0.00  0.00    +0.000 A 
ENDROOT
BRANCH   1  12
ATOM     12  C   UNL     1       3.428   3.762  17.306  0.00  0.00    +0.000 C 
BRANCH  12  13
ATOM     13  C   UNL     1       4.947   3.949  17.255  0.00  0.00    +0.000 C 
BRANCH  13  15
ATOM     14  C   UNL     1       5.321   5.889  15.709  0.00  0.00    +0.000 C 
ATOM     15  C   UNL     1       5.421   4.379  15.870  0.00  0.00    +0.000 C 
ENDBRANCH  13  15
ENDBRANCH  12  13
ENDBRANCH   1  12
BRANCH   8  16
ATOM     16  O   UNL     1       1.249   9.498  19.851  0.00  0.00    +0.000 OA
BRANCH  16  17
ATOM     17  C   UNL     1       0.933  10.271  18.692  0.00  0.00    +0.000 C 
ATOM     18  C   UNL     1      -0.590  10.361  18.523  0.00  0.00    +0.000 C 
ATOM     19  C   UNL     1      -1.275  11.268  19.543  0.00  0.00    +0.000 C 
ATOM     20  C   UNL     1      -0.663  12.662  19.603  0.00  0.00    +0.000 C 
ATOM     21  C   UNL     1       0.854  12.672  19.695  0.00  0.00    +0.000 C 
ATOM     22  C   UNL     1       1.497  11.693  18.739  0.00  0.00    +0.000 C 
ATOM     23  O   UNL     1       2.496  12.015  18.092  0.00  0.00    +0.000 OA
ENDBRANCH  16  17
ENDBRANCH   8  16
TORSDOF 5
ENDMDL
MODEL 9
REMARK VINA RESULT:      -7.3      2.017      7.410
REMARK  Name = 
REMARK  6 active torsions:
REMARK  status: ('A' for Active; 'I' for Inactive)
REMARK    1  A    between atoms: C_1  and  C_2
REMARK    2  A    between atoms: C_2  and  C_3
REMARK    3  A    between atoms: C_3  and  C_4
REMARK    4  A    between atoms: C_4  and  C_5
REMARK    5  A    between atoms: C_12  and  O_13
REMARK    6  A    between atoms: O_13  and  C_14
REMARK                            x       y       z     vdW  Elec       q    Type
REMARK                         _______ _______ _______ _____ _____    ______ ____
ROOT
ATOM      1  C   UNL     1       4.718   5.321  17.511  0.00  0.00    +0.000 A 
ATOM      2  C   UNL     1       4.961   4.118  18.053  0.00  0.00    +0.000 A 
ATOM      3  C   UNL     1       4.381   3.655  19.320  0.00  0.00    +0.000 A 
ATOM      4  O   UNL     1       4.651   2.550  19.763  0.00  0.00    +0.000 OA
ATOM      5  O   UNL     1       3.559   4.547  19.980  0.00  0.00    +0.000 OA
ATOM      6  C   UNL     1       3.229   5.798  19.412  0.00  0.00    +0.000 A 
ATOM      7  C   UNL     1       2.312   6.565  20.136  0.00  0.00    +0.000 A 
ATOM      8  C   UNL     1       1.862   7.779  19.624  0.00  0.00    +0.000 A 
ATOM      9  C   UNL     1       2.412   8.236  18.424  0.00  0.00    +0.000 A 
ATOM     10  C   UNL     1       3.355   7.464  17.717  0.00  0.00    +0.000 A 
ATOM     11  C   UNL     1       3.767   6.215  18.197  0.00  0.00    +0.000 A 
ENDROOT
BRANCH   1  12
ATOM     12  C   UNL     1       5.425   5.738  16.247  0.00  0.00    +0.000 C 
BRANCH  12  13
ATOM     13  C   UNL     1       6.938   5.783  16.480  0.00  0.00    +0.000 C 
BRANCH  13  15
ATOM     14  C   UNL     1       7.650   7.976  17.469  0.00  0.00    +0.000 C 
ATOM     15  C   UNL     1       7.293   6.528  17.765  0.00  0.00    +0.000 C 
ENDBRANCH  13  15
ENDBRANCH  12  13
ENDBRANCH   1  12
BRANCH   8  16
ATOM     16  O   UNL     1       0.893   8.581  20.182  0.00  0.00    +0.000 OA
BRANCH  16  17
ATOM     17  C   UNL     1       1.334   9.743  20.887  0.00  0.00    +0.000 C 
ATOM     18  C   UNL     1       0.553  10.973  20.409  0.00  0.00    +0.000 C 
ATOM     19  C   UNL     1      -0.899  11.009  20.883  0.00  0.00    +0.000 C 
ATOM     20  C   UNL     1      -1.034  10.847  22.392  0.00  0.00    +0.000 C 
ATOM     21  C   UNL     1      -0.230   9.693  22.967  0.00  0.00    +0.000 C 
ATOM     22  C   UNL     1       1.172   9.629  22.405  0.00  0.00    +0.000 C 
ATOM     23  O   UNL     1       2.133   9.402  23.144  0.00  0.00    +0.000 OA
ENDBRANCH  16  17
ENDBRANCH   8  16
TORSDOF 5
ENDMDL
