MODEL 1
REMARK VINA RESULT:      -6.6      0.000      0.000
REMARK  Name = 
REMARK  8 active torsions:
REMARK  status: ('A' for Active; 'I' for Inactive)
REMARK    1  A    between atoms: C_1  and  C_2
REMARK    2  A    between atoms: C_2  and  C_3
REMARK    3  A    between atoms: C_2  and  C_4
REMARK    4  A    between atoms: C_8  and  C_9
REMARK    5  A    between atoms: C_8  and  C_11
REMARK    6  A    between atoms: C_9  and  N_10
REMARK    7  A    between atoms: C_11  and  C_12
REMARK    8  A    between atoms: C_12  and  O_14
REMARK                            x       y       z     vdW  Elec       q    Type
REMARK                         _______ _______ _______ _____ _____    ______ ____
ROOT
ATOM      1  C   UNL     1       2.223   4.220  18.039  0.00  0.00    +0.000 C 
ATOM      2  C   UNL     1       2.065   5.747  17.924  0.00  0.00    +0.000 C 
ATOM      3  C   UNL     1       3.308   6.515  18.352  0.00  0.00    +0.000 C 
ATOM      4  C   UNL     1       4.565   6.081  17.600  0.00  0.00    +0.000 C 
ATOM      5  C   UNL     1       4.827   4.550  17.548  0.00  0.00    +0.000 C 
ATOM      6  C   UNL     1       3.486   3.807  17.243  0.00  0.00    +0.000 C 
ENDROOT
BRANCH   1   8
ATOM      7  C   UNL     1       0.949   4.275  20.283  0.00  0.00    +0.000 C 
ATOM      8  C   UNL     1       2.121   3.670  19.492  0.00  0.00    +0.000 C 
ATOM      9  C   UNL     1       1.929   2.146  19.526  0.00  0.00    +0.000 C 
ENDBRANCH   1   8
BRANCH   5  10
ATOM     10  C   UNL     1       5.509   4.103  18.878  0.00  0.00    +0.000 C 
BRANCH  10  11
ATOM     11  N   UNL     1       6.299   5.114  19.570  0.00  0.00    +0.000 NA
ATOM     12  H   UNL     1       6.560   4.826  20.506  0.00  0.00    +0.000 HD
ATOM     13  H   UNL     1       7.166   5.295  19.059  0.00  0.00    +0.000 HD
ENDBRANCH  10  11
ENDBRANCH   5  10
BRANCH   5  14
ATOM     14  C   UNL     1       5.774   4.244  16.344  0.00  0.00    +0.000 C 
BRANCH  14  15
ATOM     15  C   UNL     1       7.144   4.872  16.428  0.00  0.00    +0.000 C 
ATOM     16  O   UNL     1       7.423   5.958  15.934  0.00  0.00    +0.000 OA
BRANCH  15  17
ATOM     17  O   UNL     1       8.042   4.136  17.113  0.00  0.00    +0.000 OA
ATOM     18  H   UNL     1       8.751   4.656  17.540  0.00  0.00    +0.000 HD
ENDBRANCH  15  17
ENDBRANCH  14  15
ENDBRANCH   5  14
TORSDOF 6
ENDMDL
MODEL 2
REMARK VINA RESULT:      -6.5      0.689      1.057
REMARK  Name = 
REMARK  8 active torsions:
REMARK  status: ('A' for Active; 'I' for Inactive)
REMARK    1  A    between atoms: C_1  and  C_2
REMARK    2  A    between atoms: C_2  and  C_3
REMARK    3  A    between atoms: C_2  and  C_4
REMARK    4  A    between atoms: C_8  and  C_9
REMARK    5  A    between atoms: C_8  and  C_11
REMARK    6  A    between atoms: C_9  and  N_10
REMARK    7  A    between atoms: C_11  and  C_12
REMARK    8  A    between atoms: C_12  and  O_14
REMARK                            x       y       z     vdW  Elec       q    Type
REMARK                         _______ _______ _______ _____ _____    ______ ____
ROOT
ATOM      1  C   UNL     1       2.169   4.221  17.898  0.00  0.00    +0.000 C 
ATOM      2  C   UNL     1       1.741   5.697  17.819  0.00  0.00    +0.000 C 
ATOM      3  C   UNL     1       2.818   6.663  18.293  0.00  0.00    +0.000 C 
ATOM      4  C   UNL     1       4.145   6.483  17.558  0.00  0.00    +0.000 C 
ATOM      5  C   UNL     1       4.679   5.025  17.474  0.00  0.00    +0.000 C 
ATOM      6  C   UNL     1       3.499   4.064  17.121  0.00  0.00    +0.000 C 
ENDROOT
BRANCH   1   8
ATOM      7  C   UNL     1       0.951   4.114  20.172  0.00  0.00    +0.000 C 
ATOM      8  C   UNL     1       2.142   3.619  19.334  0.00  0.00    +0.000 C 
ATOM      9  C   UNL     1       2.059   2.085  19.322  0.00  0.00    +0.000 C 
ENDBRANCH   1   8
BRANCH   5  10
ATOM     10  C   UNL     1       5.408   4.670  18.807  0.00  0.00    +0.000 C 
BRANCH  10  11
ATOM     11  N   UNL     1       5.561   3.250  19.099  0.00  0.00    +0.000 NA
ATOM     12  H   UNL     1       4.979   2.669  18.505  0.00  0.00    +0.000 HD
ATOM     13  H   UNL     1       6.529   2.960  18.944  0.00  0.00    +0.000 HD
ENDBRANCH  10  11
ENDBRANCH   5  10
BRANCH   5  14
ATOM     14  C   UNL     1       5.686   4.929  16.284  0.00  0.00    +0.000 C 
BRANCH  14  15
ATOM     15  C   UNL     1       7.125   5.222  16.634  0.00  0.00    +0.000 C 
ATOM     16  O   UNL     1       7.919   4.368  17.009  0.00  0.00    +0.000 OA
BRANCH  15  17
ATOM     17  O   UNL     1       7.472   6.516  16.482  0.00  0.00    +0.000 OA
ATOM     18  H   UNL     1       8.371   6.735  16.797  0.00  0.00    +0.000 HD
ENDBRANCH  15  17
ENDBRANCH  14  15
ENDBRANCH   5  14
TORSDOF 6
ENDMDL
MODEL 3
REMARK VINA RESULT:      -6.5      1.102      1.290
REMARK  Name = 
REMARK  8 active torsions:
REMARK  status: ('A' for Active; 'I' for Inactive)
REMARK    1  A    between atoms: C_1  and  C_2
REMARK    2  A    between atoms: C_2  and  C_3
REMARK    3  A    between atoms: C_2  and  C_4
REMARK    4  A    between atoms: C_8  and  C_9
REMARK    5  A    between atoms: C_8  and  C_11
REMARK    6  A    between atoms: C_9  and  N_10
REMARK    7  A    between atoms: C_11  and  C_12
REMARK    8  A    between atoms: C_12  and  O_14
REMARK                            x       y       z     vdW  Elec       q    Type
REMARK                         _______ _______ _______ _____ _____    ______ ____
ROOT
ATOM      1  C   UNL     1       2.862   3.560  17.484  0.00  0.00    +0.000 C 
ATOM      2  C   UNL     1       1.959   4.802  17.582  0.00  0.00    +0.000 C 
ATOM      3  C   UNL     1       2.534   5.896  18.471  0.00  0.00    +0.000 C 
ATOM      4  C   UNL     1       3.940   6.326  18.054  0.00  0.00    +0.000 C 
ATOM      5  C   UNL     1       4.960   5.175  17.829  0.00  0.00    +0.000 C 
ATOM      6  C   UNL     1       4.269   4.022  17.031  0.00  0.00    +0.000 C 
ENDROOT
BRANCH   1   8
ATOM      7  C   UNL     1       1.389   2.233  19.137  0.00  0.00    +0.000 C 
ATOM      8  C   UNL     1       2.818   2.632  18.734  0.00  0.00    +0.000 C 
ATOM      9  C   UNL     1       3.592   1.322  18.517  0.00  0.00    +0.000 C 
ENDBRANCH   1   8
BRANCH   5  10
ATOM     10  C   UNL     1       5.542   4.731  19.207  0.00  0.00    +0.000 C 
BRANCH  10  11
ATOM     11  N   UNL     1       6.770   5.391  19.632  0.00  0.00    +0.000 NA
ATOM     12  H   UNL     1       7.466   5.422  18.894  0.00  0.00    +0.000 HD
ATOM     13  H   UNL     1       6.576   6.358  19.902  0.00  0.00    +0.000 HD
ENDBRANCH  10  11
ENDBRANCH   5  10
BRANCH   5  14
ATOM     14  C   UNL     1       6.114   5.700  16.917  0.00  0.00    +0.000 C 
BRANCH  14  15
ATOM     15  C   UNL     1       6.938   4.630  16.243  0.00  0.00    +0.000 C 
ATOM     16  O   UNL     1       6.736   4.239  15.099  0.00  0.00    +0.000 OA
BRANCH  15  17
ATOM     17  O   UNL     1       7.936   4.145  17.008  0.00  0.00    +0.000 OA
ATOM     18  H   UNL     1       7.707   4.034  17.951  0.00  0.00    +0.000 HD
ENDBRANCH  15  17
ENDBRANCH  14  15
ENDBRANCH   5  14
TORSDOF 6
ENDMDL
MODEL 4
REMARK VINA RESULT:      -6.2      1.277      1.609
REMARK  Name = 
REMARK  8 active torsions:
REMARK  status: ('A' for Active; 'I' for Inactive)
REMARK    1  A    between atoms: C_1  and  C_2
REMARK    2  A    between atoms: C_2  and  C_3
REMARK    3  A    between atoms: C_2  and  C_4
REMARK    4  A    between atoms: C_8  and  C_9
REMARK    5  A    between atoms: C_8  and  C_11
REMARK    6  A    between atoms: C_9  and  N_10
REMARK    7  A    between atoms: C_11  and  C_12
REMARK    8  A    between atoms: C_12  and  O_14
REMARK                            x       y       z     vdW  Elec       q    Type
REMARK                         _______ _______ _______ _____ _____    ______ ____
ROOT
ATOM      1  C   UNL     1       2.783   3.626  17.552  0.00  0.00    +0.000 C 
ATOM      2  C   UNL     1       1.746   4.748  17.735  0.00  0.00    +0.000 C 
ATOM      3  C   UNL     1       2.301   5.971  18.454  0.00  0.00    +0.000 C 
ATOM      4  C   UNL     1       3.548   6.542  17.781  0.00  0.00    +0.000 C 
ATOM      5  C   UNL     1       4.667   5.516  17.447  0.00  0.00    +0.000 C 
ATOM      6  C   UNL     1       4.021   4.228  16.842  0.00  0.00    +0.000 C 
ENDROOT
BRANCH   1   8
ATOM      7  C   UNL     1       1.811   2.547  19.685  0.00  0.00    +0.000 C 
ATOM      8  C   UNL     1       3.070   2.798  18.838  0.00  0.00    +0.000 C 
ATOM      9  C   UNL     1       3.665   1.417  18.523  0.00  0.00    +0.000 C 
ENDBRANCH   1   8
BRANCH   5  10
ATOM     10  C   UNL     1       5.519   5.254  18.728  0.00  0.00    +0.000 C 
BRANCH  10  11
ATOM     11  N   UNL     1       6.288   4.016  18.749  0.00  0.00    +0.000 NA
ATOM     12  H   UNL     1       5.863   3.308  19.339  0.00  0.00    +0.000 HD
ATOM     13  H   UNL     1       6.351   3.624  17.807  0.00  0.00    +0.000 HD
ENDBRANCH  10  11
ENDBRANCH   5  10
BRANCH   5  14
ATOM     14  C   UNL     1       5.575   6.112  16.325  0.00  0.00    +0.000 C 
BRANCH  14  15
ATOM     15  C   UNL     1       6.442   5.111  15.600  0.00  0.00    +0.000 C 
ATOM     16  O   UNL     1       7.466   4.634  16.073  0.00  0.00    +0.000 OA
BRANCH  15  17
ATOM     17  O   UNL     1       5.981   4.772  14.380  0.00  0.00    +0.000 OA
ATOM     18  H   UNL     1       6.288   3.902  14.058  0.00  0.00    +0.000 HD
ENDBRANCH  15  17
ENDBRANCH  14  15
ENDBRANCH   5  14
TORSDOF 6
ENDMDL
MODEL 5
REMARK VINA RESULT:      -6.2      1.089      1.207
REMARK  Name = 
REMARK  8 active torsions:
REMARK  status: ('A' for Active; 'I' for Inactive)
REMARK    1  A    between atoms: C_1  and  C_2
REMARK    2  A    between atoms: C_2  and  C_3
REMARK    3  A    between atoms: C_2  and  C_4
REMARK    4  A    between atoms: C_8  and  C_9
REMARK    5  A    between atoms: C_8  and  C_11
REMARK    6  A    between atoms: C_9  and  N_10
REMARK    7  A    between atoms: C_11  and  C_12
REMARK    8  A    between atoms: C_12  and  O_14
REMARK                            x       y       z     vdW  Elec       q    Type
REMARK                         _______ _______ _______ _____ _____    ______ ____
ROOT
ATOM      1  C   UNL     1       2.761   3.885  18.615  0.00  0.00    +0.000 C 
ATOM      2  C   UNL     1       2.111   5.068  17.877  0.00  0.00    +0.000 C 
ATOM      3  C   UNL     1       2.966   6.328  17.884  0.00  0.00    +0.000 C 
ATOM      4  C   UNL     1       4.371   6.097  17.328  0.00  0.00    +0.000 C 
ATOM      5  C   UNL     1       5.139   4.879  17.913  0.00  0.00    +0.000 C 
ATOM      6  C   UNL     1       4.169   3.657  18.011  0.00  0.00    +0.000 C 
ENDROOT
BRANCH   1   8
ATOM      7  C   UNL     1       1.330   4.476  20.681  0.00  0.00    +0.000 C 
ATOM      8  C   UNL     1       2.692   3.980  20.168  0.00  0.00    +0.000 C 
ATOM      9  C   UNL     1       2.947   2.625  20.847  0.00  0.00    +0.000 C 
ENDBRANCH   1   8
BRANCH   5  10
ATOM     10  C   UNL     1       5.781   5.287  19.275  0.00  0.00    +0.000 C 
BRANCH  10  11
ATOM     11  N   UNL     1       7.226   5.120  19.382  0.00  0.00    +0.000 NA
ATOM     12  H   UNL     1       7.734   5.912  19.003  0.00  0.00    +0.000 HD
ATOM     13  H   UNL     1       7.499   5.030  20.363  0.00  0.00    +0.000 HD
ENDBRANCH  10  11
ENDBRANCH   5  10
BRANCH   5  14
ATOM     14  C   UNL     1       6.259   4.462  16.908  0.00  0.00    +0.000 C 
BRANCH  14  15
ATOM     15  C   UNL     1       6.813   5.583  16.062  0.00  0.00    +0.000 C 
ATOM     16  O   UNL     1       7.559   6.454  16.495  0.00  0.00    +0.000 OA
BRANCH  15  17
ATOM     17  O   UNL     1       6.426   5.537  14.772  0.00  0.00    +0.000 OA
ATOM     18  H   UNL     1       5.993   6.352  14.449  0.00  0.00    +0.000 HD
ENDBRANCH  15  17
ENDBRANCH  14  15
ENDBRANCH   5  14
TORSDOF 6
ENDMDL
MODEL 6
REMARK VINA RESULT:      -6.1      1.511      2.252
REMARK  Name = 
REMARK  8 active torsions:
REMARK  status: ('A' for Active; 'I' for Inactive)
REMARK    1  A    between atoms: C_1  and  C_2
REMARK    2  A    between atoms: C_2  and  C_3
REMARK    3  A    between atoms: C_2  and  C_4
REMARK    4  A    between atoms: C_8  and  C_9
REMARK    5  A    between atoms: C_8  and  C_11
REMARK    6  A    between atoms: C_9  and  N_10
REMARK    7  A    between atoms: C_11  and  C_12
REMARK    8  A    between atoms: C_12  and  O_14
REMARK                            x       y       z     vdW  Elec       q    Type
REMARK                         _______ _______ _______ _____ _____    ______ ____
ROOT
ATOM      1  C   UNL     1       3.354   2.659  19.398  0.00  0.00    +0.000 C 
ATOM      2  C   UNL     1       3.088   2.194  17.955  0.00  0.00    +0.000 C 
ATOM      3  C   UNL     1       3.129   3.328  16.939  0.00  0.00    +0.000 C 
ATOM      4  C   UNL     1       4.436   4.118  16.981  0.00  0.00    +0.000 C 
ATOM      5  C   UNL     1       4.894   4.593  18.388  0.00  0.00    +0.000 C 
ATOM      6  C   UNL     1       4.697   3.430  19.414  0.00  0.00    +0.000 C 
ENDROOT
BRANCH   1   8
ATOM      7  C   UNL     1       0.787   2.854  19.585  0.00  0.00    +0.000 C 
ATOM      8  C   UNL     1       2.148   3.373  20.076  0.00  0.00    +0.000 C 
ATOM      9  C   UNL     1       2.154   3.205  21.603  0.00  0.00    +0.000 C 
ENDBRANCH   1   8
BRANCH   5  10
ATOM     10  C   UNL     1       4.130   5.901  18.761  0.00  0.00    +0.000 C 
BRANCH  10  11
ATOM     11  N   UNL     1       3.821   6.803  17.658  0.00  0.00    +0.000 NA
ATOM     12  H   UNL     1       2.829   6.829  17.448  0.00  0.00    +0.000 HD
ATOM     13  H   UNL     1       4.102   7.757  17.894  0.00  0.00    +0.000 HD
ENDBRANCH  10  11
ENDBRANCH   5  10
BRANCH   5  14
ATOM     14  C   UNL     1       6.430   4.876  18.346  0.00  0.00    +0.000 C 
BRANCH  14  15
ATOM     15  C   UNL     1       6.963   5.331  17.009  0.00  0.00    +0.000 C 
ATOM     16  O   UNL     1       6.676   6.406  16.496  0.00  0.00    +0.000 OA
BRANCH  15  17
ATOM     17  O   UNL     1       7.803   4.453  16.428  0.00  0.00    +0.000 OA
ATOM     18  H   UNL     1       7.485   4.088  15.579  0.00  0.00    +0.000 HD
ENDBRANCH  15  17
ENDBRANCH  14  15
ENDBRANCH   5  14
TORSDOF 6
ENDMDL
MODEL 7
REMARK VINA RESULT:      -6.1      1.466      1.601
REMARK  Name = 
REMARK  8 active torsions:
REMARK  status: ('A' for Active; 'I' for Inactive)
REMARK    1  A    between atoms: C_1  and  C_2
REMARK    2  A    between atoms: C_2  and  C_3
REMARK    3  A    between atoms: C_2  and  C_4
REMARK    4  A    between atoms: C_8  and  C_9
REMARK    5  A    between atoms: C_8  and  C_11
REMARK    6  A    between atoms: C_9  and  N_10
REMARK    7  A    between atoms: C_11  and  C_12
REMARK    8  A    between atoms: C_12  and  O_14
REMARK                            x       y       z     vdW  Elec       q    Type
REMARK                         _______ _______ _______ _____ _____    ______ ____
ROOT
ATOM      1  C   UNL     1       2.443   3.662  17.646  0.00  0.00    +0.000 C 
ATOM      2  C   UNL     1       1.735   5.011  17.864  0.00  0.00    +0.000 C 
ATOM      3  C   UNL     1       2.640   6.077  18.465  0.00  0.00    +0.000 C 
ATOM      4  C   UNL     1       3.914   6.303  17.652  0.00  0.00    +0.000 C 
ATOM      5  C   UNL     1       4.710   5.024  17.271  0.00  0.00    +0.000 C 
ATOM      6  C   UNL     1       3.712   3.919  16.795  0.00  0.00    +0.000 C 
ENDROOT
BRANCH   1   8
ATOM      7  C   UNL     1       1.325   2.421  19.613  0.00  0.00    +0.000 C 
ATOM      8  C   UNL     1       2.648   2.825  18.942  0.00  0.00    +0.000 C 
ATOM      9  C   UNL     1       3.419   1.522  18.680  0.00  0.00    +0.000 C 
ENDBRANCH   1   8
BRANCH   5  10
ATOM     10  C   UNL     1       5.598   4.595  18.481  0.00  0.00    +0.000 C 
BRANCH  10  11
ATOM     11  N   UNL     1       6.999   4.320  18.187  0.00  0.00    +0.000 NA
ATOM     12  H   UNL     1       7.168   3.335  18.008  0.00  0.00    +0.000 HD
ATOM     13  H   UNL     1       7.291   4.831  17.352  0.00  0.00    +0.000 HD
ENDBRANCH  10  11
ENDBRANCH   5  10
BRANCH   5  14
ATOM     14  C   UNL     1       5.617   5.345  16.042  0.00  0.00    +0.000 C 
BRANCH  14  15
ATOM     15  C   UNL     1       5.739   4.236  15.025  0.00  0.00    +0.000 C 
ATOM     16  O   UNL     1       5.293   4.310  13.886  0.00  0.00    +0.000 OA
BRANCH  15  17
ATOM     17  O   UNL     1       6.399   3.151  15.475  0.00  0.00    +0.000 OA
ATOM     18  H   UNL     1       5.837   2.364  15.617  0.00  0.00    +0.000 HD
ENDBRANCH  15  17
ENDBRANCH  14  15
ENDBRANCH   5  14
TORSDOF 6
ENDMDL
MODEL 8
REMARK VINA RESULT:      -6.1      1.089      1.338
REMARK  Name = 
REMARK  8 active torsions:
REMARK  status: ('A' for Active; 'I' for Inactive)
REMARK    1  A    between atoms: C_1  and  C_2
REMARK    2  A    between atoms: C_2  and  C_3
REMARK    3  A    between atoms: C_2  and  C_4
REMARK    4  A    between atoms: C_8  and  C_9
REMARK    5  A    between atoms: C_8  and  C_11
REMARK    6  A    between atoms: C_9  and  N_10
REMARK    7  A    between atoms: C_11  and  C_12
REMARK    8  A    between atoms: C_12  and  O_14
REMARK                            x       y       z     vdW  Elec       q    Type
REMARK                         _______ _______ _______ _____ _____    ______ ____
ROOT
ATOM      1  C   UNL     1       2.086   4.285  17.882  0.00  0.00    +0.000 C 
ATOM      2  C   UNL     1       1.980   5.819  17.932  0.00  0.00    +0.000 C 
ATOM      3  C   UNL     1       3.162   6.484  18.625  0.00  0.00    +0.000 C 
ATOM      4  C   UNL     1       4.507   6.091  18.014  0.00  0.00    +0.000 C 
ATOM      5  C   UNL     1       4.741   4.568  17.815  0.00  0.00    +0.000 C 
ATOM      6  C   UNL     1       3.444   3.919  17.233  0.00  0.00    +0.000 C 
ENDROOT
BRANCH   1   8
ATOM      7  C   UNL     1       1.076   4.499  20.248  0.00  0.00    +0.000 C 
ATOM      8  C   UNL     1       1.759   3.573  19.227  0.00  0.00    +0.000 C 
ATOM      9  C   UNL     1       0.824   2.368  19.038  0.00  0.00    +0.000 C 
ENDBRANCH   1   8
BRANCH   5  10
ATOM     10  C   UNL     1       5.210   3.942  19.166  0.00  0.00    +0.000 C 
BRANCH  10  11
ATOM     11  N   UNL     1       5.003   2.507  19.318  0.00  0.00    +0.000 NA
ATOM     12  H   UNL     1       4.186   2.293  19.879  0.00  0.00    +0.000 HD
ATOM     13  H   UNL     1       4.862   2.072  18.404  0.00  0.00    +0.000 HD
ENDBRANCH  10  11
ENDBRANCH   5  10
BRANCH   5  14
ATOM     14  C   UNL     1       5.848   4.368  16.732  0.00  0.00    +0.000 C 
BRANCH  14  15
ATOM     15  C   UNL     1       6.352   5.636  16.087  0.00  0.00    +0.000 C 
ATOM     16  O   UNL     1       7.409   6.178  16.390  0.00  0.00    +0.000 OA
BRANCH  15  17
ATOM     17  O   UNL     1       5.540   6.121  15.127  0.00  0.00    +0.000 OA
ATOM     18  H   UNL     1       5.855   6.945  14.707  0.00  0.00    +0.000 HD
ENDBRANCH  15  17
ENDBRANCH  14  15
ENDBRANCH   5  14
TORSDOF 6
ENDMDL
MODEL 9
REMARK VINA RESULT:      -6.0      1.814      2.736
REMARK  Name = 
REMARK  8 active torsions:
REMARK  status: ('A' for Active; 'I' for Inactive)
REMARK    1  A    between atoms: C_1  and  C_2
REMARK    2  A    between atoms: C_2  and  C_3
REMARK    3  A    between atoms: C_2  and  C_4
REMARK    4  A    between atoms: C_8  and  C_9
REMARK    5  A    between atoms: C_8  and  C_11
REMARK    6  A    between atoms: C_9  and  N_10
REMARK    7  A    between atoms: C_11  and  C_12
REMARK    8  A    between atoms: C_12  and  O_14
REMARK                            x       y       z     vdW  Elec       q    Type
REMARK                         _______ _______ _______ _____ _____    ______ ____
ROOT
ATOM      1  C   UNL     1       3.213   2.853  19.656  0.00  0.00    +0.000 C 
ATOM      2  C   UNL     1       3.192   2.137  18.295  0.00  0.00    +0.000 C 
ATOM      3  C   UNL     1       2.881   3.066  17.129  0.00  0.00    +0.000 C 
ATOM      4  C   UNL     1       3.826   4.264  17.054  0.00  0.00    +0.000 C 
ATOM      5  C   UNL     1       4.026   5.053  18.378  0.00  0.00    +0.000 C 
ATOM      6  C   UNL     1       4.201   4.042  19.558  0.00  0.00    +0.000 C 
ENDROOT
BRANCH   1   8
ATOM      7  C   UNL     1       0.659   2.594  19.393  0.00  0.00    +0.000 C 
ATOM      8  C   UNL     1       1.805   3.181  20.233  0.00  0.00    +0.000 C 
ATOM      9  C   UNL     1       1.619   2.644  21.661  0.00  0.00    +0.000 C 
ENDBRANCH   1   8
BRANCH   5  10
ATOM     10  C   UNL     1       2.838   6.045  18.566  0.00  0.00    +0.000 C 
BRANCH  10  11
ATOM     11  N   UNL     1       2.721   6.670  19.878  0.00  0.00    +0.000 NA
ATOM     12  H   UNL     1       2.792   5.996  20.634  0.00  0.00    +0.000 HD
ATOM     13  H   UNL     1       3.470   7.352  20.013  0.00  0.00    +0.000 HD
ENDBRANCH  10  11
ENDBRANCH   5  10
BRANCH   5  14
ATOM     14  C   UNL     1       5.367   5.849  18.290  0.00  0.00    +0.000 C 
BRANCH  14  15
ATOM     15  C   UNL     1       6.573   5.143  18.859  0.00  0.00    +0.000 C 
ATOM     16  O   UNL     1       7.047   5.393  19.962  0.00  0.00    +0.000 OA
BRANCH  15  17
ATOM     17  O   UNL     1       7.083   4.193  18.051  0.00  0.00    +0.000 OA
ATOM     18  H   UNL     1       6.586   4.058  17.220  0.00  0.00    +0.000 HD
ENDBRANCH  15  17
ENDBRANCH  14  15
ENDBRANCH   5  14
TORSDOF 6
ENDMDL
