MODEL 1
REMARK VINA RESULT:      -8.3      0.000      0.000
REMARK  Name = 
REMARK  11 active torsions:
REMARK  status: ('A' for Active; 'I' for Inactive)
REMARK    1  A    between atoms: C_1  and  C_2
REMARK    2  A    between atoms: C_2  and  C_3
REMARK    3  A    between atoms: C_6  and  C_7
REMARK    4  A    between atoms: C_7  and  O_8
REMARK    5  A    between atoms: C_7  and  C_9
REMARK    6  A    between atoms: C_7  and  C_12
REMARK    7  A    between atoms: C_9  and  C_10
REMARK    8  A    between atoms: C_9  and  C_11
REMARK    9  A    between atoms: C_12  and  C_13
REMARK   10  A    between atoms: C_12  and  C_20
REMARK   11  A    between atoms: C_13  and  N_14
REMARK                            x       y       z     vdW  Elec       q    Type
REMARK                         _______ _______ _______ _____ _____    ______ ____
ROOT
ATOM      1  C   UNL     1       5.846   4.917  17.992  0.00  0.00    +0.000 C 
ENDROOT
BRANCH   1   5
ATOM      2  C   UNL     1       6.142   4.020  13.625  0.00  0.00    +0.000 A 
ATOM      3  C   UNL     1       4.894   3.987  14.273  0.00  0.00    +0.000 A 
ATOM      4  C   UNL     1       4.772   4.333  15.637  0.00  0.00    +0.000 A 
ATOM      5  C   UNL     1       5.903   4.704  16.418  0.00  0.00    +0.000 A 
ATOM      6  C   UNL     1       7.134   4.802  15.714  0.00  0.00    +0.000 A 
ATOM      7  C   UNL     1       7.246   4.468  14.359  0.00  0.00    +0.000 A 
BRANCH   2   9
ATOM      8  C   UNL     1       5.117   2.910  11.498  0.00  0.00    +0.000 C 
ATOM      9  C   UNL     1       6.344   3.482  12.212  0.00  0.00    +0.000 C 
ENDBRANCH   2   9
ENDBRANCH   1   5
BRANCH   1  10
ATOM     10  C   UNL     1       6.581   6.247  18.483  0.00  0.00    +0.000 C 
ATOM     11  C   UNL     1       7.881   6.026  19.285  0.00  0.00    +0.000 C 
ATOM     12  C   UNL     1       6.837   7.271  17.371  0.00  0.00    +0.000 C 
ENDBRANCH   1  10
BRANCH   1  13
ATOM     13  O   UNL     1       6.465   3.809  18.594  0.00  0.00    +0.000 OA
ATOM     14  H   UNL     1       6.560   3.921  19.567  0.00  0.00    +0.000 HD
ENDBRANCH   1  13
BRANCH   1  15
ATOM     15  C   UNL     1       4.334   4.888  18.540  0.00  0.00    +0.000 C 
BRANCH  15  16
ATOM     16  C   UNL     1       3.499   6.191  18.529  0.00  0.00    +0.000 A 
ATOM     17  C   UNL     1       2.742   6.482  19.698  0.00  0.00    +0.000 A 
ATOM     18  C   UNL     1       2.002   7.663  19.808  0.00  0.00    +0.000 A 
ATOM     19  C   UNL     1       2.002   8.585  18.766  0.00  0.00    +0.000 A 
ATOM     20  C   UNL     1       2.720   8.316  17.602  0.00  0.00    +0.000 A 
ATOM     21  C   UNL     1       3.446   7.128  17.476  0.00  0.00    +0.000 A 
ENDBRANCH  15  16
BRANCH  15  22
ATOM     22  C   UNL     1       4.078   4.138  19.905  0.00  0.00    +0.000 C 
BRANCH  22  23
ATOM     23  N   UNL     1       3.454   2.775  19.866  0.00  0.00    +0.000 NA
ATOM     24  C   UNL     1       3.009   2.406  18.502  0.00  0.00    +0.000 C 
ATOM     25  C   UNL     1       1.602   2.972  18.172  0.00  0.00    +0.000 C 
ATOM     26  O   UNL     1       0.646   2.580  19.134  0.00  0.00    +0.000 OA
ATOM     27  C   UNL     1       1.033   3.077  20.397  0.00  0.00    +0.000 C 
ATOM     28  C   UNL     1       2.364   2.448  20.805  0.00  0.00    +0.000 C 
ENDBRANCH  22  23
ENDBRANCH  15  22
ENDBRANCH   1  15
TORSDOF 8
ENDMDL
MODEL 2
REMARK VINA RESULT:      -8.1      0.465      1.039
REMARK  Name = 
REMARK  11 active torsions:
REMARK  status: ('A' for Active; 'I' for Inactive)
REMARK    1  A    between atoms: C_1  and  C_2
REMARK    2  A    between atoms: C_2  and  C_3
REMARK    3  A    between atoms: C_6  and  C_7
REMARK    4  A    between atoms: C_7  and  O_8
REMARK    5  A    between atoms: C_7  and  C_9
REMARK    6  A    between atoms: C_7  and  C_12
REMARK    7  A    between atoms: C_9  and  C_10
REMARK    8  A    between atoms: C_9  and  C_11
REMARK    9  A    between atoms: C_12  and  C_13
REMARK   10  A    between atoms: C_12  and  C_20
REMARK   11  A    between atoms: C_13  and  N_14
REMARK                            x       y       z     vdW  Elec       q    Type
REMARK                         _______ _______ _______ _____ _____    ______ ____
ROOT
ATOM      1  C   UNL     1       6.013   4.874  17.855  0.00  0.00    +0.000 C 
ENDROOT
BRANCH   1   5
ATOM      2  C   UNL     1       6.291   4.121  13.460  0.00  0.00    +0.000 A 
ATOM      3  C   UNL     1       5.044   4.082  14.109  0.00  0.00    +0.000 A 
ATOM      4  C   UNL     1       4.928   4.383  15.484  0.00  0.00    +0.000 A 
ATOM      5  C   UNL     1       6.065   4.714  16.274  0.00  0.00    +0.000 A 
ATOM      6  C   UNL     1       7.296   4.821  15.572  0.00  0.00    +0.000 A 
ATOM      7  C   UNL     1       7.402   4.532  14.206  0.00  0.00    +0.000 A 
BRANCH   2   9
ATOM      8  C   UNL     1       5.880   2.271  11.667  0.00  0.00    +0.000 C 
ATOM      9  C   UNL     1       6.485   3.629  12.029  0.00  0.00    +0.000 C 
ENDBRANCH   2   9
ENDBRANCH   1   5
BRANCH   1  10
ATOM     10  C   UNL     1       6.660   6.236  18.380  0.00  0.00    +0.000 C 
ATOM     11  C   UNL     1       7.937   6.075  19.233  0.00  0.00    +0.000 C 
ATOM     12  C   UNL     1       6.910   7.278  17.283  0.00  0.00    +0.000 C 
ENDBRANCH   1  10
BRANCH   1  13
ATOM     13  O   UNL     1       6.713   3.793  18.416  0.00  0.00    +0.000 OA
ATOM     14  H   UNL     1       6.434   3.610  19.341  0.00  0.00    +0.000 HD
ENDBRANCH   1  13
BRANCH   1  15
ATOM     15  C   UNL     1       4.514   4.724  18.417  0.00  0.00    +0.000 C 
BRANCH  15  16
ATOM     16  C   UNL     1       3.656   5.994  18.639  0.00  0.00    +0.000 A 
ATOM     17  C   UNL     1       3.565   6.908  17.553  0.00  0.00    +0.000 A 
ATOM     18  C   UNL     1       2.769   8.054  17.634  0.00  0.00    +0.000 A 
ATOM     19  C   UNL     1       2.039   8.316  18.790  0.00  0.00    +0.000 A 
ATOM     20  C   UNL     1       2.125   7.446  19.876  0.00  0.00    +0.000 A 
ATOM     21  C   UNL     1       2.935   6.308  19.809  0.00  0.00    +0.000 A 
ENDBRANCH  15  16
BRANCH  15  22
ATOM     22  C   UNL     1       4.298   3.752  19.643  0.00  0.00    +0.000 C 
BRANCH  22  23
ATOM     23  N   UNL     1       3.517   2.491  19.426  0.00  0.00    +0.000 NA
ATOM     24  C   UNL     1       3.275   2.226  17.988  0.00  0.00    +0.000 C 
ATOM     25  C   UNL     1       2.035   2.991  17.453  0.00  0.00    +0.000 C 
ATOM     26  O   UNL     1       0.881   2.707  18.216  0.00  0.00    +0.000 OA
ATOM     27  C   UNL     1       1.102   3.110  19.551  0.00  0.00    +0.000 C 
ATOM     28  C   UNL     1       2.245   2.291  20.146  0.00  0.00    +0.000 C 
ENDBRANCH  22  23
ENDBRANCH  15  22
ENDBRANCH   1  15
TORSDOF 8
ENDMDL
MODEL 3
REMARK VINA RESULT:      -7.5      0.322      1.348
REMARK  Name = 
REMARK  11 active torsions:
REMARK  status: ('A' for Active; 'I' for Inactive)
REMARK    1  A    between atoms: C_1  and  C_2
REMARK    2  A    between atoms: C_2  and  C_3
REMARK    3  A    between atoms: C_6  and  C_7
REMARK    4  A    between atoms: C_7  and  O_8
REMARK    5  A    between atoms: C_7  and  C_9
REMARK    6  A    between atoms: C_7  and  C_12
REMARK    7  A    between atoms: C_9  and  C_10
REMARK    8  A    between atoms: C_9  and  C_11
REMARK    9  A    between atoms: C_12  and  C_13
REMARK   10  A    between atoms: C_12  and  C_20
REMARK   11  A    between atoms: C_13  and  N_14
REMARK                            x       y       z     vdW  Elec       q    Type
REMARK                         _______ _______ _______ _____ _____    ______ ____
ROOT
ATOM      1  C   UNL     1       5.924   4.879  17.986  0.00  0.00    +0.000 C 
ENDROOT
BRANCH   1   5
ATOM      2  C   UNL     1       5.961   3.934  13.620  0.00  0.00    +0.000 A 
ATOM      3  C   UNL     1       7.144   4.330  14.270  0.00  0.00    +0.000 A 
ATOM      4  C   UNL     1       7.165   4.568  15.662  0.00  0.00    +0.000 A 
ATOM      5  C   UNL     1       5.993   4.441  16.460  0.00  0.00    +0.000 A 
ATOM      6  C   UNL     1       4.836   3.964  15.786  0.00  0.00    +0.000 A 
ATOM      7  C   UNL     1       4.824   3.720  14.407  0.00  0.00    +0.000 A 
BRANCH   2   9
ATOM      8  C   UNL     1       4.547   3.296  11.522  0.00  0.00    +0.000 C 
ATOM      9  C   UNL     1       5.853   3.845  12.101  0.00  0.00    +0.000 C 
ENDBRANCH   2   9
ENDBRANCH   1   5
BRANCH   1  10
ATOM     10  C   UNL     1       6.535   6.328  18.263  0.00  0.00    +0.000 C 
ATOM     11  C   UNL     1       7.892   6.345  18.998  0.00  0.00    +0.000 C 
ATOM     12  C   UNL     1       6.619   7.223  17.020  0.00  0.00    +0.000 C 
ENDBRANCH   1  10
BRANCH   1  13
ATOM     13  O   UNL     1       6.646   3.933  18.734  0.00  0.00    +0.000 OA
ATOM     14  H   UNL     1       6.430   3.011  18.471  0.00  0.00    +0.000 HD
ENDBRANCH   1  13
BRANCH   1  15
ATOM     15  C   UNL     1       4.424   4.794  18.560  0.00  0.00    +0.000 C 
BRANCH  15  16
ATOM     16  C   UNL     1       3.579   6.087  18.666  0.00  0.00    +0.000 A 
ATOM     17  C   UNL     1       3.516   6.913  17.511  0.00  0.00    +0.000 A 
ATOM     18  C   UNL     1       2.733   8.070  17.487  0.00  0.00    +0.000 A 
ATOM     19  C   UNL     1       1.987   8.430  18.606  0.00  0.00    +0.000 A 
ATOM     20  C   UNL     1       2.045   7.648  19.759  0.00  0.00    +0.000 A 
ATOM     21  C   UNL     1       2.842   6.500  19.796  0.00  0.00    +0.000 A 
ENDBRANCH  15  16
BRANCH  15  22
ATOM     22  C   UNL     1       4.201   3.939  19.869  0.00  0.00    +0.000 C 
BRANCH  22  23
ATOM     23  N   UNL     1       3.390   2.682  19.772  0.00  0.00    +0.000 NA
ATOM     24  C   UNL     1       2.732   2.545  18.451  0.00  0.00    +0.000 C 
ATOM     25  C   UNL     1       1.389   3.321  18.385  0.00  0.00    +0.000 C 
ATOM     26  O   UNL     1       0.515   2.935  19.424  0.00  0.00    +0.000 OA
ATOM     27  C   UNL     1       1.122   3.218  20.666  0.00  0.00    +0.000 C 
ATOM     28  C   UNL     1       2.391   2.380  20.814  0.00  0.00    +0.000 C 
ENDBRANCH  22  23
ENDBRANCH  15  22
ENDBRANCH   1  15
TORSDOF 8
ENDMDL
MODEL 4
REMARK VINA RESULT:      -7.3      0.453      1.109
REMARK  Name = 
REMARK  11 active torsions:
REMARK  status: ('A' for Active; 'I' for Inactive)
REMARK    1  A    between atoms: C_1  and  C_2
REMARK    2  A    between atoms: C_2  and  C_3
REMARK    3  A    between atoms: C_6  and  C_7
REMARK    4  A    between atoms: C_7  and  O_8
REMARK    5  A    between atoms: C_7  and  C_9
REMARK    6  A    between atoms: C_7  and  C_12
REMARK    7  A    between atoms: C_9  and  C_10
REMARK    8  A    between atoms: C_9  and  C_11
REMARK    9  A    between atoms: C_12  and  C_13
REMARK   10  A    between atoms: C_12  and  C_20
REMARK   11  A    between atoms: C_13  and  N_14
REMARK                            x       y       z     vdW  Elec       q    Type
REMARK                         _______ _______ _______ _____ _____    ______ ____
ROOT
ATOM      1  C   UNL     1       5.722   4.797  18.251  0.00  0.00    +0.000 C 
ENDROOT
BRANCH   1   5
ATOM      2  C   UNL     1       6.019   3.997  13.866  0.00  0.00    +0.000 A 
ATOM      3  C   UNL     1       7.178   4.250  14.620  0.00  0.00    +0.000 A 
ATOM      4  C   UNL     1       7.111   4.438  16.019  0.00  0.00    +0.000 A 
ATOM      5  C   UNL     1       5.871   4.405  16.718  0.00  0.00    +0.000 A 
ATOM      6  C   UNL     1       4.731   4.070  15.938  0.00  0.00    +0.000 A 
ATOM      7  C   UNL     1       4.806   3.874  14.554  0.00  0.00    +0.000 A 
BRANCH   2   9
ATOM      8  C   UNL     1       7.281   4.488  11.636  0.00  0.00    +0.000 C 
ATOM      9  C   UNL     1       6.026   3.969  12.340  0.00  0.00    +0.000 C 
ENDBRANCH   2   9
ENDBRANCH   1   5
BRANCH   1  10
ATOM     10  C   UNL     1       6.460   6.161  18.635  0.00  0.00    +0.000 C 
ATOM     11  C   UNL     1       7.769   6.001  19.437  0.00  0.00    +0.000 C 
ATOM     12  C   UNL     1       6.702   7.101  17.448  0.00  0.00    +0.000 C 
ENDBRANCH   1  10
BRANCH   1  13
ATOM     13  O   UNL     1       6.273   3.754  19.013  0.00  0.00    +0.000 OA
ATOM     14  H   UNL     1       5.584   3.235  19.484  0.00  0.00    +0.000 HD
ENDBRANCH   1  13
BRANCH   1  15
ATOM     15  C   UNL     1       4.179   4.860  18.700  0.00  0.00    +0.000 C 
BRANCH  15  16
ATOM     16  C   UNL     1       3.407   6.197  18.577  0.00  0.00    +0.000 A 
ATOM     17  C   UNL     1       2.614   6.588  19.691  0.00  0.00    +0.000 A 
ATOM     18  C   UNL     1       1.927   7.805  19.701  0.00  0.00    +0.000 A 
ATOM     19  C   UNL     1       2.016   8.664  18.610  0.00  0.00    +0.000 A 
ATOM     20  C   UNL     1       2.771   8.297  17.497  0.00  0.00    +0.000 A 
ATOM     21  C   UNL     1       3.445   7.072  17.472  0.00  0.00    +0.000 A 
ENDBRANCH  15  16
BRANCH  15  22
ATOM     22  C   UNL     1       3.803   4.187  20.078  0.00  0.00    +0.000 C 
BRANCH  22  23
ATOM     23  N   UNL     1       3.228   2.802  20.064  0.00  0.00    +0.000 NA
ATOM     24  C   UNL     1       3.123   2.258  18.690  0.00  0.00    +0.000 C 
ATOM     25  C   UNL     1       1.822   2.718  17.977  0.00  0.00    +0.000 C 
ATOM     26  O   UNL     1       0.675   2.396  18.733  0.00  0.00    +0.000 OA
ATOM     27  C   UNL     1       0.746   3.054  19.980  0.00  0.00    +0.000 C 
ATOM     28  C   UNL     1       1.955   2.537  20.759  0.00  0.00    +0.000 C 
ENDBRANCH  22  23
ENDBRANCH  15  22
ENDBRANCH   1  15
TORSDOF 8
ENDMDL
MODEL 5
REMARK VINA RESULT:      -7.2      1.419      5.593
REMARK  Name = 
REMARK  11 active torsions:
REMARK  status: ('A' for Active; 'I' for Inactive)
REMARK    1  A    between atoms: C_1  and  C_2
REMARK    2  A    between atoms: C_2  and  C_3
REMARK    3  A    between atoms: C_6  and  C_7
REMARK    4  A    between atoms: C_7  and  O_8
REMARK    5  A    between atoms: C_7  and  C_9
REMARK    6  A    between atoms: C_7  and  C_12
REMARK    7  A    between atoms: C_9  and  C_10
REMARK    8  A    between atoms: C_9  and  C_11
REMARK    9  A    between atoms: C_12  and  C_13
REMARK   10  A    between atoms: C_12  and  C_20
REMARK   11  A    between atoms: C_13  and  N_14
REMARK                            x       y       z     vdW  Elec       q    Type
REMARK                         _______ _______ _______ _____ _____    ______ ____
ROOT
ATOM      1  C   UNL     1       5.497   6.259  17.099  0.00  0.00    +0.000 C 
ENDROOT
BRANCH   1   5
ATOM      2  C   UNL     1       1.962   8.069  19.145  0.00  0.00    +0.000 A 
ATOM      3  C   UNL     1       2.310   8.471  17.843  0.00  0.00    +0.000 A 
ATOM      4  C   UNL     1       3.384   7.862  17.156  0.00  0.00    +0.000 A 
ATOM      5  C   UNL     1       4.170   6.838  17.755  0.00  0.00    +0.000 A 
ATOM      6  C   UNL     1       3.742   6.403  19.039  0.00  0.00    +0.000 A 
ATOM      7  C   UNL     1       2.671   7.003  19.711  0.00  0.00    +0.000 A 
BRANCH   2   9
ATOM      8  C   UNL     1       0.781   8.398  21.449  0.00  0.00    +0.000 C 
ATOM      9  C   UNL     1       0.934   8.821  19.986  0.00  0.00    +0.000 C 
ENDBRANCH   2   9
ENDBRANCH   1   5
BRANCH   1  10
ATOM     10  C   UNL     1       6.757   6.283  18.081  0.00  0.00    +0.000 C 
ATOM     11  C   UNL     1       7.545   4.959  18.176  0.00  0.00    +0.000 C 
ATOM     12  C   UNL     1       7.732   7.438  17.824  0.00  0.00    +0.000 C 
ENDBRANCH   1  10
BRANCH   1  13
ATOM     13  O   UNL     1       5.789   7.039  15.968  0.00  0.00    +0.000 OA
ATOM     14  H   UNL     1       5.220   6.806  15.201  0.00  0.00    +0.000 HD
ENDBRANCH   1  13
BRANCH   1  15
ATOM     15  C   UNL     1       5.274   4.774  16.524  0.00  0.00    +0.000 C 
BRANCH  15  16
ATOM     16  C   UNL     1       5.651   4.466  15.054  0.00  0.00    +0.000 A 
ATOM     17  C   UNL     1       6.964   4.820  14.636  0.00  0.00    +0.000 A 
ATOM     18  C   UNL     1       7.418   4.530  13.347  0.00  0.00    +0.000 A 
ATOM     19  C   UNL     1       6.584   3.876  12.444  0.00  0.00    +0.000 A 
ATOM     20  C   UNL     1       5.286   3.535  12.821  0.00  0.00    +0.000 A 
ATOM     21  C   UNL     1       4.818   3.840  14.103  0.00  0.00    +0.000 A 
ENDBRANCH  15  16
BRANCH  15  22
ATOM     22  C   UNL     1       3.895   4.076  16.846  0.00  0.00    +0.000 C 
BRANCH  22  23
ATOM     23  N   UNL     1       3.910   2.777  17.595  0.00  0.00    +0.000 NA
ATOM     24  C   UNL     1       2.601   2.084  17.531  0.00  0.00    +0.000 C 
ATOM     25  C   UNL     1       1.612   2.603  18.609  0.00  0.00    +0.000 C 
ATOM     26  O   UNL     1       2.164   2.514  19.906  0.00  0.00    +0.000 OA
ATOM     27  C   UNL     1       3.330   3.307  19.964  0.00  0.00    +0.000 C 
ATOM     28  C   UNL     1       4.372   2.751  18.995  0.00  0.00    +0.000 C 
ENDBRANCH  22  23
ENDBRANCH  15  22
ENDBRANCH   1  15
TORSDOF 8
ENDMDL
MODEL 6
REMARK VINA RESULT:      -7.2      1.446      5.641
REMARK  Name = 
REMARK  11 active torsions:
REMARK  status: ('A' for Active; 'I' for Inactive)
REMARK    1  A    between atoms: C_1  and  C_2
REMARK    2  A    between atoms: C_2  and  C_3
REMARK    3  A    between atoms: C_6  and  C_7
REMARK    4  A    between atoms: C_7  and  O_8
REMARK    5  A    between atoms: C_7  and  C_9
REMARK    6  A    between atoms: C_7  and  C_12
REMARK    7  A    between atoms: C_9  and  C_10
REMARK    8  A    between atoms: C_9  and  C_11
REMARK    9  A    between atoms: C_12  and  C_13
REMARK   10  A    between atoms: C_12  and  C_20
REMARK   11  A    between atoms: C_13  and  N_14
REMARK                            x       y       z     vdW  Elec       q    Type
REMARK                         _______ _______ _______ _____ _____    ______ ____
ROOT
ATOM      1  C   UNL     1       5.329   6.396  17.292  0.00  0.00    +0.000 C 
ENDROOT
BRANCH   1   5
ATOM      2  C   UNL     1       1.808   7.808  19.651  0.00  0.00    +0.000 A 
ATOM      3  C   UNL     1       2.103   8.385  18.403  0.00  0.00    +0.000 A 
ATOM      4  C   UNL     1       3.172   7.906  17.613  0.00  0.00    +0.000 A 
ATOM      5  C   UNL     1       4.007   6.841  18.054  0.00  0.00    +0.000 A 
ATOM      6  C   UNL     1       3.633   6.230  19.282  0.00  0.00    +0.000 A 
ATOM      7  C   UNL     1       2.566   6.703  20.054  0.00  0.00    +0.000 A 
BRANCH   2   9
ATOM      8  C   UNL     1       1.308   8.963  21.936  0.00  0.00    +0.000 C 
ATOM      9  C   UNL     1       0.785   8.411  20.609  0.00  0.00    +0.000 C 
ENDBRANCH   2   9
ENDBRANCH   1   5
BRANCH   1  10
ATOM     10  C   UNL     1       6.658   6.586  18.157  0.00  0.00    +0.000 C 
ATOM     11  C   UNL     1       7.394   5.282  18.534  0.00  0.00    +0.000 C 
ATOM     12  C   UNL     1       7.660   7.581  17.560  0.00  0.00    +0.000 C 
ENDBRANCH   1  10
BRANCH   1  13
ATOM     13  O   UNL     1       5.432   7.173  16.127  0.00  0.00    +0.000 OA
ATOM     14  H   UNL     1       5.685   8.103  16.322  0.00  0.00    +0.000 HD
ENDBRANCH   1  13
BRANCH   1  15
ATOM     15  C   UNL     1       5.228   4.880  16.764  0.00  0.00    +0.000 C 
BRANCH  15  16
ATOM     16  C   UNL     1       5.752   4.534  15.349  0.00  0.00    +0.000 A 
ATOM     17  C   UNL     1       4.824   3.949  14.443  0.00  0.00    +0.000 A 
ATOM     18  C   UNL     1       5.183   3.655  13.125  0.00  0.00    +0.000 A 
ATOM     19  C   UNL     1       6.468   3.940  12.673  0.00  0.00    +0.000 A 
ATOM     20  C   UNL     1       7.403   4.495  13.545  0.00  0.00    +0.000 A 
ATOM     21  C   UNL     1       7.056   4.774  14.871  0.00  0.00    +0.000 A 
ENDBRANCH  15  16
BRANCH  15  22
ATOM     22  C   UNL     1       3.858   4.129  16.991  0.00  0.00    +0.000 C 
BRANCH  22  23
ATOM     23  N   UNL     1       3.885   2.768  17.621  0.00  0.00    +0.000 NA
ATOM     24  C   UNL     1       2.575   2.083  17.520  0.00  0.00    +0.000 C 
ATOM     25  C   UNL     1       1.606   2.503  18.658  0.00  0.00    +0.000 C 
ATOM     26  O   UNL     1       2.182   2.300  19.931  0.00  0.00    +0.000 OA
ATOM     27  C   UNL     1       3.350   3.085  20.039  0.00  0.00    +0.000 C 
ATOM     28  C   UNL     1       4.373   2.618  19.005  0.00  0.00    +0.000 C 
ENDBRANCH  22  23
ENDBRANCH  15  22
ENDBRANCH   1  15
TORSDOF 8
ENDMDL
MODEL 7
REMARK VINA RESULT:      -7.0      1.811      4.298
REMARK  Name = 
REMARK  11 active torsions:
REMARK  status: ('A' for Active; 'I' for Inactive)
REMARK    1  A    between atoms: C_1  and  C_2
REMARK    2  A    between atoms: C_2  and  C_3
REMARK    3  A    between atoms: C_6  and  C_7
REMARK    4  A    between atoms: C_7  and  O_8
REMARK    5  A    between atoms: C_7  and  C_9
REMARK    6  A    between atoms: C_7  and  C_12
REMARK    7  A    between atoms: C_9  and  C_10
REMARK    8  A    between atoms: C_9  and  C_11
REMARK    9  A    between atoms: C_12  and  C_13
REMARK   10  A    between atoms: C_12  and  C_20
REMARK   11  A    between atoms: C_13  and  N_14
REMARK                            x       y       z     vdW  Elec       q    Type
REMARK                         _______ _______ _______ _____ _____    ______ ____
ROOT
ATOM      1  C   UNL     1       5.607   5.903  16.531  0.00  0.00    +0.000 C 
ENDROOT
BRANCH   1   5
ATOM      2  C   UNL     1       8.440   8.641  18.638  0.00  0.00    +0.000 A 
ATOM      3  C   UNL     1       8.421   7.268  18.943  0.00  0.00    +0.000 A 
ATOM      4  C   UNL     1       7.580   6.377  18.240  0.00  0.00    +0.000 A 
ATOM      5  C   UNL     1       6.702   6.830  17.215  0.00  0.00    +0.000 A 
ATOM      6  C   UNL     1       6.803   8.207  16.879  0.00  0.00    +0.000 A 
ATOM      7  C   UNL     1       7.647   9.083  17.573  0.00  0.00    +0.000 A 
BRANCH   2   9
ATOM      8  C   UNL     1       9.437  11.040  18.879  0.00  0.00    +0.000 C 
ATOM      9  C   UNL     1       9.194   9.658  19.489  0.00  0.00    +0.000 C 
ENDBRANCH   2   9
ENDBRANCH   1   5
BRANCH   1  10
ATOM     10  C   UNL     1       6.213   4.582  15.870  0.00  0.00    +0.000 C 
ATOM     11  C   UNL     1       5.191   3.674  15.152  0.00  0.00    +0.000 C 
ATOM     12  C   UNL     1       7.409   4.832  14.944  0.00  0.00    +0.000 C 
ENDBRANCH   1  10
BRANCH   1  13
ATOM     13  O   UNL     1       4.973   6.660  15.531  0.00  0.00    +0.000 OA
ATOM     14  H   UNL     1       5.578   7.320  15.126  0.00  0.00    +0.000 HD
ENDBRANCH   1  13
BRANCH   1  15
ATOM     15  C   UNL     1       4.431   5.517  17.558  0.00  0.00    +0.000 C 
BRANCH  15  16
ATOM     16  C   UNL     1       3.470   6.622  18.060  0.00  0.00    +0.000 A 
ATOM     17  C   UNL     1       2.942   6.470  19.372  0.00  0.00    +0.000 A 
ATOM     18  C   UNL     1       2.113   7.443  19.938  0.00  0.00    +0.000 A 
ATOM     19  C   UNL     1       1.793   8.591  19.218  0.00  0.00    +0.000 A 
ATOM     20  C   UNL     1       2.281   8.755  17.922  0.00  0.00    +0.000 A 
ATOM     21  C   UNL     1       3.095   7.777  17.343  0.00  0.00    +0.000 A 
ENDBRANCH  15  16
BRANCH  15  22
ATOM     22  C   UNL     1       4.817   4.594  18.779  0.00  0.00    +0.000 C 
BRANCH  22  23
ATOM     23  N   UNL     1       4.421   3.148  18.735  0.00  0.00    +0.000 NA
ATOM     24  C   UNL     1       3.190   2.933  17.939  0.00  0.00    +0.000 C 
ATOM     25  C   UNL     1       1.903   3.176  18.774  0.00  0.00    +0.000 C 
ATOM     26  O   UNL     1       1.888   2.388  19.945  0.00  0.00    +0.000 OA
ATOM     27  C   UNL     1       3.000   2.730  20.744  0.00  0.00    +0.000 C 
ATOM     28  C   UNL     1       4.288   2.393  19.995  0.00  0.00    +0.000 C 
ENDBRANCH  22  23
ENDBRANCH  15  22
ENDBRANCH   1  15
TORSDOF 8
ENDMDL
MODEL 8
REMARK VINA RESULT:      -6.8      0.954      1.681
REMARK  Name = 
REMARK  11 active torsions:
REMARK  status: ('A' for Active; 'I' for Inactive)
REMARK    1  A    between atoms: C_1  and  C_2
REMARK    2  A    between atoms: C_2  and  C_3
REMARK    3  A    between atoms: C_6  and  C_7
REMARK    4  A    between atoms: C_7  and  O_8
REMARK    5  A    between atoms: C_7  and  C_9
REMARK    6  A    between atoms: C_7  and  C_12
REMARK    7  A    between atoms: C_9  and  C_10
REMARK    8  A    between atoms: C_9  and  C_11
REMARK    9  A    between atoms: C_12  and  C_13
REMARK   10  A    between atoms: C_12  and  C_20
REMARK   11  A    between atoms: C_13  and  N_14
REMARK                            x       y       z     vdW  Elec       q    Type
REMARK                         _______ _______ _______ _____ _____    ______ ____
ROOT
ATOM      1  C   UNL     1       5.897   5.044  18.016  0.00  0.00    +0.000 C 
ENDROOT
BRANCH   1   5
ATOM      2  C   UNL     1       6.167   4.111  13.656  0.00  0.00    +0.000 A 
ATOM      3  C   UNL     1       4.928   4.050  14.318  0.00  0.00    +0.000 A 
ATOM      4  C   UNL     1       4.812   4.406  15.680  0.00  0.00    +0.000 A 
ATOM      5  C   UNL     1       5.941   4.817  16.444  0.00  0.00    +0.000 A 
ATOM      6  C   UNL     1       7.161   4.942  15.724  0.00  0.00    +0.000 A 
ATOM      7  C   UNL     1       7.267   4.597  14.371  0.00  0.00    +0.000 A 
BRANCH   2   9
ATOM      8  C   UNL     1       5.288   2.630  11.696  0.00  0.00    +0.000 C 
ATOM      9  C   UNL     1       6.368   3.564  12.245  0.00  0.00    +0.000 C 
ENDBRANCH   2   9
ENDBRANCH   1   5
BRANCH   1  10
ATOM     10  C   UNL     1       6.676   6.353  18.494  0.00  0.00    +0.000 C 
ATOM     11  C   UNL     1       7.973   6.096  19.291  0.00  0.00    +0.000 C 
ATOM     12  C   UNL     1       6.959   7.361  17.374  0.00  0.00    +0.000 C 
ENDBRANCH   1  10
BRANCH   1  13
ATOM     13  O   UNL     1       6.481   3.921  18.626  0.00  0.00    +0.000 OA
ATOM     14  H   UNL     1       6.622   3.185  17.989  0.00  0.00    +0.000 HD
ENDBRANCH   1  13
BRANCH   1  15
ATOM     15  C   UNL     1       4.387   5.068  18.569  0.00  0.00    +0.000 C 
BRANCH  15  16
ATOM     16  C   UNL     1       3.581   6.390  18.515  0.00  0.00    +0.000 A 
ATOM     17  C   UNL     1       3.700   7.170  17.332  0.00  0.00    +0.000 A 
ATOM     18  C   UNL     1       2.967   8.348  17.163  0.00  0.00    +0.000 A 
ATOM     19  C   UNL     1       2.096   8.776  18.160  0.00  0.00    +0.000 A 
ATOM     20  C   UNL     1       1.975   8.041  19.338  0.00  0.00    +0.000 A 
ATOM     21  C   UNL     1       2.719   6.871  19.522  0.00  0.00    +0.000 A 
ENDBRANCH  15  16
BRANCH  15  22
ATOM     22  C   UNL     1       4.118   4.373  19.961  0.00  0.00    +0.000 C 
BRANCH  22  23
ATOM     23  N   UNL     1       3.154   3.226  20.012  0.00  0.00    +0.000 NA
ATOM     24  C   UNL     1       3.735   2.040  20.685  0.00  0.00    +0.000 C 
ATOM     25  C   UNL     1       4.586   1.176  19.715  0.00  0.00    +0.000 C 
ATOM     26  O   UNL     1       3.847   0.794  18.575  0.00  0.00    +0.000 OA
ATOM     27  C   UNL     1       3.436   1.953  17.883  0.00  0.00    +0.000 C 
ATOM     28  C   UNL     1       2.500   2.771  18.771  0.00  0.00    +0.000 C 
ENDBRANCH  22  23
ENDBRANCH  15  22
ENDBRANCH   1  15
TORSDOF 8
ENDMDL
MODEL 9
REMARK VINA RESULT:      -6.7      5.934      9.026
REMARK  Name = 
REMARK  11 active torsions:
REMARK  status: ('A' for Active; 'I' for Inactive)
REMARK    1  A    between atoms: C_1  and  C_2
REMARK    2  A    between atoms: C_2  and  C_3
REMARK    3  A    between atoms: C_6  and  C_7
REMARK    4  A    between atoms: C_7  and  O_8
REMARK    5  A    between atoms: C_7  and  C_9
REMARK    6  A    between atoms: C_7  and  C_12
REMARK    7  A    between atoms: C_9  and  C_10
REMARK    8  A    between atoms: C_9  and  C_11
REMARK    9  A    between atoms: C_12  and  C_13
REMARK   10  A    between atoms: C_12  and  C_20
REMARK   11  A    between atoms: C_13  and  N_14
REMARK                            x       y       z     vdW  Elec       q    Type
REMARK                         _______ _______ _______ _____ _____    ______ ____
ROOT
ATOM      1  C   UNL     1       0.399  11.225  19.618  0.00  0.00    +0.000 C 
ENDROOT
BRANCH   1   5
ATOM      2  C   UNL     1       2.410   7.261  19.177  0.00  0.00    +0.000 A 
ATOM      3  C   UNL     1       1.791   7.611  20.390  0.00  0.00    +0.000 A 
ATOM      4  C   UNL     1       1.093   8.831  20.526  0.00  0.00    +0.000 A 
ATOM      5  C   UNL     1       1.007   9.766  19.456  0.00  0.00    +0.000 A 
ATOM      6  C   UNL     1       1.575   9.346  18.223  0.00  0.00    +0.000 A 
ATOM      7  C   UNL     1       2.257   8.130  18.092  0.00  0.00    +0.000 A 
BRANCH   2   9
ATOM      8  C   UNL     1       3.400   5.373  17.672  0.00  0.00    +0.000 C 
ATOM      9  C   UNL     1       3.321   6.044  19.045  0.00  0.00    +0.000 C 
ENDBRANCH   2   9
ENDBRANCH   1   5
BRANCH   1  10
ATOM     10  C   UNL     1       0.829  12.228  18.451  0.00  0.00    +0.000 C 
ATOM     11  C   UNL     1       0.038  13.553  18.394  0.00  0.00    +0.000 C 
ATOM     12  C   UNL     1       2.331  12.530  18.402  0.00  0.00    +0.000 C 
ENDBRANCH   1  10
BRANCH   1  13
ATOM     13  O   UNL     1       0.848  11.740  20.845  0.00  0.00    +0.000 OA
ATOM     14  H   UNL     1       0.471  11.254  21.612  0.00  0.00    +0.000 HD
ENDBRANCH   1  13
BRANCH   1  15
ATOM     15  C   UNL     1      -1.203  11.190  19.752  0.00  0.00    +0.000 C 
BRANCH  15  16
ATOM     16  C   UNL     1      -2.064  10.929  18.492  0.00  0.00    +0.000 A 
ATOM     17  C   UNL     1      -3.277  11.662  18.376  0.00  0.00    +0.000 A 
ATOM     18  C   UNL     1      -4.094  11.541  17.249  0.00  0.00    +0.000 A 
ATOM     19  C   UNL     1      -3.723  10.696  16.207  0.00  0.00    +0.000 A 
ATOM     20  C   UNL     1      -2.548   9.951  16.303  0.00  0.00    +0.000 A 
ATOM     21  C   UNL     1      -1.736  10.053  17.437  0.00  0.00    +0.000 A 
ENDBRANCH  15  16
BRANCH  15  22
ATOM     22  C   UNL     1      -1.881  12.341  20.594  0.00  0.00    +0.000 C 
BRANCH  22  23
ATOM     23  N   UNL     1      -2.292  12.046  22.006  0.00  0.00    +0.000 NA
ATOM     24  C   UNL     1      -3.614  12.630  22.333  0.00  0.00    +0.000 C 
ATOM     25  C   UNL     1      -3.505  14.119  22.760  0.00  0.00    +0.000 C 
ATOM     26  O   UNL     1      -2.603  14.287  23.833  0.00  0.00    +0.000 OA
ATOM     27  C   UNL     1      -1.322  13.854  23.428  0.00  0.00    +0.000 C 
ATOM     28  C   UNL     1      -1.367  12.360  23.112  0.00  0.00    +0.000 C 
ENDBRANCH  22  23
ENDBRANCH  15  22
ENDBRANCH   1  15
TORSDOF 8
ENDMDL
