MODEL 1
REMARK VINA RESULT:      -7.5      0.000      0.000
REMARK  Name = 
REMARK  8 active torsions:
REMARK  status: ('A' for Active; 'I' for Inactive)
REMARK    1  A    between atoms: C_1  and  C_2
REMARK    2  A    between atoms: C_2  and  C_3
REMARK    3  A    between atoms: C_5  and  N_6
REMARK    4  A    between atoms: N_6  and  C_7
REMARK    5  A    between atoms: N_6  and  C_8
REMARK    6  A    between atoms: N_13  and  C_14
REMARK    7  A    between atoms: C_14  and  C_15
REMARK    8  A    between atoms: C_14  and  C_16
REMARK                            x       y       z     vdW  Elec       q    Type
REMARK                         _______ _______ _______ _____ _____    ______ ____
ROOT
ATOM      1  C   UNL     1       2.583   4.812  20.398  0.00  0.00    +0.000 A 
ATOM      2  C   UNL     1       2.025   6.104  20.553  0.00  0.00    +0.000 A 
ATOM      3  C   UNL     1       2.178   7.126  19.603  0.00  0.00    +0.000 A 
ATOM      4  C   UNL     1       2.928   6.791  18.466  0.00  0.00    +0.000 A 
ATOM      5  C   UNL     1       3.519   5.532  18.289  0.00  0.00    +0.000 A 
ATOM      6  N   UNL     1       4.214   5.294  17.103  0.00  0.00    +0.000 NA
ATOM      7  C   UNL     1       4.609   4.090  16.872  0.00  0.00    +0.000 A 
ATOM      8  N   UNL     1       5.224   3.683  15.726  0.00  0.00    +0.000 N 
ATOM      9  O   UNL     1       4.493   3.054  17.725  0.00  0.00    +0.000 OA
ATOM     10  C   UNL     1       4.041   3.269  18.985  0.00  0.00    +0.000 A 
ATOM     11  O   UNL     1       4.179   2.405  19.844  0.00  0.00    +0.000 OA
ATOM     12  C   UNL     1       3.362   4.552  19.258  0.00  0.00    +0.000 A 
ATOM     13  H   UNL     1       5.426   2.694  15.657  0.00  0.00    +0.000 HD
ENDROOT
BRANCH   3  14
ATOM     14  N   UNL     1       1.600   8.376  19.748  0.00  0.00    +0.000 N 
ATOM     15  C   UNL     1       0.984   8.790  21.006  0.00  0.00    +0.000 C 
ATOM     16  C   UNL     1       1.407   9.295  18.632  0.00  0.00    +0.000 C 
ENDBRANCH   3  14
BRANCH   8  17
ATOM     17  C   UNL     1       5.826   4.575  14.758  0.00  0.00    +0.000 C 
ATOM     18  C   UNL     1       7.209   4.989  15.257  0.00  0.00    +0.000 C 
ATOM     19  C   UNL     1       5.929   3.886  13.402  0.00  0.00    +0.000 C 
ENDBRANCH   8  17
BRANCH   1  21
ATOM     20  C   UNL     1       1.086   2.905  21.110  0.00  0.00    +0.000 C 
ATOM     21  C   UNL     1       2.276   3.783  21.464  0.00  0.00    +0.000 C 
ENDBRANCH   1  21
TORSDOF 3
ENDMDL
MODEL 2
REMARK VINA RESULT:      -7.2      3.032      4.697
REMARK  Name = 
REMARK  8 active torsions:
REMARK  status: ('A' for Active; 'I' for Inactive)
REMARK    1  A    between atoms: C_1  and  C_2
REMARK    2  A    between atoms: C_2  and  C_3
REMARK    3  A    between atoms: C_5  and  N_6
REMARK    4  A    between atoms: N_6  and  C_7
REMARK    5  A    between atoms: N_6  and  C_8
REMARK    6  A    between atoms: N_13  and  C_14
REMARK    7  A    between atoms: C_14  and  C_15
REMARK    8  A    between atoms: C_14  and  C_16
REMARK                            x       y       z     vdW  Elec       q    Type
REMARK                         _______ _______ _______ _____ _____    ______ ____
ROOT
ATOM      1  C   UNL     1       6.075   5.347  18.112  0.00  0.00    +0.000 A 
ATOM      2  C   UNL     1       5.056   4.861  18.968  0.00  0.00    +0.000 A 
ATOM      3  C   UNL     1       4.079   3.942  18.553  0.00  0.00    +0.000 A 
ATOM      4  C   UNL     1       4.168   3.521  17.219  0.00  0.00    +0.000 A 
ATOM      5  C   UNL     1       5.144   4.001  16.333  0.00  0.00    +0.000 A 
ATOM      6  N   UNL     1       5.163   3.488  15.036  0.00  0.00    +0.000 NA
ATOM      7  C   UNL     1       6.157   3.804  14.282  0.00  0.00    +0.000 A 
ATOM      8  N   UNL     1       6.361   3.319  13.025  0.00  0.00    +0.000 N 
ATOM      9  O   UNL     1       7.139   4.667  14.607  0.00  0.00    +0.000 OA
ATOM     10  C   UNL     1       7.054   5.379  15.758  0.00  0.00    +0.000 A 
ATOM     11  O   UNL     1       7.785   6.346  15.938  0.00  0.00    +0.000 OA
ATOM     12  C   UNL     1       6.083   4.922  16.773  0.00  0.00    +0.000 A 
ATOM     13  H   UNL     1       7.218   3.608  12.570  0.00  0.00    +0.000 HD
ENDROOT
BRANCH   3  14
ATOM     14  N   UNL     1       3.108   3.447  19.407  0.00  0.00    +0.000 N 
ATOM     15  C   UNL     1       2.529   2.119  19.217  0.00  0.00    +0.000 C 
ATOM     16  C   UNL     1       2.472   4.257  20.440  0.00  0.00    +0.000 C 
ENDBRANCH   3  14
BRANCH   8  17
ATOM     17  C   UNL     1       5.348   2.663  12.225  0.00  0.00    +0.000 C 
ATOM     18  C   UNL     1       4.564   3.722  11.452  0.00  0.00    +0.000 C 
ATOM     19  C   UNL     1       5.996   1.670  11.268  0.00  0.00    +0.000 C 
ENDBRANCH   8  17
BRANCH   1  21
ATOM     20  C   UNL     1       8.143   5.541  19.550  0.00  0.00    +0.000 C 
ATOM     21  C   UNL     1       7.109   6.275  18.710  0.00  0.00    +0.000 C 
ENDBRANCH   1  21
TORSDOF 3
ENDMDL
MODEL 3
REMARK VINA RESULT:      -6.8      1.840      5.861
REMARK  Name = 
REMARK  8 active torsions:
REMARK  status: ('A' for Active; 'I' for Inactive)
REMARK    1  A    between atoms: C_1  and  C_2
REMARK    2  A    between atoms: C_2  and  C_3
REMARK    3  A    between atoms: C_5  and  N_6
REMARK    4  A    between atoms: N_6  and  C_7
REMARK    5  A    between atoms: N_6  and  C_8
REMARK    6  A    between atoms: N_13  and  C_14
REMARK    7  A    between atoms: C_14  and  C_15
REMARK    8  A    between atoms: C_14  and  C_16
REMARK                            x       y       z     vdW  Elec       q    Type
REMARK                         _______ _______ _______ _____ _____    ______ ____
ROOT
ATOM      1  C   UNL     1       3.325   3.537  17.866  0.00  0.00    +0.000 A 
ATOM      2  C   UNL     1       4.450   3.893  17.083  0.00  0.00    +0.000 A 
ATOM      3  C   UNL     1       5.015   5.179  17.090  0.00  0.00    +0.000 A 
ATOM      4  C   UNL     1       4.395   6.110  17.935  0.00  0.00    +0.000 A 
ATOM      5  C   UNL     1       3.263   5.803  18.705  0.00  0.00    +0.000 A 
ATOM      6  N   UNL     1       2.747   6.796  19.539  0.00  0.00    +0.000 NA
ATOM      7  C   UNL     1       1.818   6.461  20.364  0.00  0.00    +0.000 A 
ATOM      8  N   UNL     1       1.272   7.292  21.296  0.00  0.00    +0.000 N 
ATOM      9  O   UNL     1       1.230   5.250  20.427  0.00  0.00    +0.000 OA
ATOM     10  C   UNL     1       1.519   4.313  19.491  0.00  0.00    +0.000 A 
ATOM     11  O   UNL     1       0.810   3.320  19.374  0.00  0.00    +0.000 OA
ATOM     12  C   UNL     1       2.721   4.527  18.659  0.00  0.00    +0.000 A 
ATOM     13  H   UNL     1       0.591   6.876  21.918  0.00  0.00    +0.000 HD
ENDROOT
BRANCH   3  14
ATOM     14  N   UNL     1       6.135   5.507  16.346  0.00  0.00    +0.000 N 
ATOM     15  C   UNL     1       7.133   6.451  16.845  0.00  0.00    +0.000 C 
ATOM     16  C   UNL     1       6.321   5.084  14.963  0.00  0.00    +0.000 C 
ENDBRANCH   3  14
BRANCH   8  17
ATOM     17  C   UNL     1       1.398   8.734  21.281  0.00  0.00    +0.000 C 
ATOM     18  C   UNL     1       0.520   9.296  20.164  0.00  0.00    +0.000 C 
ATOM     19  C   UNL     1       0.985   9.311  22.630  0.00  0.00    +0.000 C 
ENDBRANCH   8  17
BRANCH   1  21
ATOM     20  C   UNL     1       3.753   1.169  18.637  0.00  0.00    +0.000 C 
ATOM     21  C   UNL     1       2.867   2.096  17.820  0.00  0.00    +0.000 C 
ENDBRANCH   1  21
TORSDOF 3
ENDMDL
MODEL 4
REMARK VINA RESULT:      -6.7      0.414      1.114
REMARK  Name = 
REMARK  8 active torsions:
REMARK  status: ('A' for Active; 'I' for Inactive)
REMARK    1  A    between atoms: C_1  and  C_2
REMARK    2  A    between atoms: C_2  and  C_3
REMARK    3  A    between atoms: C_5  and  N_6
REMARK    4  A    between atoms: N_6  and  C_7
REMARK    5  A    between atoms: N_6  and  C_8
REMARK    6  A    between atoms: N_13  and  C_14
REMARK    7  A    between atoms: C_14  and  C_15
REMARK    8  A    between atoms: C_14  and  C_16
REMARK                            x       y       z     vdW  Elec       q    Type
REMARK                         _______ _______ _______ _____ _____    ______ ____
ROOT
ATOM      1  C   UNL     1       2.581   4.769  20.505  0.00  0.00    +0.000 A 
ATOM      2  C   UNL     1       1.991   6.054  20.588  0.00  0.00    +0.000 A 
ATOM      3  C   UNL     1       2.199   7.059  19.630  0.00  0.00    +0.000 A 
ATOM      4  C   UNL     1       3.040   6.715  18.562  0.00  0.00    +0.000 A 
ATOM      5  C   UNL     1       3.665   5.464  18.458  0.00  0.00    +0.000 A 
ATOM      6  N   UNL     1       4.454   5.215  17.335  0.00  0.00    +0.000 NA
ATOM      7  C   UNL     1       4.886   4.015  17.161  0.00  0.00    +0.000 A 
ATOM      8  N   UNL     1       5.595   3.597  16.075  0.00  0.00    +0.000 N 
ATOM      9  O   UNL     1       4.722   2.995  18.025  0.00  0.00    +0.000 OA
ATOM     10  C   UNL     1       4.170   3.226  19.241  0.00  0.00    +0.000 A 
ATOM     11  O   UNL     1       4.256   2.382  20.127  0.00  0.00    +0.000 OA
ATOM     12  C   UNL     1       3.450   4.501  19.433  0.00  0.00    +0.000 A 
ATOM     13  H   UNL     1       5.820   2.610  16.044  0.00  0.00    +0.000 HD
ENDROOT
BRANCH   3  14
ATOM     14  N   UNL     1       1.590   8.300  19.703  0.00  0.00    +0.000 N 
ATOM     15  C   UNL     1       1.573   9.211  18.562  0.00  0.00    +0.000 C 
ATOM     16  C   UNL     1       1.077   8.860  20.949  0.00  0.00    +0.000 C 
ENDBRANCH   3  14
BRANCH   8  17
ATOM     17  C   UNL     1       6.255   4.480  15.137  0.00  0.00    +0.000 C 
ATOM     18  C   UNL     1       6.254   3.826  13.756  0.00  0.00    +0.000 C 
ATOM     19  C   UNL     1       5.542   5.826  15.094  0.00  0.00    +0.000 C 
ENDBRANCH   8  17
BRANCH   1  21
ATOM     20  C   UNL     1       1.060   2.855  21.143  0.00  0.00    +0.000 C 
ATOM     21  C   UNL     1       2.210   3.757  21.565  0.00  0.00    +0.000 C 
ENDBRANCH   1  21
TORSDOF 3
ENDMDL
MODEL 5
REMARK VINA RESULT:      -6.7      0.861      1.231
REMARK  Name = 
REMARK  8 active torsions:
REMARK  status: ('A' for Active; 'I' for Inactive)
REMARK    1  A    between atoms: C_1  and  C_2
REMARK    2  A    between atoms: C_2  and  C_3
REMARK    3  A    between atoms: C_5  and  N_6
REMARK    4  A    between atoms: N_6  and  C_7
REMARK    5  A    between atoms: N_6  and  C_8
REMARK    6  A    between atoms: N_13  and  C_14
REMARK    7  A    between atoms: C_14  and  C_15
REMARK    8  A    between atoms: C_14  and  C_16
REMARK                            x       y       z     vdW  Elec       q    Type
REMARK                         _______ _______ _______ _____ _____    ______ ____
ROOT
ATOM      1  C   UNL     1       1.882   4.232  19.801  0.00  0.00    +0.000 A 
ATOM      2  C   UNL     1       1.528   5.557  20.155  0.00  0.00    +0.000 A 
ATOM      3  C   UNL     1       2.186   6.689  19.649  0.00  0.00    +0.000 A 
ATOM      4  C   UNL     1       3.234   6.432  18.753  0.00  0.00    +0.000 A 
ATOM      5  C   UNL     1       3.633   5.135  18.400  0.00  0.00    +0.000 A 
ATOM      6  N   UNL     1       4.665   4.995  17.472  0.00  0.00    +0.000 NA
ATOM      7  C   UNL     1       4.913   3.813  17.026  0.00  0.00    +0.000 A 
ATOM      8  N   UNL     1       5.829   3.526  16.059  0.00  0.00    +0.000 N 
ATOM      9  O   UNL     1       4.321   2.680  17.451  0.00  0.00    +0.000 OA
ATOM     10  C   UNL     1       3.480   2.718  18.514  0.00  0.00    +0.000 A 
ATOM     11  O   UNL     1       3.148   1.680  19.074  0.00  0.00    +0.000 OA
ATOM     12  C   UNL     1       2.970   4.039  18.933  0.00  0.00    +0.000 A 
ATOM     13  H   UNL     1       5.876   2.559  15.764  0.00  0.00    +0.000 HD
ENDROOT
BRANCH   3  14
ATOM     14  N   UNL     1       1.810   7.981  19.975  0.00  0.00    +0.000 N 
ATOM     15  C   UNL     1       1.366   8.330  21.322  0.00  0.00    +0.000 C 
ATOM     16  C   UNL     1       1.662   9.038  18.981  0.00  0.00    +0.000 C 
ENDBRANCH   3  14
BRANCH   8  17
ATOM     17  C   UNL     1       6.883   4.423  15.637  0.00  0.00    +0.000 C 
ATOM     18  C   UNL     1       6.515   5.016  14.278  0.00  0.00    +0.000 C 
ATOM     19  C   UNL     1       7.077   5.528  16.669  0.00  0.00    +0.000 C 
ENDBRANCH   8  17
BRANCH   1  21
ATOM     20  C   UNL     1       1.466   2.692  21.761  0.00  0.00    +0.000 C 
ATOM     21  C   UNL     1       1.039   3.108  20.361  0.00  0.00    +0.000 C 
ENDBRANCH   1  21
TORSDOF 3
ENDMDL
MODEL 6
REMARK VINA RESULT:      -6.5      1.875      5.885
REMARK  Name = 
REMARK  8 active torsions:
REMARK  status: ('A' for Active; 'I' for Inactive)
REMARK    1  A    between atoms: C_1  and  C_2
REMARK    2  A    between atoms: C_2  and  C_3
REMARK    3  A    between atoms: C_5  and  N_6
REMARK    4  A    between atoms: N_6  and  C_7
REMARK    5  A    between atoms: N_6  and  C_8
REMARK    6  A    between atoms: N_13  and  C_14
REMARK    7  A    between atoms: C_14  and  C_15
REMARK    8  A    between atoms: C_14  and  C_16
REMARK                            x       y       z     vdW  Elec       q    Type
REMARK                         _______ _______ _______ _____ _____    ______ ____
ROOT
ATOM      1  C   UNL     1       3.413   4.032  18.889  0.00  0.00    +0.000 A 
ATOM      2  C   UNL     1       4.375   4.107  17.853  0.00  0.00    +0.000 A 
ATOM      3  C   UNL     1       4.722   5.307  17.212  0.00  0.00    +0.000 A 
ATOM      4  C   UNL     1       4.051   6.453  17.664  0.00  0.00    +0.000 A 
ATOM      5  C   UNL     1       3.072   6.415  18.667  0.00  0.00    +0.000 A 
ATOM      6  N   UNL     1       2.492   7.620  19.065  0.00  0.00    +0.000 NA
ATOM      7  C   UNL     1       1.722   7.602  20.096  0.00  0.00    +0.000 A 
ATOM      8  N   UNL     1       1.150   8.705  20.655  0.00  0.00    +0.000 N 
ATOM      9  O   UNL     1       1.349   6.497  20.770  0.00  0.00    +0.000 OA
ATOM     10  C   UNL     1       1.686   5.273  20.296  0.00  0.00    +0.000 A 
ATOM     11  O   UNL     1       1.139   4.269  20.738  0.00  0.00    +0.000 OA
ATOM     12  C   UNL     1       2.742   5.208  19.266  0.00  0.00    +0.000 A 
ATOM     13  H   UNL     1       0.615   8.548  21.500  0.00  0.00    +0.000 HD
ENDROOT
BRANCH   3  14
ATOM     14  N   UNL     1       5.690   5.375  16.224  0.00  0.00    +0.000 N 
ATOM     15  C   UNL     1       5.490   4.755  14.916  0.00  0.00    +0.000 C 
ATOM     16  C   UNL     1       7.027   5.907  16.459  0.00  0.00    +0.000 C 
ENDBRANCH   3  14
BRANCH   8  17
ATOM     17  C   UNL     1       1.038   9.991  20.000  0.00  0.00    +0.000 C 
ATOM     18  C   UNL     1      -0.138   9.949  19.025  0.00  0.00    +0.000 C 
ATOM     19  C   UNL     1       0.837  11.091  21.035  0.00  0.00    +0.000 C 
ENDBRANCH   8  17
BRANCH   1  21
ATOM     20  C   UNL     1       3.439   1.522  18.597  0.00  0.00    +0.000 C 
ATOM     21  C   UNL     1       3.192   2.686  19.544  0.00  0.00    +0.000 C 
ENDBRANCH   1  21
TORSDOF 3
ENDMDL
MODEL 7
REMARK VINA RESULT:      -6.5      2.362      3.995
REMARK  Name = 
REMARK  8 active torsions:
REMARK  status: ('A' for Active; 'I' for Inactive)
REMARK    1  A    between atoms: C_1  and  C_2
REMARK    2  A    between atoms: C_2  and  C_3
REMARK    3  A    between atoms: C_5  and  N_6
REMARK    4  A    between atoms: N_6  and  C_7
REMARK    5  A    between atoms: N_6  and  C_8
REMARK    6  A    between atoms: N_13  and  C_14
REMARK    7  A    between atoms: C_14  and  C_15
REMARK    8  A    between atoms: C_14  and  C_16
REMARK                            x       y       z     vdW  Elec       q    Type
REMARK                         _______ _______ _______ _____ _____    ______ ____
ROOT
ATOM      1  C   UNL     1       2.917   6.189  19.261  0.00  0.00    +0.000 A 
ATOM      2  C   UNL     1       2.789   5.055  20.100  0.00  0.00    +0.000 A 
ATOM      3  C   UNL     1       3.426   3.831  19.839  0.00  0.00    +0.000 A 
ATOM      4  C   UNL     1       4.214   3.792  18.680  0.00  0.00    +0.000 A 
ATOM      5  C   UNL     1       4.343   4.884  17.810  0.00  0.00    +0.000 A 
ATOM      6  N   UNL     1       5.182   4.747  16.703  0.00  0.00    +0.000 NA
ATOM      7  C   UNL     1       5.428   5.800  16.005  0.00  0.00    +0.000 A 
ATOM      8  N   UNL     1       6.288   5.845  14.949  0.00  0.00    +0.000 N 
ATOM      9  O   UNL     1       4.867   7.010  16.195  0.00  0.00    +0.000 OA
ATOM     10  C   UNL     1       3.870   7.154  17.102  0.00  0.00    +0.000 A 
ATOM     11  O   UNL     1       3.177   8.165  17.099  0.00  0.00    +0.000 OA
ATOM     12  C   UNL     1       3.685   6.072  18.091  0.00  0.00    +0.000 A 
ATOM     13  H   UNL     1       6.430   6.756  14.530  0.00  0.00    +0.000 HD
ENDROOT
BRANCH   3  14
ATOM     14  N   UNL     1       3.322   2.739  20.683  0.00  0.00    +0.000 N 
ATOM     15  C   UNL     1       2.183   2.577  21.585  0.00  0.00    +0.000 C 
ATOM     16  C   UNL     1       4.398   1.772  20.865  0.00  0.00    +0.000 C 
ENDBRANCH   3  14
BRANCH   8  17
ATOM     17  C   UNL     1       6.786   4.682  14.247  0.00  0.00    +0.000 C 
ATOM     18  C   UNL     1       5.610   3.962  13.587  0.00  0.00    +0.000 C 
ATOM     19  C   UNL     1       7.814   5.099  13.202  0.00  0.00    +0.000 C 
ENDBRANCH   8  17
BRANCH   1  21
ATOM     20  C   UNL     1       1.375   7.279  20.940  0.00  0.00    +0.000 C 
ATOM     21  C   UNL     1       2.238   7.467  19.702  0.00  0.00    +0.000 C 
ENDBRANCH   1  21
TORSDOF 3
ENDMDL
MODEL 8
REMARK VINA RESULT:      -6.3      2.541      5.879
REMARK  Name = 
REMARK  8 active torsions:
REMARK  status: ('A' for Active; 'I' for Inactive)
REMARK    1  A    between atoms: C_1  and  C_2
REMARK    2  A    between atoms: C_2  and  C_3
REMARK    3  A    between atoms: C_5  and  N_6
REMARK    4  A    between atoms: N_6  and  C_7
REMARK    5  A    between atoms: N_6  and  C_8
REMARK    6  A    between atoms: N_13  and  C_14
REMARK    7  A    between atoms: C_14  and  C_15
REMARK    8  A    between atoms: C_14  and  C_16
REMARK                            x       y       z     vdW  Elec       q    Type
REMARK                         _______ _______ _______ _____ _____    ______ ____
ROOT
ATOM      1  C   UNL     1       4.535   4.758  17.762  0.00  0.00    +0.000 A 
ATOM      2  C   UNL     1       3.977   3.717  18.542  0.00  0.00    +0.000 A 
ATOM      3  C   UNL     1       2.838   3.885  19.346  0.00  0.00    +0.000 A 
ATOM      4  C   UNL     1       2.270   5.167  19.333  0.00  0.00    +0.000 A 
ATOM      5  C   UNL     1       2.809   6.230  18.595  0.00  0.00    +0.000 A 
ATOM      6  N   UNL     1       2.143   7.456  18.626  0.00  0.00    +0.000 NA
ATOM      7  C   UNL     1       2.543   8.375  17.820  0.00  0.00    +0.000 A 
ATOM      8  N   UNL     1       1.945   9.591  17.672  0.00  0.00    +0.000 N 
ATOM      9  O   UNL     1       3.618   8.290  17.011  0.00  0.00    +0.000 OA
ATOM     10  C   UNL     1       4.445   7.220  17.104  0.00  0.00    +0.000 A 
ATOM     11  O   UNL     1       5.552   7.250  16.578  0.00  0.00    +0.000 OA
ATOM     12  C   UNL     1       3.946   6.032  17.826  0.00  0.00    +0.000 A 
ATOM     13  H   UNL     1       2.333  10.194  16.957  0.00  0.00    +0.000 HD
ENDROOT
BRANCH   3  14
ATOM     14  N   UNL     1       2.281   2.851  20.079  0.00  0.00    +0.000 N 
ATOM     15  C   UNL     1       1.428   1.844  19.452  0.00  0.00    +0.000 C 
ATOM     16  C   UNL     1       2.353   2.782  21.534  0.00  0.00    +0.000 C 
ENDBRANCH   3  14
BRANCH   8  17
ATOM     17  C   UNL     1       1.004  10.161  18.613  0.00  0.00    +0.000 C 
ATOM     18  C   UNL     1       1.373  11.623  18.860  0.00  0.00    +0.000 C 
ATOM     19  C   UNL     1      -0.415  10.050  18.068  0.00  0.00    +0.000 C 
ENDBRANCH   8  17
BRANCH   1  21
ATOM     20  C   UNL     1       5.309   4.021  15.472  0.00  0.00    +0.000 C 
ATOM     21  C   UNL     1       5.718   4.417  16.882  0.00  0.00    +0.000 C 
ENDBRANCH   1  21
TORSDOF 3
ENDMDL
MODEL 9
REMARK VINA RESULT:      -6.3      2.812      6.363
REMARK  Name = 
REMARK  8 active torsions:
REMARK  status: ('A' for Active; 'I' for Inactive)
REMARK    1  A    between atoms: C_1  and  C_2
REMARK    2  A    between atoms: C_2  and  C_3
REMARK    3  A    between atoms: C_5  and  N_6
REMARK    4  A    between atoms: N_6  and  C_7
REMARK    5  A    between atoms: N_6  and  C_8
REMARK    6  A    between atoms: N_13  and  C_14
REMARK    7  A    between atoms: C_14  and  C_15
REMARK    8  A    between atoms: C_14  and  C_16
REMARK                            x       y       z     vdW  Elec       q    Type
REMARK                         _______ _______ _______ _____ _____    ______ ____
ROOT
ATOM      1  C   UNL     1       7.066   5.779  17.063  0.00  0.00    +0.000 A 
ATOM      2  C   UNL     1       7.359   5.546  15.697  0.00  0.00    +0.000 A 
ATOM      3  C   UNL     1       6.539   4.778  14.855  0.00  0.00    +0.000 A 
ATOM      4  C   UNL     1       5.387   4.245  15.450  0.00  0.00    +0.000 A 
ATOM      5  C   UNL     1       5.075   4.430  16.805  0.00  0.00    +0.000 A 
ATOM      6  N   UNL     1       3.885   3.885  17.286  0.00  0.00    +0.000 NA
ATOM      7  C   UNL     1       3.523   4.198  18.481  0.00  0.00    +0.000 A 
ATOM      8  N   UNL     1       2.350   3.815  19.061  0.00  0.00    +0.000 N 
ATOM      9  O   UNL     1       4.246   4.935  19.347  0.00  0.00    +0.000 OA
ATOM     10  C   UNL     1       5.512   5.297  19.027  0.00  0.00    +0.000 A 
ATOM     11  O   UNL     1       6.266   5.728  19.892  0.00  0.00    +0.000 OA
ATOM     12  C   UNL     1       5.919   5.180  17.612  0.00  0.00    +0.000 A 
ATOM     13  H   UNL     1       2.170   4.185  19.986  0.00  0.00    +0.000 HD
ENDROOT
BRANCH   3  14
ATOM     14  N   UNL     1       6.817   4.585  13.512  0.00  0.00    +0.000 N 
ATOM     15  C   UNL     1       6.144   3.548  12.734  0.00  0.00    +0.000 C 
ATOM     16  C   UNL     1       7.906   5.268  12.822  0.00  0.00    +0.000 C 
ENDBRANCH   3  14
BRANCH   8  17
ATOM     17  C   UNL     1       1.506   2.745  18.574  0.00  0.00    +0.000 C 
ATOM     18  C   UNL     1       2.313   1.448  18.554  0.00  0.00    +0.000 C 
ATOM     19  C   UNL     1       0.277   2.599  19.463  0.00  0.00    +0.000 C 
ENDBRANCH   8  17
BRANCH   1  21
ATOM     20  C   UNL     1       7.724   8.162  17.581  0.00  0.00    +0.000 C 
ATOM     21  C   UNL     1       7.996   6.687  17.835  0.00  0.00    +0.000 C 
ENDBRANCH   1  21
TORSDOF 3
ENDMDL
