MODEL 1
REMARK VINA RESULT:      -8.6      0.000      0.000
REMARK  Name = 
REMARK  5 active torsions:
REMARK  status: ('A' for Active; 'I' for Inactive)
REMARK    1  A    between atoms: C_1  and  C_2
REMARK    2  A    between atoms: C_7  and  N_8
REMARK    3  A    between atoms: C_9  and  S_10
REMARK    4  A    between atoms: S_10  and  C_11
REMARK    5  A    between atoms: C_11  and  C_12
REMARK                            x       y       z     vdW  Elec       q    Type
REMARK                         _______ _______ _______ _____ _____    ______ ____
ROOT
ATOM      1  N   UNL     1       3.835   5.197  18.649  0.00  0.00    +0.000 N 
ATOM      2  C   UNL     1       3.431   6.382  17.946  0.00  0.00    +0.000 A 
ATOM      3  N   UNL     1       4.242   7.135  17.251  0.00  0.00    +0.000 NA
ATOM      4  C   UNL     1       5.527   6.734  17.288  0.00  0.00    +0.000 A 
ATOM      5  N   UNL     1       6.575   7.342  16.662  0.00  0.00    +0.000 N 
ATOM      6  N   UNL     1       7.766   6.753  16.921  0.00  0.00    +0.000 NA
ATOM      7  C   UNL     1       7.442   5.732  17.727  0.00  0.00    +0.000 A 
ATOM      8  C   UNL     1       6.062   5.677  17.967  0.00  0.00    +0.000 A 
ATOM      9  C   UNL     1       5.200   4.818  18.714  0.00  0.00    +0.000 A 
ATOM     10  O   UNL     1       5.660   3.843  19.317  0.00  0.00    +0.000 OA
ATOM     11  H   UNL     1       6.551   8.159  16.060  0.00  0.00    +0.000 HD
ENDROOT
BRANCH   1  18
ATOM     12  C   UNL     1       2.576   2.779  17.391  0.00  0.00    +0.000 C 
ATOM     13  C   UNL     1       2.251   3.267  18.774  0.00  0.00    +0.000 A 
ATOM     14  C   UNL     1       1.343   2.514  19.544  0.00  0.00    +0.000 A 
ATOM     15  C   UNL     1       1.179   2.753  20.908  0.00  0.00    +0.000 A 
ATOM     16  C   UNL     1       1.952   3.722  21.532  0.00  0.00    +0.000 A 
ATOM     17  C   UNL     1       2.817   4.514  20.772  0.00  0.00    +0.000 A 
ATOM     18  C   UNL     1       2.929   4.348  19.375  0.00  0.00    +0.000 A 
ENDBRANCH   1  18
BRANCH   2  19
ATOM     19  S   UNL     1       1.751   6.962  18.063  0.00  0.00    +0.000 S 
BRANCH  19  20
ATOM     20  C   UNL     1       1.954   8.745  18.500  0.00  0.00    +0.000 C 
BRANCH  20  21
ATOM     21  C   UNL     1       1.138   9.137  19.729  0.00  0.00    +0.000 A 
ATOM     22  C   UNL     1       1.313   8.470  20.955  0.00  0.00    +0.000 A 
ATOM     23  C   UNL     1       0.661   8.905  22.117  0.00  0.00    +0.000 A 
ATOM     24  C   UNL     1      -0.181  10.015  22.072  0.00  0.00    +0.000 A 
ATOM     25  C   UNL     1      -0.407  10.636  20.853  0.00  0.00    +0.000 A 
ATOM     26  F   UNL     1      -1.229  11.698  20.805  0.00  0.00    +0.000 F 
ATOM     27  C   UNL     1       0.222  10.201  19.686  0.00  0.00    +0.000 A 
ENDBRANCH  20  21
ENDBRANCH  19  20
ENDBRANCH   2  19
TORSDOF 4
ENDMDL
MODEL 2
REMARK VINA RESULT:      -8.6      0.799      1.234
REMARK  Name = 
REMARK  5 active torsions:
REMARK  status: ('A' for Active; 'I' for Inactive)
REMARK    1  A    between atoms: C_1  and  C_2
REMARK    2  A    between atoms: C_7  and  N_8
REMARK    3  A    between atoms: C_9  and  S_10
REMARK    4  A    between atoms: S_10  and  C_11
REMARK    5  A    between atoms: C_11  and  C_12
REMARK                            x       y       z     vdW  Elec       q    Type
REMARK                         _______ _______ _______ _____ _____    ______ ____
ROOT
ATOM      1  N   UNL     1       3.808   5.230  18.683  0.00  0.00    +0.000 N 
ATOM      2  C   UNL     1       3.476   6.518  18.142  0.00  0.00    +0.000 A 
ATOM      3  N   UNL     1       4.304   7.261  17.455  0.00  0.00    +0.000 NA
ATOM      4  C   UNL     1       5.538   6.738  17.335  0.00  0.00    +0.000 A 
ATOM      5  N   UNL     1       6.591   7.307  16.681  0.00  0.00    +0.000 N 
ATOM      6  N   UNL     1       7.730   6.581  16.770  0.00  0.00    +0.000 NA
ATOM      7  C   UNL     1       7.366   5.515  17.496  0.00  0.00    +0.000 A 
ATOM      8  C   UNL     1       6.012   5.566  17.854  0.00  0.00    +0.000 A 
ATOM      9  C   UNL     1       5.127   4.717  18.585  0.00  0.00    +0.000 A 
ATOM     10  O   UNL     1       5.529   3.642  19.042  0.00  0.00    +0.000 OA
ATOM     11  H   UNL     1       6.604   8.183  16.170  0.00  0.00    +0.000 HD
ENDROOT
BRANCH   1  18
ATOM     12  C   UNL     1       2.217   3.087  17.310  0.00  0.00    +0.000 C 
ATOM     13  C   UNL     1       2.051   3.454  18.757  0.00  0.00    +0.000 A 
ATOM     14  C   UNL     1       1.133   2.712  19.526  0.00  0.00    +0.000 A 
ATOM     15  C   UNL     1       1.100   2.820  20.915  0.00  0.00    +0.000 A 
ATOM     16  C   UNL     1       2.013   3.642  21.561  0.00  0.00    +0.000 A 
ATOM     17  C   UNL     1       2.893   4.426  20.809  0.00  0.00    +0.000 A 
ATOM     18  C   UNL     1       2.880   4.398  19.399  0.00  0.00    +0.000 A 
ENDBRANCH   1  18
BRANCH   2  19
ATOM     19  S   UNL     1       1.881   7.240  18.469  0.00  0.00    +0.000 S 
BRANCH  19  20
ATOM     20  C   UNL     1       1.971   7.657  20.265  0.00  0.00    +0.000 C 
BRANCH  20  21
ATOM     21  C   UNL     1       1.091   8.850  20.630  0.00  0.00    +0.000 A 
ATOM     22  C   UNL     1       0.657   9.755  19.644  0.00  0.00    +0.000 A 
ATOM     23  C   UNL     1      -0.250  10.779  19.947  0.00  0.00    +0.000 A 
ATOM     24  C   UNL     1      -0.738  10.917  21.246  0.00  0.00    +0.000 A 
ATOM     25  C   UNL     1      -0.265  10.068  22.234  0.00  0.00    +0.000 A 
ATOM     26  F   UNL     1      -0.724  10.208  23.489  0.00  0.00    +0.000 F 
ATOM     27  C   UNL     1       0.653   9.057  21.948  0.00  0.00    +0.000 A 
ENDBRANCH  20  21
ENDBRANCH  19  20
ENDBRANCH   2  19
TORSDOF 4
ENDMDL
MODEL 3
REMARK VINA RESULT:      -8.6      1.550      1.684
REMARK  Name = 
REMARK  5 active torsions:
REMARK  status: ('A' for Active; 'I' for Inactive)
REMARK    1  A    between atoms: C_1  and  C_2
REMARK    2  A    between atoms: C_7  and  N_8
REMARK    3  A    between atoms: C_9  and  S_10
REMARK    4  A    between atoms: S_10  and  C_11
REMARK    5  A    between atoms: C_11  and  C_12
REMARK                            x       y       z     vdW  Elec       q    Type
REMARK                         _______ _______ _______ _____ _____    ______ ____
ROOT
ATOM      1  N   UNL     1       3.831   5.256  18.653  0.00  0.00    +0.000 N 
ATOM      2  C   UNL     1       3.513   6.527  18.067  0.00  0.00    +0.000 A 
ATOM      3  N   UNL     1       4.354   7.245  17.370  0.00  0.00    +0.000 NA
ATOM      4  C   UNL     1       5.588   6.713  17.284  0.00  0.00    +0.000 A 
ATOM      5  N   UNL     1       6.653   7.257  16.629  0.00  0.00    +0.000 N 
ATOM      6  N   UNL     1       7.787   6.530  16.757  0.00  0.00    +0.000 NA
ATOM      7  C   UNL     1       7.407   5.488  17.510  0.00  0.00    +0.000 A 
ATOM      8  C   UNL     1       6.048   5.556  17.846  0.00  0.00    +0.000 A 
ATOM      9  C   UNL     1       5.149   4.734  18.590  0.00  0.00    +0.000 A 
ATOM     10  O   UNL     1       5.539   3.672  19.087  0.00  0.00    +0.000 OA
ATOM     11  H   UNL     1       6.677   8.117  16.090  0.00  0.00    +0.000 HD
ENDROOT
BRANCH   1  18
ATOM     12  C   UNL     1       2.278   3.052  17.332  0.00  0.00    +0.000 C 
ATOM     13  C   UNL     1       2.078   3.477  18.759  0.00  0.00    +0.000 A 
ATOM     14  C   UNL     1       1.144   2.764  19.536  0.00  0.00    +0.000 A 
ATOM     15  C   UNL     1       1.078   2.929  20.919  0.00  0.00    +0.000 A 
ATOM     16  C   UNL     1       1.974   3.780  21.551  0.00  0.00    +0.000 A 
ATOM     17  C   UNL     1       2.868   4.535  20.789  0.00  0.00    +0.000 A 
ATOM     18  C   UNL     1       2.888   4.450  19.380  0.00  0.00    +0.000 A 
ENDBRANCH   1  18
BRANCH   2  19
ATOM     19  S   UNL     1       1.917   7.266  18.347  0.00  0.00    +0.000 S 
BRANCH  19  20
ATOM     20  C   UNL     1       2.173   9.022  17.835  0.00  0.00    +0.000 C 
BRANCH  20  21
ATOM     21  C   UNL     1       1.010   9.921  18.245  0.00  0.00    +0.000 A 
ATOM     22  C   UNL     1       1.237  11.126  18.935  0.00  0.00    +0.000 A 
ATOM     23  C   UNL     1       0.190  12.017  19.204  0.00  0.00    +0.000 A 
ATOM     24  C   UNL     1      -1.107  11.717  18.790  0.00  0.00    +0.000 A 
ATOM     25  C   UNL     1      -1.347  10.502  18.166  0.00  0.00    +0.000 A 
ATOM     26  F   UNL     1      -2.598  10.204  17.778  0.00  0.00    +0.000 F 
ATOM     27  C   UNL     1      -0.315   9.599  17.909  0.00  0.00    +0.000 A 
ENDBRANCH  20  21
ENDBRANCH  19  20
ENDBRANCH   2  19
TORSDOF 4
ENDMDL
MODEL 4
REMARK VINA RESULT:      -8.6      1.100      1.425
REMARK  Name = 
REMARK  5 active torsions:
REMARK  status: ('A' for Active; 'I' for Inactive)
REMARK    1  A    between atoms: C_1  and  C_2
REMARK    2  A    between atoms: C_7  and  N_8
REMARK    3  A    between atoms: C_9  and  S_10
REMARK    4  A    between atoms: S_10  and  C_11
REMARK    5  A    between atoms: C_11  and  C_12
REMARK                            x       y       z     vdW  Elec       q    Type
REMARK                         _______ _______ _______ _____ _____    ______ ____
ROOT
ATOM      1  N   UNL     1       3.820   5.235  18.656  0.00  0.00    +0.000 N 
ATOM      2  C   UNL     1       3.459   6.482  18.044  0.00  0.00    +0.000 A 
ATOM      3  N   UNL     1       4.277   7.218  17.339  0.00  0.00    +0.000 NA
ATOM      4  C   UNL     1       5.531   6.731  17.272  0.00  0.00    +0.000 A 
ATOM      5  N   UNL     1       6.579   7.303  16.613  0.00  0.00    +0.000 N 
ATOM      6  N   UNL     1       7.739   6.622  16.763  0.00  0.00    +0.000 NA
ATOM      7  C   UNL     1       7.393   5.580  17.533  0.00  0.00    +0.000 A 
ATOM      8  C   UNL     1       6.030   5.603  17.859  0.00  0.00    +0.000 A 
ATOM      9  C   UNL     1       5.157   4.762  18.612  0.00  0.00    +0.000 A 
ATOM     10  O   UNL     1       5.584   3.725  19.131  0.00  0.00    +0.000 OA
ATOM     11  H   UNL     1       6.575   8.153  16.059  0.00  0.00    +0.000 HD
ENDROOT
BRANCH   1  18
ATOM     12  C   UNL     1       2.356   2.954  17.365  0.00  0.00    +0.000 C 
ATOM     13  C   UNL     1       2.131   3.396  18.783  0.00  0.00    +0.000 A 
ATOM     14  C   UNL     1       1.220   2.662  19.567  0.00  0.00    +0.000 A 
ATOM     15  C   UNL     1       1.140   2.848  20.947  0.00  0.00    +0.000 A 
ATOM     16  C   UNL     1       2.000   3.741  21.570  0.00  0.00    +0.000 A 
ATOM     17  C   UNL     1       2.872   4.516  20.799  0.00  0.00    +0.000 A 
ATOM     18  C   UNL     1       2.903   4.407  19.392  0.00  0.00    +0.000 A 
ENDBRANCH   1  18
BRANCH   2  19
ATOM     19  S   UNL     1       1.834   7.165  18.300  0.00  0.00    +0.000 S 
BRANCH  19  20
ATOM     20  C   UNL     1       2.053   8.944  17.854  0.00  0.00    +0.000 C 
BRANCH  20  21
ATOM     21  C   UNL     1       0.917   9.818  18.379  0.00  0.00    +0.000 A 
ATOM     22  C   UNL     1      -0.365   9.759  17.802  0.00  0.00    +0.000 A 
ATOM     23  C   UNL     1      -1.442  10.463  18.356  0.00  0.00    +0.000 A 
ATOM     24  C   UNL     1      -1.255  11.243  19.497  0.00  0.00    +0.000 A 
ATOM     25  C   UNL     1       0.019  11.356  20.030  0.00  0.00    +0.000 A 
ATOM     26  F   UNL     1       0.205  12.118  21.121  0.00  0.00    +0.000 F 
ATOM     27  C   UNL     1       1.103  10.674  19.477  0.00  0.00    +0.000 A 
ENDBRANCH  20  21
ENDBRANCH  19  20
ENDBRANCH   2  19
TORSDOF 4
ENDMDL
MODEL 5
REMARK VINA RESULT:      -8.4      0.913      1.047
REMARK  Name = 
REMARK  5 active torsions:
REMARK  status: ('A' for Active; 'I' for Inactive)
REMARK    1  A    between atoms: C_1  and  C_2
REMARK    2  A    between atoms: C_7  and  N_8
REMARK    3  A    between atoms: C_9  and  S_10
REMARK    4  A    between atoms: S_10  and  C_11
REMARK    5  A    between atoms: C_11  and  C_12
REMARK                            x       y       z     vdW  Elec       q    Type
REMARK                         _______ _______ _______ _____ _____    ______ ____
ROOT
ATOM      1  N   UNL     1       3.834   5.183  18.667  0.00  0.00    +0.000 N 
ATOM      2  C   UNL     1       3.461   6.416  18.032  0.00  0.00    +0.000 A 
ATOM      3  N   UNL     1       4.279   7.155  17.329  0.00  0.00    +0.000 NA
ATOM      4  C   UNL     1       5.541   6.687  17.287  0.00  0.00    +0.000 A 
ATOM      5  N   UNL     1       6.590   7.266  16.636  0.00  0.00    +0.000 N 
ATOM      6  N   UNL     1       7.758   6.606  16.814  0.00  0.00    +0.000 NA
ATOM      7  C   UNL     1       7.417   5.570  17.593  0.00  0.00    +0.000 A 
ATOM      8  C   UNL     1       6.049   5.576  17.898  0.00  0.00    +0.000 A 
ATOM      9  C   UNL     1       5.179   4.731  18.651  0.00  0.00    +0.000 A 
ATOM     10  O   UNL     1       5.613   3.710  19.191  0.00  0.00    +0.000 OA
ATOM     11  H   UNL     1       6.581   8.108  16.070  0.00  0.00    +0.000 HD
ENDROOT
BRANCH   1  18
ATOM     12  C   UNL     1       2.425   2.861  17.388  0.00  0.00    +0.000 C 
ATOM     13  C   UNL     1       2.172   3.320  18.796  0.00  0.00    +0.000 A 
ATOM     14  C   UNL     1       1.261   2.583  19.577  0.00  0.00    +0.000 A 
ATOM     15  C   UNL     1       1.157   2.787  20.953  0.00  0.00    +0.000 A 
ATOM     16  C   UNL     1       1.994   3.703  21.575  0.00  0.00    +0.000 A 
ATOM     17  C   UNL     1       2.864   4.480  20.806  0.00  0.00    +0.000 A 
ATOM     18  C   UNL     1       2.918   4.352  19.402  0.00  0.00    +0.000 A 
ENDBRANCH   1  18
BRANCH   2  19
ATOM     19  S   UNL     1       1.822   7.076  18.253  0.00  0.00    +0.000 S 
BRANCH  19  20
ATOM     20  C   UNL     1       2.025   8.856  17.807  0.00  0.00    +0.000 C 
BRANCH  20  21
ATOM     21  C   UNL     1       1.419   9.789  18.851  0.00  0.00    +0.000 A 
ATOM     22  C   UNL     1       0.911   9.285  20.063  0.00  0.00    +0.000 A 
ATOM     23  C   UNL     1       0.468  10.144  21.078  0.00  0.00    +0.000 A 
ATOM     24  C   UNL     1       0.523  11.525  20.898  0.00  0.00    +0.000 A 
ATOM     25  C   UNL     1       0.963  12.026  19.682  0.00  0.00    +0.000 A 
ATOM     26  F   UNL     1       1.004  13.357  19.501  0.00  0.00    +0.000 F 
ATOM     27  C   UNL     1       1.389  11.180  18.657  0.00  0.00    +0.000 A 
ENDBRANCH  20  21
ENDBRANCH  19  20
ENDBRANCH   2  19
TORSDOF 4
ENDMDL
MODEL 6
REMARK VINA RESULT:      -8.2      1.608      1.957
REMARK  Name = 
REMARK  5 active torsions:
REMARK  status: ('A' for Active; 'I' for Inactive)
REMARK    1  A    between atoms: C_1  and  C_2
REMARK    2  A    between atoms: C_7  and  N_8
REMARK    3  A    between atoms: C_9  and  S_10
REMARK    4  A    between atoms: S_10  and  C_11
REMARK    5  A    between atoms: C_11  and  C_12
REMARK                            x       y       z     vdW  Elec       q    Type
REMARK                         _______ _______ _______ _____ _____    ______ ____
ROOT
ATOM      1  N   UNL     1       3.652   4.644  18.096  0.00  0.00    +0.000 N 
ATOM      2  C   UNL     1       3.729   6.067  17.926  0.00  0.00    +0.000 A 
ATOM      3  N   UNL     1       4.440   6.659  17.002  0.00  0.00    +0.000 NA
ATOM      4  C   UNL     1       5.153   5.813  16.235  0.00  0.00    +0.000 A 
ATOM      5  N   UNL     1       5.982   6.163  15.211  0.00  0.00    +0.000 N 
ATOM      6  N   UNL     1       6.615   5.106  14.651  0.00  0.00    +0.000 NA
ATOM      7  C   UNL     1       6.150   4.058  15.346  0.00  0.00    +0.000 A 
ATOM      8  C   UNL     1       5.231   4.452  16.328  0.00  0.00    +0.000 A 
ATOM      9  C   UNL     1       4.446   3.772  17.308  0.00  0.00    +0.000 A 
ATOM     10  O   UNL     1       4.484   2.540  17.393  0.00  0.00    +0.000 OA
ATOM     11  H   UNL     1       6.168   7.095  14.854  0.00  0.00    +0.000 HD
ENDROOT
BRANCH   1  18
ATOM     12  C   UNL     1       0.818   3.834  17.524  0.00  0.00    +0.000 C 
ATOM     13  C   UNL     1       1.470   3.700  18.871  0.00  0.00    +0.000 A 
ATOM     14  C   UNL     1       0.725   3.109  19.910  0.00  0.00    +0.000 A 
ATOM     15  C   UNL     1       1.331   2.724  21.105  0.00  0.00    +0.000 A 
ATOM     16  C   UNL     1       2.700   2.885  21.263  0.00  0.00    +0.000 A 
ATOM     17  C   UNL     1       3.443   3.519  20.263  0.00  0.00    +0.000 A 
ATOM     18  C   UNL     1       2.832   3.998  19.085  0.00  0.00    +0.000 A 
ENDBRANCH   1  18
BRANCH   2  19
ATOM     19  S   UNL     1       2.897   7.150  19.069  0.00  0.00    +0.000 S 
BRANCH  19  20
ATOM     20  C   UNL     1       2.224   8.477  17.975  0.00  0.00    +0.000 C 
BRANCH  20  21
ATOM     21  C   UNL     1       1.136   9.298  18.660  0.00  0.00    +0.000 A 
ATOM     22  C   UNL     1       0.179  10.002  17.906  0.00  0.00    +0.000 A 
ATOM     23  C   UNL     1      -0.896  10.655  18.525  0.00  0.00    +0.000 A 
ATOM     24  C   UNL     1      -1.031  10.619  19.912  0.00  0.00    +0.000 A 
ATOM     25  C   UNL     1      -0.055   9.982  20.664  0.00  0.00    +0.000 A 
ATOM     26  F   UNL     1      -0.176   9.957  22.002  0.00  0.00    +0.000 F 
ATOM     27  C   UNL     1       1.028   9.343  20.060  0.00  0.00    +0.000 A 
ENDBRANCH  20  21
ENDBRANCH  19  20
ENDBRANCH   2  19
TORSDOF 4
ENDMDL
MODEL 7
REMARK VINA RESULT:      -8.2      1.571      1.742
REMARK  Name = 
REMARK  5 active torsions:
REMARK  status: ('A' for Active; 'I' for Inactive)
REMARK    1  A    between atoms: C_1  and  C_2
REMARK    2  A    between atoms: C_7  and  N_8
REMARK    3  A    between atoms: C_9  and  S_10
REMARK    4  A    between atoms: S_10  and  C_11
REMARK    5  A    between atoms: C_11  and  C_12
REMARK                            x       y       z     vdW  Elec       q    Type
REMARK                         _______ _______ _______ _____ _____    ______ ____
ROOT
ATOM      1  N   UNL     1       3.575   4.731  18.206  0.00  0.00    +0.000 N 
ATOM      2  C   UNL     1       3.600   6.155  18.030  0.00  0.00    +0.000 A 
ATOM      3  N   UNL     1       4.289   6.769  17.104  0.00  0.00    +0.000 NA
ATOM      4  C   UNL     1       5.034   5.946  16.341  0.00  0.00    +0.000 A 
ATOM      5  N   UNL     1       5.850   6.322  15.315  0.00  0.00    +0.000 N 
ATOM      6  N   UNL     1       6.521   5.287  14.760  0.00  0.00    +0.000 NA
ATOM      7  C   UNL     1       6.095   4.225  15.460  0.00  0.00    +0.000 A 
ATOM      8  C   UNL     1       5.161   4.589  16.440  0.00  0.00    +0.000 A 
ATOM      9  C   UNL     1       4.401   3.885  17.421  0.00  0.00    +0.000 A 
ATOM     10  O   UNL     1       4.484   2.656  17.512  0.00  0.00    +0.000 OA
ATOM     11  H   UNL     1       6.002   7.258  14.954  0.00  0.00    +0.000 HD
ENDROOT
BRANCH   1  18
ATOM     12  C   UNL     1       0.795   3.760  17.617  0.00  0.00    +0.000 C 
ATOM     13  C   UNL     1       1.438   3.685  18.973  0.00  0.00    +0.000 A 
ATOM     14  C   UNL     1       0.712   3.074  20.015  0.00  0.00    +0.000 A 
ATOM     15  C   UNL     1       1.323   2.743  21.224  0.00  0.00    +0.000 A 
ATOM     16  C   UNL     1       2.680   2.980  21.394  0.00  0.00    +0.000 A 
ATOM     17  C   UNL     1       3.400   3.635  20.391  0.00  0.00    +0.000 A 
ATOM     18  C   UNL     1       2.779   4.059  19.198  0.00  0.00    +0.000 A 
ENDBRANCH   1  18
BRANCH   2  19
ATOM     19  S   UNL     1       2.728   7.212  19.169  0.00  0.00    +0.000 S 
BRANCH  19  20
ATOM     20  C   UNL     1       2.099   8.567  18.083  0.00  0.00    +0.000 C 
BRANCH  20  21
ATOM     21  C   UNL     1       0.974   9.362  18.741  0.00  0.00    +0.000 A 
ATOM     22  C   UNL     1       0.873   9.448  20.141  0.00  0.00    +0.000 A 
ATOM     23  C   UNL     1      -0.080  10.276  20.751  0.00  0.00    +0.000 A 
ATOM     24  C   UNL     1      -0.953  11.031  19.968  0.00  0.00    +0.000 A 
ATOM     25  C   UNL     1      -0.900  10.900  18.589  0.00  0.00    +0.000 A 
ATOM     26  F   UNL     1      -1.749  11.616  17.833  0.00  0.00    +0.000 F 
ATOM     27  C   UNL     1       0.032  10.066  17.971  0.00  0.00    +0.000 A 
ENDBRANCH  20  21
ENDBRANCH  19  20
ENDBRANCH   2  19
TORSDOF 4
ENDMDL
MODEL 8
REMARK VINA RESULT:      -8.1      0.982      1.912
REMARK  Name = 
REMARK  5 active torsions:
REMARK  status: ('A' for Active; 'I' for Inactive)
REMARK    1  A    between atoms: C_1  and  C_2
REMARK    2  A    between atoms: C_7  and  N_8
REMARK    3  A    between atoms: C_9  and  S_10
REMARK    4  A    between atoms: S_10  and  C_11
REMARK    5  A    between atoms: C_11  and  C_12
REMARK                            x       y       z     vdW  Elec       q    Type
REMARK                         _______ _______ _______ _____ _____    ______ ____
ROOT
ATOM      1  N   UNL     1       3.736   5.188  18.434  0.00  0.00    +0.000 N 
ATOM      2  C   UNL     1       3.491   6.453  17.800  0.00  0.00    +0.000 A 
ATOM      3  N   UNL     1       4.429   7.227  17.321  0.00  0.00    +0.000 NA
ATOM      4  C   UNL     1       5.677   6.762  17.519  0.00  0.00    +0.000 A 
ATOM      5  N   UNL     1       6.832   7.374  17.131  0.00  0.00    +0.000 N 
ATOM      6  N   UNL     1       7.945   6.704  17.513  0.00  0.00    +0.000 NA
ATOM      7  C   UNL     1       7.460   5.629  18.150  0.00  0.00    +0.000 A 
ATOM      8  C   UNL     1       6.059   5.620  18.163  0.00  0.00    +0.000 A 
ATOM      9  C   UNL     1       5.059   4.737  18.674  0.00  0.00    +0.000 A 
ATOM     10  O   UNL     1       5.383   3.687  19.239  0.00  0.00    +0.000 OA
ATOM     11  H   UNL     1       6.933   8.244  16.619  0.00  0.00    +0.000 HD
ENDROOT
BRANCH   1  18
ATOM     12  C   UNL     1       2.363   5.670  21.060  0.00  0.00    +0.000 C 
ATOM     13  C   UNL     1       2.109   4.471  20.191  0.00  0.00    +0.000 A 
ATOM     14  C   UNL     1       1.131   3.547  20.609  0.00  0.00    +0.000 A 
ATOM     15  C   UNL     1       0.662   2.552  19.752  0.00  0.00    +0.000 A 
ATOM     16  C   UNL     1       1.136   2.492  18.448  0.00  0.00    +0.000 A 
ATOM     17  C   UNL     1       2.146   3.366  18.037  0.00  0.00    +0.000 A 
ATOM     18  C   UNL     1       2.696   4.320  18.918  0.00  0.00    +0.000 A 
ENDBRANCH   1  18
BRANCH   2  19
ATOM     19  S   UNL     1       1.835   7.102  17.709  0.00  0.00    +0.000 S 
BRANCH  19  20
ATOM     20  C   UNL     1       2.093   8.926  17.843  0.00  0.00    +0.000 C 
BRANCH  20  21
ATOM     21  C   UNL     1       1.240   9.554  18.941  0.00  0.00    +0.000 A 
ATOM     22  C   UNL     1       0.550  10.760  18.719  0.00  0.00    +0.000 A 
ATOM     23  C   UNL     1      -0.333  11.278  19.677  0.00  0.00    +0.000 A 
ATOM     24  C   UNL     1      -0.539  10.599  20.877  0.00  0.00    +0.000 A 
ATOM     25  C   UNL     1       0.187   9.444  21.127  0.00  0.00    +0.000 A 
ATOM     26  F   UNL     1       0.000   8.796  22.289  0.00  0.00    +0.000 F 
ATOM     27  C   UNL     1       1.082   8.929  20.189  0.00  0.00    +0.000 A 
ENDBRANCH  20  21
ENDBRANCH  19  20
ENDBRANCH   2  19
TORSDOF 4
ENDMDL
MODEL 9
REMARK VINA RESULT:      -8.0      0.802      1.586
REMARK  Name = 
REMARK  5 active torsions:
REMARK  status: ('A' for Active; 'I' for Inactive)
REMARK    1  A    between atoms: C_1  and  C_2
REMARK    2  A    between atoms: C_7  and  N_8
REMARK    3  A    between atoms: C_9  and  S_10
REMARK    4  A    between atoms: S_10  and  C_11
REMARK    5  A    between atoms: C_11  and  C_12
REMARK                            x       y       z     vdW  Elec       q    Type
REMARK                         _______ _______ _______ _____ _____    ______ ____
ROOT
ATOM      1  N   UNL     1       3.752   5.195  18.431  0.00  0.00    +0.000 N 
ATOM      2  C   UNL     1       3.511   6.443  17.765  0.00  0.00    +0.000 A 
ATOM      3  N   UNL     1       4.452   7.211  17.281  0.00  0.00    +0.000 NA
ATOM      4  C   UNL     1       5.699   6.756  17.506  0.00  0.00    +0.000 A 
ATOM      5  N   UNL     1       6.857   7.364  17.119  0.00  0.00    +0.000 N 
ATOM      6  N   UNL     1       7.967   6.708  17.530  0.00  0.00    +0.000 NA
ATOM      7  C   UNL     1       7.478   5.645  18.186  0.00  0.00    +0.000 A 
ATOM      8  C   UNL     1       6.077   5.630  18.181  0.00  0.00    +0.000 A 
ATOM      9  C   UNL     1       5.075   4.755  18.699  0.00  0.00    +0.000 A 
ATOM     10  O   UNL     1       5.395   3.721  19.292  0.00  0.00    +0.000 OA
ATOM     11  H   UNL     1       6.960   8.222  16.588  0.00  0.00    +0.000 HD
ENDROOT
BRANCH   1  18
ATOM     12  C   UNL     1       2.318   5.750  21.010  0.00  0.00    +0.000 C 
ATOM     13  C   UNL     1       2.094   4.521  20.176  0.00  0.00    +0.000 A 
ATOM     14  C   UNL     1       1.115   3.602  20.603  0.00  0.00    +0.000 A 
ATOM     15  C   UNL     1       0.674   2.575  19.770  0.00  0.00    +0.000 A 
ATOM     16  C   UNL     1       1.177   2.476  18.480  0.00  0.00    +0.000 A 
ATOM     17  C   UNL     1       2.188   3.345  18.061  0.00  0.00    +0.000 A 
ATOM     18  C   UNL     1       2.711   4.333  18.922  0.00  0.00    +0.000 A 
ENDBRANCH   1  18
BRANCH   2  19
ATOM     19  S   UNL     1       1.853   7.082  17.637  0.00  0.00    +0.000 S 
BRANCH  19  20
ATOM     20  C   UNL     1       2.081   8.894  17.914  0.00  0.00    +0.000 C 
BRANCH  20  21
ATOM     21  C   UNL     1       1.062   9.464  18.897  0.00  0.00    +0.000 A 
ATOM     22  C   UNL     1       1.116   9.136  20.265  0.00  0.00    +0.000 A 
ATOM     23  C   UNL     1       0.264   9.751  21.192  0.00  0.00    +0.000 A 
ATOM     24  C   UNL     1      -0.661  10.704  20.767  0.00  0.00    +0.000 A 
ATOM     25  C   UNL     1      -0.761  10.983  19.412  0.00  0.00    +0.000 A 
ATOM     26  F   UNL     1      -1.661  11.891  18.999  0.00  0.00    +0.000 F 
ATOM     27  C   UNL     1       0.069  10.364  18.477  0.00  0.00    +0.000 A 
ENDBRANCH  20  21
ENDBRANCH  19  20
ENDBRANCH   2  19
TORSDOF 4
ENDMDL
