MODEL 1
REMARK VINA RESULT:      -7.8      0.000      0.000
REMARK  Name = 
REMARK  7 active torsions:
REMARK  status: ('A' for Active; 'I' for Inactive)
REMARK    1  A    between atoms: C_1  and  S_2
REMARK    2  A    between atoms: S_2  and  C_5
REMARK    3  A    between atoms: C_8  and  S_9
REMARK    4  A    between atoms: S_9  and  N_12
REMARK    5  A    between atoms: N_12  and  C_13
REMARK    6  A    between atoms: C_19  and  C_20
REMARK    7  A    between atoms: C_20  and  C_22
REMARK                            x       y       z     vdW  Elec       q    Type
REMARK                         _______ _______ _______ _____ _____    ______ ____
ROOT
ATOM      1  N   UNL     1       3.950   6.578  18.833  0.00  0.00    +0.000 N 
ATOM      2  H   UNL     1       4.403   6.414  19.733  0.00  0.00    +0.000 HD
ENDROOT
BRANCH   1   3
ATOM      3  C   UNL     1       4.500   5.887  17.706  0.00  0.00    +0.000 A 
ATOM      4  C   UNL     1       4.716   6.645  16.546  0.00  0.00    +0.000 A 
ATOM      5  C   UNL     1       5.258   6.059  15.398  0.00  0.00    +0.000 A 
ATOM      6  C   UNL     1       5.581   4.708  15.405  0.00  0.00    +0.000 A 
ATOM      7 CL   UNL     1       6.245   3.975  13.998  0.00  0.00    +0.000 Cl
ATOM      8  C   UNL     1       5.372   3.939  16.546  0.00  0.00    +0.000 A 
ATOM      9  C   UNL     1       4.856   4.523  17.716  0.00  0.00    +0.000 A 
BRANCH   9  10
ATOM     10  C   UNL     1       4.618   3.633  18.885  0.00  0.00    +0.000 C 
ATOM     11  O   UNL     1       5.554   3.321  19.615  0.00  0.00    +0.000 OA
BRANCH  10  12
ATOM     12  C   UNL     1       3.249   3.136  19.214  0.00  0.00    +0.000 A 
ATOM     13  C   UNL     1       2.372   2.849  18.168  0.00  0.00    +0.000 A 
ATOM     14  C   UNL     1       1.093   2.431  18.488  0.00  0.00    +0.000 A 
ATOM     15  N   UNL     1       0.648   2.282  19.754  0.00  0.00    +0.000 NA
ATOM     16  C   UNL     1       1.508   2.579  20.748  0.00  0.00    +0.000 A 
ATOM     17  C   UNL     1       2.806   3.003  20.534  0.00  0.00    +0.000 A 
ENDBRANCH  10  12
ENDBRANCH   9  10
ENDBRANCH   1   3
BRANCH   1  18
ATOM     18  S   UNL     1       2.276   6.618  19.038  0.00  0.00    +0.000 S 
ATOM     19  O   UNL     1       2.026   6.108  20.371  0.00  0.00    +0.000 OA
ATOM     20  O   UNL     1       1.638   6.032  17.880  0.00  0.00    +0.000 OA
BRANCH  18  24
ATOM     21  C   UNL     1       1.215  11.047  19.020  0.00  0.00    +0.000 A 
ATOM     22  C   UNL     1       1.907  10.495  17.940  0.00  0.00    +0.000 A 
ATOM     23  C   UNL     1       2.223   9.137  17.949  0.00  0.00    +0.000 A 
ATOM     24  C   UNL     1       1.891   8.352  19.059  0.00  0.00    +0.000 A 
ATOM     25  C   UNL     1       1.194   8.905  20.139  0.00  0.00    +0.000 A 
ATOM     26  C   UNL     1       0.862  10.262  20.124  0.00  0.00    +0.000 A 
BRANCH  21  28
ATOM     27  C   UNL     1       2.122  13.553  18.167  0.00  0.00    +0.000 C 
ATOM     28  S   UNL     1       0.760  12.765  18.984  0.00  0.00    +0.000 S 
ATOM     29  O   UNL     1       0.739  13.247  20.351  0.00  0.00    +0.000 OA
ATOM     30  O   UNL     1      -0.412  12.873  18.132  0.00  0.00    +0.000 OA
ENDBRANCH  21  28
ENDBRANCH  18  24
ENDBRANCH   1  18
TORSDOF 6
ENDMDL
MODEL 2
REMARK VINA RESULT:      -7.8      0.669      1.236
REMARK  Name = 
REMARK  7 active torsions:
REMARK  status: ('A' for Active; 'I' for Inactive)
REMARK    1  A    between atoms: C_1  and  S_2
REMARK    2  A    between atoms: S_2  and  C_5
REMARK    3  A    between atoms: C_8  and  S_9
REMARK    4  A    between atoms: S_9  and  N_12
REMARK    5  A    between atoms: N_12  and  C_13
REMARK    6  A    between atoms: C_19  and  C_20
REMARK    7  A    between atoms: C_20  and  C_22
REMARK                            x       y       z     vdW  Elec       q    Type
REMARK                         _______ _______ _______ _____ _____    ______ ____
ROOT
ATOM      1  N   UNL     1       3.897   6.510  18.931  0.00  0.00    +0.000 N 
ATOM      2  H   UNL     1       4.310   6.288  19.837  0.00  0.00    +0.000 HD
ENDROOT
BRANCH   1   3
ATOM      3  C   UNL     1       4.467   5.857  17.791  0.00  0.00    +0.000 A 
ATOM      4  C   UNL     1       4.718   6.657  16.667  0.00  0.00    +0.000 A 
ATOM      5  C   UNL     1       5.281   6.111  15.511  0.00  0.00    +0.000 A 
ATOM      6  C   UNL     1       5.592   4.758  15.472  0.00  0.00    +0.000 A 
ATOM      7 CL   UNL     1       6.283   4.073  14.054  0.00  0.00    +0.000 Cl
ATOM      8  C   UNL     1       5.348   3.947  16.577  0.00  0.00    +0.000 A 
ATOM      9  C   UNL     1       4.811   4.490  17.757  0.00  0.00    +0.000 A 
BRANCH   9  10
ATOM     10  C   UNL     1       4.536   3.559  18.885  0.00  0.00    +0.000 C 
ATOM     11  O   UNL     1       5.462   3.158  19.584  0.00  0.00    +0.000 OA
BRANCH  10  12
ATOM     12  C   UNL     1       3.145   3.125  19.210  0.00  0.00    +0.000 A 
ATOM     13  C   UNL     1       2.782   2.993  20.551  0.00  0.00    +0.000 A 
ATOM     14  C   UNL     1       1.504   2.548  20.838  0.00  0.00    +0.000 A 
ATOM     15  N   UNL     1       0.589   2.238  19.894  0.00  0.00    +0.000 NA
ATOM     16  C   UNL     1       0.967   2.359  18.607  0.00  0.00    +0.000 A 
ATOM     17  C   UNL     1       2.220   2.795  18.216  0.00  0.00    +0.000 A 
ENDBRANCH  10  12
ENDBRANCH   9  10
ENDBRANCH   1   3
BRANCH   1  18
ATOM     18  S   UNL     1       2.218   6.595  19.076  0.00  0.00    +0.000 S 
ATOM     19  O   UNL     1       1.908   6.097  20.402  0.00  0.00    +0.000 OA
ATOM     20  O   UNL     1       1.606   6.021  17.899  0.00  0.00    +0.000 OA
BRANCH  18  24
ATOM     21  C   UNL     1       1.272  11.049  19.013  0.00  0.00    +0.000 A 
ATOM     22  C   UNL     1       1.924  10.464  17.927  0.00  0.00    +0.000 A 
ATOM     23  C   UNL     1       2.206   9.097  17.950  0.00  0.00    +0.000 A 
ATOM     24  C   UNL     1       1.878   8.339  19.079  0.00  0.00    +0.000 A 
ATOM     25  C   UNL     1       1.221   8.925  20.165  0.00  0.00    +0.000 A 
ATOM     26  C   UNL     1       0.923  10.290  20.136  0.00  0.00    +0.000 A 
BRANCH  21  28
ATOM     27  C   UNL     1      -0.769  12.809  18.260  0.00  0.00    +0.000 C 
ATOM     28  S   UNL     1       0.860  12.777  18.961  0.00  0.00    +0.000 S 
ATOM     29  O   UNL     1       1.750  13.417  18.012  0.00  0.00    +0.000 OA
ATOM     30  O   UNL     1       0.776  13.234  20.338  0.00  0.00    +0.000 OA
ENDBRANCH  21  28
ENDBRANCH  18  24
ENDBRANCH   1  18
TORSDOF 6
ENDMDL
MODEL 3
REMARK VINA RESULT:      -7.8      0.704      1.228
REMARK  Name = 
REMARK  7 active torsions:
REMARK  status: ('A' for Active; 'I' for Inactive)
REMARK    1  A    between atoms: C_1  and  S_2
REMARK    2  A    between atoms: S_2  and  C_5
REMARK    3  A    between atoms: C_8  and  S_9
REMARK    4  A    between atoms: S_9  and  N_12
REMARK    5  A    between atoms: N_12  and  C_13
REMARK    6  A    between atoms: C_19  and  C_20
REMARK    7  A    between atoms: C_20  and  C_22
REMARK                            x       y       z     vdW  Elec       q    Type
REMARK                         _______ _______ _______ _____ _____    ______ ____
ROOT
ATOM      1  N   UNL     1       3.870   6.518  19.000  0.00  0.00    +0.000 N 
ATOM      2  H   UNL     1       4.285   6.306  19.908  0.00  0.00    +0.000 HD
ENDROOT
BRANCH   1   3
ATOM      3  C   UNL     1       4.450   5.866  17.865  0.00  0.00    +0.000 A 
ATOM      4  C   UNL     1       4.683   6.661  16.733  0.00  0.00    +0.000 A 
ATOM      5  C   UNL     1       5.254   6.115  15.580  0.00  0.00    +0.000 A 
ATOM      6  C   UNL     1       5.589   4.767  15.552  0.00  0.00    +0.000 A 
ATOM      7 CL   UNL     1       6.289   4.083  14.139  0.00  0.00    +0.000 Cl
ATOM      8  C   UNL     1       5.363   3.962  16.665  0.00  0.00    +0.000 A 
ATOM      9  C   UNL     1       4.817   4.505  17.841  0.00  0.00    +0.000 A 
BRANCH   9  10
ATOM     10  C   UNL     1       4.563   3.578  18.977  0.00  0.00    +0.000 C 
ATOM     11  O   UNL     1       5.496   3.205  19.682  0.00  0.00    +0.000 OA
BRANCH  10  12
ATOM     12  C   UNL     1       3.181   3.116  19.305  0.00  0.00    +0.000 A 
ATOM     13  C   UNL     1       2.318   2.790  18.258  0.00  0.00    +0.000 A 
ATOM     14  C   UNL     1       1.028   2.405  18.575  0.00  0.00    +0.000 A 
ATOM     15  N   UNL     1       0.559   2.324  19.839  0.00  0.00    +0.000 NA
ATOM     16  C   UNL     1       1.405   2.658  20.832  0.00  0.00    +0.000 A 
ATOM     17  C   UNL     1       2.713   3.054  20.621  0.00  0.00    +0.000 A 
ENDBRANCH  10  12
ENDBRANCH   9  10
ENDBRANCH   1   3
BRANCH   1  18
ATOM     18  S   UNL     1       2.190   6.582  19.144  0.00  0.00    +0.000 S 
ATOM     19  O   UNL     1       1.892   6.178  20.503  0.00  0.00    +0.000 OA
ATOM     20  O   UNL     1       1.587   5.912  18.014  0.00  0.00    +0.000 OA
BRANCH  18  24
ATOM     21  C   UNL     1       1.308  11.044  18.895  0.00  0.00    +0.000 A 
ATOM     22  C   UNL     1       0.884  10.314  20.007  0.00  0.00    +0.000 A 
ATOM     23  C   UNL     1       1.163   8.949  20.080  0.00  0.00    +0.000 A 
ATOM     24  C   UNL     1       1.818   8.315  19.019  0.00  0.00    +0.000 A 
ATOM     25  C   UNL     1       2.247   9.048  17.907  0.00  0.00    +0.000 A 
ATOM     26  C   UNL     1       1.984  10.418  17.840  0.00  0.00    +0.000 A 
BRANCH  21  28
ATOM     27  C   UNL     1       0.955  13.287  20.531  0.00  0.00    +0.000 C 
ATOM     28  S   UNL     1       1.006  12.794  18.828  0.00  0.00    +0.000 S 
ATOM     29  O   UNL     1      -0.321  12.994  18.281  0.00  0.00    +0.000 OA
ATOM     30  O   UNL     1       2.173  13.401  18.209  0.00  0.00    +0.000 OA
ENDBRANCH  21  28
ENDBRANCH  18  24
ENDBRANCH   1  18
TORSDOF 6
ENDMDL
MODEL 4
REMARK VINA RESULT:      -7.8      4.741      9.108
REMARK  Name = 
REMARK  7 active torsions:
REMARK  status: ('A' for Active; 'I' for Inactive)
REMARK    1  A    between atoms: C_1  and  S_2
REMARK    2  A    between atoms: S_2  and  C_5
REMARK    3  A    between atoms: C_8  and  S_9
REMARK    4  A    between atoms: S_9  and  N_12
REMARK    5  A    between atoms: N_12  and  C_13
REMARK    6  A    between atoms: C_19  and  C_20
REMARK    7  A    between atoms: C_20  and  C_22
REMARK                            x       y       z     vdW  Elec       q    Type
REMARK                         _______ _______ _______ _____ _____    ______ ____
ROOT
ATOM      1  N   UNL     1       0.957  10.228  20.214  0.00  0.00    +0.000 N 
ATOM      2  H   UNL     1       1.772  10.157  19.604  0.00  0.00    +0.000 HD
ENDROOT
BRANCH   1   3
ATOM      3  C   UNL     1      -0.268  10.637  19.596  0.00  0.00    +0.000 A 
ATOM      4  C   UNL     1      -0.584  10.041  18.367  0.00  0.00    +0.000 A 
ATOM      5  C   UNL     1      -1.763  10.370  17.693  0.00  0.00    +0.000 A 
ATOM      6  C   UNL     1      -2.630  11.305  18.244  0.00  0.00    +0.000 A 
ATOM      7 CL   UNL     1      -4.083  11.722  17.423  0.00  0.00    +0.000 Cl
ATOM      8  C   UNL     1      -2.333  11.910  19.462  0.00  0.00    +0.000 A 
ATOM      9  C   UNL     1      -1.165  11.564  20.165  0.00  0.00    +0.000 A 
BRANCH   9  10
ATOM     10  C   UNL     1      -0.888  12.281  21.440  0.00  0.00    +0.000 C 
ATOM     11  O   UNL     1       0.271  12.442  21.810  0.00  0.00    +0.000 OA
BRANCH  10  12
ATOM     12  C   UNL     1      -1.996  12.844  22.268  0.00  0.00    +0.000 A 
ATOM     13  C   UNL     1      -2.621  12.017  23.201  0.00  0.00    +0.000 A 
ATOM     14  C   UNL     1      -3.674  12.539  23.931  0.00  0.00    +0.000 A 
ATOM     15  N   UNL     1      -4.126  13.804  23.793  0.00  0.00    +0.000 NA
ATOM     16  C   UNL     1      -3.517  14.579  22.876  0.00  0.00    +0.000 A 
ATOM     17  C   UNL     1      -2.457  14.153  22.097  0.00  0.00    +0.000 A 
ENDBRANCH  10  12
ENDBRANCH   9  10
ENDBRANCH   1   3
BRANCH   1  18
ATOM     18  S   UNL     1       0.942   8.935  21.296  0.00  0.00    +0.000 S 
ATOM     19  O   UNL     1      -0.455   8.617  21.516  0.00  0.00    +0.000 OA
ATOM     20  O   UNL     1       1.827   9.225  22.402  0.00  0.00    +0.000 OA
BRANCH  18  24
ATOM     21  C   UNL     1       2.647   5.462  18.892  0.00  0.00    +0.000 A 
ATOM     22  C   UNL     1       2.070   5.224  20.141  0.00  0.00    +0.000 A 
ATOM     23  C   UNL     1       1.544   6.292  20.870  0.00  0.00    +0.000 A 
ATOM     24  C   UNL     1       1.644   7.593  20.367  0.00  0.00    +0.000 A 
ATOM     25  C   UNL     1       2.218   7.831  19.114  0.00  0.00    +0.000 A 
ATOM     26  C   UNL     1       2.731   6.761  18.375  0.00  0.00    +0.000 A 
BRANCH  21  28
ATOM     27  C   UNL     1       4.439   4.840  16.835  0.00  0.00    +0.000 C 
ATOM     28  S   UNL     1       3.265   4.097  17.937  0.00  0.00    +0.000 S 
ATOM     29  O   UNL     1       2.173   3.592  17.128  0.00  0.00    +0.000 OA
ATOM     30  O   UNL     1       3.983   3.229  18.856  0.00  0.00    +0.000 OA
ENDBRANCH  21  28
ENDBRANCH  18  24
ENDBRANCH   1  18
TORSDOF 6
ENDMDL
MODEL 5
REMARK VINA RESULT:      -7.8      0.097      1.261
REMARK  Name = 
REMARK  7 active torsions:
REMARK  status: ('A' for Active; 'I' for Inactive)
REMARK    1  A    between atoms: C_1  and  S_2
REMARK    2  A    between atoms: S_2  and  C_5
REMARK    3  A    between atoms: C_8  and  S_9
REMARK    4  A    between atoms: S_9  and  N_12
REMARK    5  A    between atoms: N_12  and  C_13
REMARK    6  A    between atoms: C_19  and  C_20
REMARK    7  A    between atoms: C_20  and  C_22
REMARK                            x       y       z     vdW  Elec       q    Type
REMARK                         _______ _______ _______ _____ _____    ______ ____
ROOT
ATOM      1  N   UNL     1       3.962   6.656  18.739  0.00  0.00    +0.000 N 
ATOM      2  H   UNL     1       4.438   6.547  19.635  0.00  0.00    +0.000 HD
ENDROOT
BRANCH   1   3
ATOM      3  C   UNL     1       4.510   5.932  17.632  0.00  0.00    +0.000 A 
ATOM      4  C   UNL     1       4.744   6.661  16.457  0.00  0.00    +0.000 A 
ATOM      5  C   UNL     1       5.286   6.043  15.327  0.00  0.00    +0.000 A 
ATOM      6  C   UNL     1       5.592   4.689  15.366  0.00  0.00    +0.000 A 
ATOM      7 CL   UNL     1       6.255   3.915  13.981  0.00  0.00    +0.000 Cl
ATOM      8  C   UNL     1       5.364   3.948  16.522  0.00  0.00    +0.000 A 
ATOM      9  C   UNL     1       4.849   4.564  17.675  0.00  0.00    +0.000 A 
BRANCH   9  10
ATOM     10  C   UNL     1       4.591   3.704  18.862  0.00  0.00    +0.000 C 
ATOM     11  O   UNL     1       5.512   3.421  19.623  0.00  0.00    +0.000 OA
BRANCH  10  12
ATOM     12  C   UNL     1       3.219   3.202  19.173  0.00  0.00    +0.000 A 
ATOM     13  C   UNL     1       2.852   3.040  20.509  0.00  0.00    +0.000 A 
ATOM     14  C   UNL     1       1.594   2.533  20.781  0.00  0.00    +0.000 A 
ATOM     15  N   UNL     1       0.702   2.190  19.827  0.00  0.00    +0.000 NA
ATOM     16  C   UNL     1       1.084   2.342  18.543  0.00  0.00    +0.000 A 
ATOM     17  C   UNL     1       2.318   2.840  18.167  0.00  0.00    +0.000 A 
ENDBRANCH  10  12
ENDBRANCH   9  10
ENDBRANCH   1   3
BRANCH   1  18
ATOM     18  S   UNL     1       2.292   6.651  18.979  0.00  0.00    +0.000 S 
ATOM     19  O   UNL     1       2.086   6.178  20.334  0.00  0.00    +0.000 OA
ATOM     20  O   UNL     1       1.648   6.008  17.856  0.00  0.00    +0.000 OA
BRANCH  18  24
ATOM     21  C   UNL     1       1.239  11.082  18.985  0.00  0.00    +0.000 A 
ATOM     22  C   UNL     1       0.846  10.275  20.054  0.00  0.00    +0.000 A 
ATOM     23  C   UNL     1       1.177   8.920  20.049  0.00  0.00    +0.000 A 
ATOM     24  C   UNL     1       1.853   8.373  18.953  0.00  0.00    +0.000 A 
ATOM     25  C   UNL     1       2.250   9.183  17.884  0.00  0.00    +0.000 A 
ATOM     26  C   UNL     1       1.934  10.544  17.896  0.00  0.00    +0.000 A 
BRANCH  21  28
ATOM     27  C   UNL     1       2.264  13.571  18.218  0.00  0.00    +0.000 C 
ATOM     28  S   UNL     1       0.869  12.821  19.017  0.00  0.00    +0.000 S 
ATOM     29  O   UNL     1       0.882  13.251  20.401  0.00  0.00    +0.000 OA
ATOM     30  O   UNL     1      -0.302  13.019  18.180  0.00  0.00    +0.000 OA
ENDBRANCH  21  28
ENDBRANCH  18  24
ENDBRANCH   1  18
TORSDOF 6
ENDMDL
MODEL 6
REMARK VINA RESULT:      -7.7      4.783      9.090
REMARK  Name = 
REMARK  7 active torsions:
REMARK  status: ('A' for Active; 'I' for Inactive)
REMARK    1  A    between atoms: C_1  and  S_2
REMARK    2  A    between atoms: S_2  and  C_5
REMARK    3  A    between atoms: C_8  and  S_9
REMARK    4  A    between atoms: S_9  and  N_12
REMARK    5  A    between atoms: N_12  and  C_13
REMARK    6  A    between atoms: C_19  and  C_20
REMARK    7  A    between atoms: C_20  and  C_22
REMARK                            x       y       z     vdW  Elec       q    Type
REMARK                         _______ _______ _______ _____ _____    ______ ____
ROOT
ATOM      1  N   UNL     1       0.890  10.272  20.130  0.00  0.00    +0.000 N 
ATOM      2  H   UNL     1       1.676  10.207  19.483  0.00  0.00    +0.000 HD
ENDROOT
BRANCH   1   3
ATOM      3  C   UNL     1      -0.362  10.689  19.574  0.00  0.00    +0.000 A 
ATOM      4  C   UNL     1      -0.728  10.117  18.347  0.00  0.00    +0.000 A 
ATOM      5  C   UNL     1      -1.936  10.456  17.731  0.00  0.00    +0.000 A 
ATOM      6  C   UNL     1      -2.783  11.374  18.339  0.00  0.00    +0.000 A 
ATOM      7 CL   UNL     1      -4.270  11.801  17.591  0.00  0.00    +0.000 Cl
ATOM      8  C   UNL     1      -2.436  11.954  19.556  0.00  0.00    +0.000 A 
ATOM      9  C   UNL     1      -1.238  11.599  20.201  0.00  0.00    +0.000 A 
BRANCH   9  10
ATOM     10  C   UNL     1      -0.909  12.289  21.478  0.00  0.00    +0.000 C 
ATOM     11  O   UNL     1       0.264  12.477  21.786  0.00  0.00    +0.000 OA
BRANCH  10  12
ATOM     12  C   UNL     1      -1.983  12.795  22.384  0.00  0.00    +0.000 A 
ATOM     13  C   UNL     1      -2.214  14.170  22.446  0.00  0.00    +0.000 A 
ATOM     14  C   UNL     1      -3.182  14.628  23.321  0.00  0.00    +0.000 A 
ATOM     15  N   UNL     1      -3.915  13.820  24.116  0.00  0.00    +0.000 NA
ATOM     16  C   UNL     1      -3.664  12.498  24.051  0.00  0.00    +0.000 A 
ATOM     17  C   UNL     1      -2.720  11.940  23.208  0.00  0.00    +0.000 A 
ENDBRANCH  10  12
ENDBRANCH   9  10
ENDBRANCH   1   3
BRANCH   1  18
ATOM     18  S   UNL     1       0.923   8.967  21.198  0.00  0.00    +0.000 S 
ATOM     19  O   UNL     1      -0.460   8.590  21.408  0.00  0.00    +0.000 OA
ATOM     20  O   UNL     1       1.791   9.281  22.311  0.00  0.00    +0.000 OA
BRANCH  18  24
ATOM     21  C   UNL     1       2.966   5.673  18.807  0.00  0.00    +0.000 A 
ATOM     22  C   UNL     1       2.885   6.964  18.280  0.00  0.00    +0.000 A 
ATOM     23  C   UNL     1       2.263   7.969  19.021  0.00  0.00    +0.000 A 
ATOM     24  C   UNL     1       1.684   7.666  20.257  0.00  0.00    +0.000 A 
ATOM     25  C   UNL     1       1.770   6.374  20.786  0.00  0.00    +0.000 A 
ATOM     26  C   UNL     1       2.407   5.369  20.054  0.00  0.00    +0.000 A 
BRANCH  21  28
ATOM     27  C   UNL     1       2.505   3.347  17.321  0.00  0.00    +0.000 C 
ATOM     28  S   UNL     1       3.810   4.405  17.891  0.00  0.00    +0.000 S 
ATOM     29  O   UNL     1       4.608   3.638  18.827  0.00  0.00    +0.000 OA
ATOM     30  O   UNL     1       4.416   5.048  16.738  0.00  0.00    +0.000 OA
ENDBRANCH  21  28
ENDBRANCH  18  24
ENDBRANCH   1  18
TORSDOF 6
ENDMDL
MODEL 7
REMARK VINA RESULT:      -7.4      0.735      1.079
REMARK  Name = 
REMARK  7 active torsions:
REMARK  status: ('A' for Active; 'I' for Inactive)
REMARK    1  A    between atoms: C_1  and  S_2
REMARK    2  A    between atoms: S_2  and  C_5
REMARK    3  A    between atoms: C_8  and  S_9
REMARK    4  A    between atoms: S_9  and  N_12
REMARK    5  A    between atoms: N_12  and  C_13
REMARK    6  A    between atoms: C_19  and  C_20
REMARK    7  A    between atoms: C_20  and  C_22
REMARK                            x       y       z     vdW  Elec       q    Type
REMARK                         _______ _______ _______ _____ _____    ______ ____
ROOT
ATOM      1  N   UNL     1       3.803   6.503  19.275  0.00  0.00    +0.000 N 
ATOM      2  H   UNL     1       4.213   6.221  20.166  0.00  0.00    +0.000 HD
ENDROOT
BRANCH   1   3
ATOM      3  C   UNL     1       4.404   5.960  18.094  0.00  0.00    +0.000 A 
ATOM      4  C   UNL     1       4.615   6.847  17.029  0.00  0.00    +0.000 A 
ATOM      5  C   UNL     1       5.203   6.411  15.839  0.00  0.00    +0.000 A 
ATOM      6  C   UNL     1       5.580   5.080  15.708  0.00  0.00    +0.000 A 
ATOM      7 CL   UNL     1       6.302   4.529  14.248  0.00  0.00    +0.000 Cl
ATOM      8  C   UNL     1       5.377   4.184  16.753  0.00  0.00    +0.000 A 
ATOM      9  C   UNL     1       4.814   4.617  17.966  0.00  0.00    +0.000 A 
BRANCH   9  10
ATOM     10  C   UNL     1       4.586   3.597  19.026  0.00  0.00    +0.000 C 
ATOM     11  O   UNL     1       5.533   3.183  19.688  0.00  0.00    +0.000 OA
BRANCH  10  12
ATOM     12  C   UNL     1       3.216   3.087  19.329  0.00  0.00    +0.000 A 
ATOM     13  C   UNL     1       2.354   2.811  18.267  0.00  0.00    +0.000 A 
ATOM     14  C   UNL     1       1.073   2.381  18.563  0.00  0.00    +0.000 A 
ATOM     15  N   UNL     1       0.612   2.212  19.821  0.00  0.00    +0.000 NA
ATOM     16  C   UNL     1       1.457   2.499  20.831  0.00  0.00    +0.000 A 
ATOM     17  C   UNL     1       2.756   2.933  20.640  0.00  0.00    +0.000 A 
ENDBRANCH  10  12
ENDBRANCH   9  10
ENDBRANCH   1   3
BRANCH   1  18
ATOM     18  S   UNL     1       2.121   6.528  19.406  0.00  0.00    +0.000 S 
ATOM     19  O   UNL     1       1.815   5.965  20.705  0.00  0.00    +0.000 OA
ATOM     20  O   UNL     1       1.539   5.986  18.198  0.00  0.00    +0.000 OA
BRANCH  18  24
ATOM     21  C   UNL     1       1.025  10.947  19.532  0.00  0.00    +0.000 A 
ATOM     22  C   UNL     1       1.562  10.399  18.366  0.00  0.00    +0.000 A 
ATOM     23  C   UNL     1       1.890   9.043  18.332  0.00  0.00    +0.000 A 
ATOM     24  C   UNL     1       1.726   8.259  19.479  0.00  0.00    +0.000 A 
ATOM     25  C   UNL     1       1.183   8.808  20.645  0.00  0.00    +0.000 A 
ATOM     26  C   UNL     1       0.838  10.161  20.676  0.00  0.00    +0.000 A 
BRANCH  21  28
ATOM     27  C   UNL     1      -1.118  12.635  20.156  0.00  0.00    +0.000 C 
ATOM     28  S   UNL     1       0.552  12.660  19.559  0.00  0.00    +0.000 S 
ATOM     29  O   UNL     1       0.512  13.131  18.189  0.00  0.00    +0.000 OA
ATOM     30  O   UNL     1       1.386  13.313  20.554  0.00  0.00    +0.000 OA
ENDBRANCH  21  28
ENDBRANCH  18  24
ENDBRANCH   1  18
TORSDOF 6
ENDMDL
MODEL 8
REMARK VINA RESULT:      -7.4      4.709      9.109
REMARK  Name = 
REMARK  7 active torsions:
REMARK  status: ('A' for Active; 'I' for Inactive)
REMARK    1  A    between atoms: C_1  and  S_2
REMARK    2  A    between atoms: S_2  and  C_5
REMARK    3  A    between atoms: C_8  and  S_9
REMARK    4  A    between atoms: S_9  and  N_12
REMARK    5  A    between atoms: N_12  and  C_13
REMARK    6  A    between atoms: C_19  and  C_20
REMARK    7  A    between atoms: C_20  and  C_22
REMARK                            x       y       z     vdW  Elec       q    Type
REMARK                         _______ _______ _______ _____ _____    ______ ____
ROOT
ATOM      1  N   UNL     1       0.910  10.302  20.129  0.00  0.00    +0.000 N 
ATOM      2  H   UNL     1       1.739  10.190  19.546  0.00  0.00    +0.000 HD
ENDROOT
BRANCH   1   3
ATOM      3  C   UNL     1      -0.298  10.675  19.457  0.00  0.00    +0.000 A 
ATOM      4  C   UNL     1      -0.610   9.972  18.284  0.00  0.00    +0.000 A 
ATOM      5  C   UNL     1      -1.772  10.260  17.564  0.00  0.00    +0.000 A 
ATOM      6  C   UNL     1      -2.627  11.259  18.012  0.00  0.00    +0.000 A 
ATOM      7 CL   UNL     1      -4.059  11.625  17.133  0.00  0.00    +0.000 Cl
ATOM      8  C   UNL     1      -2.334  11.970  19.172  0.00  0.00    +0.000 A 
ATOM      9  C   UNL     1      -1.184  11.669  19.922  0.00  0.00    +0.000 A 
BRANCH   9  10
ATOM     10  C   UNL     1      -0.909  12.496  21.128  0.00  0.00    +0.000 C 
ATOM     11  O   UNL     1       0.233  12.886  21.354  0.00  0.00    +0.000 OA
BRANCH  10  12
ATOM     12  C   UNL     1      -2.006  12.897  22.059  0.00  0.00    +0.000 A 
ATOM     13  C   UNL     1      -2.451  14.219  22.039  0.00  0.00    +0.000 A 
ATOM     14  C   UNL     1      -3.437  14.587  22.937  0.00  0.00    +0.000 A 
ATOM     15  N   UNL     1      -3.993  13.739  23.828  0.00  0.00    +0.000 NA
ATOM     16  C   UNL     1      -3.537  12.471  23.840  0.00  0.00    +0.000 A 
ATOM     17  C   UNL     1      -2.556  12.005  22.984  0.00  0.00    +0.000 A 
ENDBRANCH  10  12
ENDBRANCH   9  10
ENDBRANCH   1   3
BRANCH   1  18
ATOM     18  S   UNL     1       0.862   9.080  21.290  0.00  0.00    +0.000 S 
ATOM     19  O   UNL     1      -0.540   8.754  21.467  0.00  0.00    +0.000 OA
ATOM     20  O   UNL     1       1.691   9.454  22.414  0.00  0.00    +0.000 OA
BRANCH  18  24
ATOM     21  C   UNL     1       2.721   5.492  19.189  0.00  0.00    +0.000 A 
ATOM     22  C   UNL     1       2.052   5.315  20.402  0.00  0.00    +0.000 A 
ATOM     23  C   UNL     1       1.479   6.418  21.037  0.00  0.00    +0.000 A 
ATOM     24  C   UNL     1       1.624   7.693  20.481  0.00  0.00    +0.000 A 
ATOM     25  C   UNL     1       2.290   7.869  19.264  0.00  0.00    +0.000 A 
ATOM     26  C   UNL     1       2.850   6.764  18.618  0.00  0.00    +0.000 A 
BRANCH  21  28
ATOM     27  C   UNL     1       2.120   2.858  18.461  0.00  0.00    +0.000 C 
ATOM     28  S   UNL     1       3.400   4.081  18.349  0.00  0.00    +0.000 S 
ATOM     29  O   UNL     1       4.525   3.600  19.127  0.00  0.00    +0.000 OA
ATOM     30  O   UNL     1       3.557   4.455  16.954  0.00  0.00    +0.000 OA
ENDBRANCH  21  28
ENDBRANCH  18  24
ENDBRANCH   1  18
TORSDOF 6
ENDMDL
MODEL 9
REMARK VINA RESULT:      -7.4      1.304      1.551
REMARK  Name = 
REMARK  7 active torsions:
REMARK  status: ('A' for Active; 'I' for Inactive)
REMARK    1  A    between atoms: C_1  and  S_2
REMARK    2  A    between atoms: S_2  and  C_5
REMARK    3  A    between atoms: C_8  and  S_9
REMARK    4  A    between atoms: S_9  and  N_12
REMARK    5  A    between atoms: N_12  and  C_13
REMARK    6  A    between atoms: C_19  and  C_20
REMARK    7  A    between atoms: C_20  and  C_22
REMARK                            x       y       z     vdW  Elec       q    Type
REMARK                         _______ _______ _______ _____ _____    ______ ____
ROOT
ATOM      1  N   UNL     1       2.192   5.884  18.136  0.00  0.00    +0.000 N 
ATOM      2  H   UNL     1       1.532   6.460  17.613  0.00  0.00    +0.000 HD
ENDROOT
BRANCH   1   3
ATOM      3  C   UNL     1       3.362   5.454  17.431  0.00  0.00    +0.000 A 
ATOM      4  C   UNL     1       4.197   6.460  16.923  0.00  0.00    +0.000 A 
ATOM      5  C   UNL     1       5.366   6.137  16.228  0.00  0.00    +0.000 A 
ATOM      6  C   UNL     1       5.703   4.804  16.034  0.00  0.00    +0.000 A 
ATOM      7 CL   UNL     1       7.136   4.393  15.178  0.00  0.00    +0.000 Cl
ATOM      8  C   UNL     1       4.886   3.791  16.528  0.00  0.00    +0.000 A 
ATOM      9  C   UNL     1       3.723   4.102  17.255  0.00  0.00    +0.000 A 
BRANCH   9  10
ATOM     10  C   UNL     1       2.874   2.971  17.718  0.00  0.00    +0.000 C 
ATOM     11  O   UNL     1       2.427   2.170  16.903  0.00  0.00    +0.000 OA
BRANCH  10  12
ATOM     12  C   UNL     1       2.580   2.766  19.168  0.00  0.00    +0.000 A 
ATOM     13  C   UNL     1       1.248   2.673  19.574  0.00  0.00    +0.000 A 
ATOM     14  C   UNL     1       0.988   2.527  20.925  0.00  0.00    +0.000 A 
ATOM     15  N   UNL     1       1.951   2.466  21.870  0.00  0.00    +0.000 NA
ATOM     16  C   UNL     1       3.229   2.573  21.456  0.00  0.00    +0.000 A 
ATOM     17  C   UNL     1       3.592   2.721  20.130  0.00  0.00    +0.000 A 
ENDBRANCH  10  12
ENDBRANCH   9  10
ENDBRANCH   1   3
BRANCH   1  18
ATOM     18  S   UNL     1       2.350   6.481  19.705  0.00  0.00    +0.000 S 
ATOM     19  O   UNL     1       3.773   6.506  19.980  0.00  0.00    +0.000 OA
ATOM     20  O   UNL     1       1.431   5.785  20.578  0.00  0.00    +0.000 OA
BRANCH  18  24
ATOM     21  C   UNL     1       0.889  10.777  19.312  0.00  0.00    +0.000 A 
ATOM     22  C   UNL     1       1.478  10.142  18.217  0.00  0.00    +0.000 A 
ATOM     23  C   UNL     1       1.918   8.824  18.343  0.00  0.00    +0.000 A 
ATOM     24  C   UNL     1       1.811   8.170  19.574  0.00  0.00    +0.000 A 
ATOM     25  C   UNL     1       1.217   8.805  20.670  0.00  0.00    +0.000 A 
ATOM     26  C   UNL     1       0.761  10.119  20.541  0.00  0.00    +0.000 A 
BRANCH  21  28
ATOM     27  C   UNL     1       1.609  13.308  18.358  0.00  0.00    +0.000 C 
ATOM     28  S   UNL     1       0.275  12.436  19.137  0.00  0.00    +0.000 S 
ATOM     29  O   UNL     1       0.115  12.992  20.466  0.00  0.00    +0.000 OA
ATOM     30  O   UNL     1      -0.840  12.378  18.207  0.00  0.00    +0.000 OA
ENDBRANCH  21  28
ENDBRANCH  18  24
ENDBRANCH   1  18
TORSDOF 6
ENDMDL
