MODEL 1
REMARK VINA RESULT:      -8.6      0.000      0.000
REMARK  Name = 
REMARK  5 active torsions:
REMARK  status: ('A' for Active; 'I' for Inactive)
REMARK    1  A    between atoms: C_1  and  C_2
REMARK    2  A    between atoms: C_11  and  C_12
REMARK    3  A    between atoms: C_11  and  C_13
REMARK    4  A    between atoms: C_20  and  C_21
REMARK    5  A    between atoms: C_20  and  C_22
REMARK                            x       y       z     vdW  Elec       q    Type
REMARK                         _______ _______ _______ _____ _____    ______ ____
ROOT
ATOM      1  C   UNL     1       1.831   2.604  21.271  0.00  0.00    +0.000 C 
ATOM      2  C   UNL     1       1.843   3.807  20.372  0.00  0.00    +0.000 C 
ATOM      3  O   UNL     1       0.755   4.379  20.254  0.00  0.00    +0.000 OA
ATOM      4  N   UNL     1       3.061   4.210  19.752  0.00  0.00    +0.000 N 
ATOM      5  C   UNL     1       3.135   5.537  19.091  0.00  0.00    +0.000 A 
ATOM      6  C   UNL     1       2.096   6.488  19.193  0.00  0.00    +0.000 A 
ATOM      7  C   UNL     1       2.091   7.712  18.506  0.00  0.00    +0.000 A 
ATOM      8  C   UNL     1       3.160   8.067  17.713  0.00  0.00    +0.000 A 
ATOM      9  C   UNL     1       4.231   7.196  17.634  0.00  0.00    +0.000 A 
ATOM     10  C   UNL     1       4.250   5.942  18.316  0.00  0.00    +0.000 A 
ATOM     11  C   UNL     1       5.523   5.110  18.157  0.00  0.00    +0.000 C 
ATOM     12  C   UNL     1       6.706   5.981  18.711  0.00  0.00    +0.000 C 
ATOM     13  C   UNL     1       5.467   3.889  19.074  0.00  0.00    +0.000 C 
ATOM     14  C   UNL     1       4.100   3.201  19.278  0.00  0.00    +0.000 C 
ATOM     15  C   UNL     1       3.551   2.506  18.018  0.00  0.00    +0.000 C 
ATOM     16  C   UNL     1       4.475   2.056  20.266  0.00  0.00    +0.000 C 
ENDROOT
BRANCH  11  17
ATOM     17  C   UNL     1       5.813   4.716  16.683  0.00  0.00    +0.000 A 
ATOM     18  C   UNL     1       7.099   4.853  16.123  0.00  0.00    +0.000 A 
ATOM     19  C   UNL     1       7.329   4.636  14.760  0.00  0.00    +0.000 A 
ATOM     20  C   UNL     1       6.291   4.229  13.930  0.00  0.00    +0.000 A 
ATOM     21  C   UNL     1       5.027   4.029  14.465  0.00  0.00    +0.000 A 
ATOM     22  C   UNL     1       4.791   4.275  15.820  0.00  0.00    +0.000 A 
ENDBRANCH  11  17
TORSDOF 1
ENDMDL
MODEL 2
REMARK VINA RESULT:      -8.3      0.183      1.038
REMARK  Name = 
REMARK  5 active torsions:
REMARK  status: ('A' for Active; 'I' for Inactive)
REMARK    1  A    between atoms: C_1  and  C_2
REMARK    2  A    between atoms: C_11  and  C_12
REMARK    3  A    between atoms: C_11  and  C_13
REMARK    4  A    between atoms: C_20  and  C_21
REMARK    5  A    between atoms: C_20  and  C_22
REMARK                            x       y       z     vdW  Elec       q    Type
REMARK                         _______ _______ _______ _____ _____    ______ ____
ROOT
ATOM      1  C   UNL     1       2.002   2.658  21.252  0.00  0.00    +0.000 C 
ATOM      2  C   UNL     1       1.953   3.873  20.370  0.00  0.00    +0.000 C 
ATOM      3  O   UNL     1       0.849   4.424  20.307  0.00  0.00    +0.000 OA
ATOM      4  N   UNL     1       3.135   4.308  19.706  0.00  0.00    +0.000 N 
ATOM      5  C   UNL     1       3.155   5.646  19.061  0.00  0.00    +0.000 A 
ATOM      6  C   UNL     1       2.103   6.574  19.221  0.00  0.00    +0.000 A 
ATOM      7  C   UNL     1       2.045   7.807  18.552  0.00  0.00    +0.000 A 
ATOM      8  C   UNL     1       3.072   8.195  17.720  0.00  0.00    +0.000 A 
ATOM      9  C   UNL     1       4.156   7.346  17.583  0.00  0.00    +0.000 A 
ATOM     10  C   UNL     1       4.228   6.084  18.245  0.00  0.00    +0.000 A 
ATOM     11  C   UNL     1       5.509   5.279  18.021  0.00  0.00    +0.000 C 
ATOM     12  C   UNL     1       6.697   6.166  18.537  0.00  0.00    +0.000 C 
ATOM     13  C   UNL     1       5.516   4.045  18.922  0.00  0.00    +0.000 C 
ATOM     14  C   UNL     1       4.172   3.327  19.173  0.00  0.00    +0.000 C 
ATOM     15  C   UNL     1       3.584   2.638  17.928  0.00  0.00    +0.000 C 
ATOM     16  C   UNL     1       4.611   2.176  20.128  0.00  0.00    +0.000 C 
ENDROOT
BRANCH  11  17
ATOM     17  C   UNL     1       5.744   4.912  16.530  0.00  0.00    +0.000 A 
ATOM     18  C   UNL     1       4.720   4.358  15.737  0.00  0.00    +0.000 A 
ATOM     19  C   UNL     1       4.969   3.895  14.440  0.00  0.00    +0.000 A 
ATOM     20  C   UNL     1       6.237   4.016  13.885  0.00  0.00    +0.000 A 
ATOM     21  C   UNL     1       7.252   4.611  14.621  0.00  0.00    +0.000 A 
ATOM     22  C   UNL     1       7.010   5.046  15.926  0.00  0.00    +0.000 A 
ENDBRANCH  11  17
TORSDOF 1
ENDMDL
MODEL 3
REMARK VINA RESULT:      -6.5      2.251      5.213
REMARK  Name = 
REMARK  5 active torsions:
REMARK  status: ('A' for Active; 'I' for Inactive)
REMARK    1  A    between atoms: C_1  and  C_2
REMARK    2  A    between atoms: C_11  and  C_12
REMARK    3  A    between atoms: C_11  and  C_13
REMARK    4  A    between atoms: C_20  and  C_21
REMARK    5  A    between atoms: C_20  and  C_22
REMARK                            x       y       z     vdW  Elec       q    Type
REMARK                         _______ _______ _______ _____ _____    ______ ____
ROOT
ATOM      1  C   UNL     1       7.181   5.388  15.748  0.00  0.00    +0.000 C 
ATOM      2  C   UNL     1       6.173   6.216  16.494  0.00  0.00    +0.000 C 
ATOM      3  O   UNL     1       6.524   7.377  16.726  0.00  0.00    +0.000 OA
ATOM      4  N   UNL     1       4.920   5.642  16.855  0.00  0.00    +0.000 N 
ATOM      5  C   UNL     1       3.831   6.525  17.343  0.00  0.00    +0.000 A 
ATOM      6  C   UNL     1       3.932   7.933  17.309  0.00  0.00    +0.000 A 
ATOM      7  C   UNL     1       2.963   8.796  17.847  0.00  0.00    +0.000 A 
ATOM      8  C   UNL     1       1.813   8.285  18.408  0.00  0.00    +0.000 A 
ATOM      9  C   UNL     1       1.641   6.912  18.404  0.00  0.00    +0.000 A 
ATOM     10  C   UNL     1       2.618   6.019  17.873  0.00  0.00    +0.000 A 
ATOM     11  C   UNL     1       2.261   4.533  17.910  0.00  0.00    +0.000 C 
ATOM     12  C   UNL     1       0.943   4.361  17.075  0.00  0.00    +0.000 C 
ATOM     13  C   UNL     1       3.316   3.722  17.156  0.00  0.00    +0.000 C 
ATOM     14  C   UNL     1       4.787   4.179  17.260  0.00  0.00    +0.000 C 
ATOM     15  C   UNL     1       5.401   4.013  18.663  0.00  0.00    +0.000 C 
ATOM     16  C   UNL     1       5.500   3.129  16.356  0.00  0.00    +0.000 C 
ENDROOT
BRANCH  11  17
ATOM     17  C   UNL     1       2.037   3.996  19.350  0.00  0.00    +0.000 A 
ATOM     18  C   UNL     1       2.512   4.692  20.479  0.00  0.00    +0.000 A 
ATOM     19  C   UNL     1       2.438   4.141  21.763  0.00  0.00    +0.000 A 
ATOM     20  C   UNL     1       1.842   2.900  21.959  0.00  0.00    +0.000 A 
ATOM     21  C   UNL     1       1.312   2.218  20.874  0.00  0.00    +0.000 A 
ATOM     22  C   UNL     1       1.414   2.755  19.588  0.00  0.00    +0.000 A 
ENDBRANCH  11  17
TORSDOF 1
ENDMDL
MODEL 4
REMARK VINA RESULT:      -6.4      2.267      5.297
REMARK  Name = 
REMARK  5 active torsions:
REMARK  status: ('A' for Active; 'I' for Inactive)
REMARK    1  A    between atoms: C_1  and  C_2
REMARK    2  A    between atoms: C_11  and  C_12
REMARK    3  A    between atoms: C_11  and  C_13
REMARK    4  A    between atoms: C_20  and  C_21
REMARK    5  A    between atoms: C_20  and  C_22
REMARK                            x       y       z     vdW  Elec       q    Type
REMARK                         _______ _______ _______ _____ _____    ______ ____
ROOT
ATOM      1  C   UNL     1       7.224   5.499  15.623  0.00  0.00    +0.000 C 
ATOM      2  C   UNL     1       6.214   6.282  16.414  0.00  0.00    +0.000 C 
ATOM      3  O   UNL     1       6.541   7.446  16.665  0.00  0.00    +0.000 OA
ATOM      4  N   UNL     1       4.986   5.667  16.791  0.00  0.00    +0.000 N 
ATOM      5  C   UNL     1       3.887   6.509  17.327  0.00  0.00    +0.000 A 
ATOM      6  C   UNL     1       3.950   7.920  17.325  0.00  0.00    +0.000 A 
ATOM      7  C   UNL     1       2.974   8.743  17.907  0.00  0.00    +0.000 A 
ATOM      8  C   UNL     1       1.852   8.189  18.483  0.00  0.00    +0.000 A 
ATOM      9  C   UNL     1       1.715   6.813  18.451  0.00  0.00    +0.000 A 
ATOM     10  C   UNL     1       2.702   5.958  17.874  0.00  0.00    +0.000 A 
ATOM     11  C   UNL     1       2.384   4.463  17.885  0.00  0.00    +0.000 C 
ATOM     12  C   UNL     1       1.051   4.276  17.078  0.00  0.00    +0.000 C 
ATOM     13  C   UNL     1       3.440   3.699  17.086  0.00  0.00    +0.000 C 
ATOM     14  C   UNL     1       4.901   4.192  17.164  0.00  0.00    +0.000 C 
ATOM     15  C   UNL     1       5.554   4.009  18.547  0.00  0.00    +0.000 C 
ATOM     16  C   UNL     1       5.618   3.182  16.218  0.00  0.00    +0.000 C 
ENDROOT
BRANCH  11  17
ATOM     17  C   UNL     1       2.210   3.887  19.316  0.00  0.00    +0.000 A 
ATOM     18  C   UNL     1       1.518   2.681  19.547  0.00  0.00    +0.000 A 
ATOM     19  C   UNL     1       1.237   2.237  20.844  0.00  0.00    +0.000 A 
ATOM     20  C   UNL     1       1.681   2.960  21.945  0.00  0.00    +0.000 A 
ATOM     21  C   UNL     1       2.417   4.120  21.748  0.00  0.00    +0.000 A 
ATOM     22  C   UNL     1       2.671   4.580  20.453  0.00  0.00    +0.000 A 
ENDBRANCH  11  17
TORSDOF 1
ENDMDL
MODEL 5
REMARK VINA RESULT:      -6.3      9.525     12.707
REMARK  Name = 
REMARK  5 active torsions:
REMARK  status: ('A' for Active; 'I' for Inactive)
REMARK    1  A    between atoms: C_1  and  C_2
REMARK    2  A    between atoms: C_11  and  C_12
REMARK    3  A    between atoms: C_11  and  C_13
REMARK    4  A    between atoms: C_20  and  C_21
REMARK    5  A    between atoms: C_20  and  C_22
REMARK                            x       y       z     vdW  Elec       q    Type
REMARK                         _______ _______ _______ _____ _____    ______ ____
ROOT
ATOM      1  C   UNL     1      -7.494  14.123  23.474  0.00  0.00    +0.000 C 
ATOM      2  C   UNL     1      -7.391  12.736  22.907  0.00  0.00    +0.000 C 
ATOM      3  O   UNL     1      -7.752  11.834  23.670  0.00  0.00    +0.000 OA
ATOM      4  N   UNL     1      -6.924  12.554  21.573  0.00  0.00    +0.000 N 
ATOM      5  C   UNL     1      -7.077  11.228  20.924  0.00  0.00    +0.000 A 
ATOM      6  C   UNL     1      -7.819  10.182  21.516  0.00  0.00    +0.000 A 
ATOM      7  C   UNL     1      -7.906   8.889  20.977  0.00  0.00    +0.000 A 
ATOM      8  C   UNL     1      -7.290   8.591  19.781  0.00  0.00    +0.000 A 
ATOM      9  C   UNL     1      -6.606   9.604  19.131  0.00  0.00    +0.000 A 
ATOM     10  C   UNL     1      -6.496  10.921  19.669  0.00  0.00    +0.000 A 
ATOM     11  C   UNL     1      -5.739  11.935  18.811  0.00  0.00    +0.000 C 
ATOM     12  C   UNL     1      -6.503  12.033  17.443  0.00  0.00    +0.000 C 
ATOM     13  C   UNL     1      -5.852  13.329  19.428  0.00  0.00    +0.000 C 
ATOM     14  C   UNL     1      -5.842  13.441  20.968  0.00  0.00    +0.000 C 
ATOM     15  C   UNL     1      -4.497  13.065  21.617  0.00  0.00    +0.000 C 
ATOM     16  C   UNL     1      -5.995  14.979  21.167  0.00  0.00    +0.000 C 
ENDROOT
BRANCH  11  17
ATOM     17  C   UNL     1      -4.261  11.533  18.553  0.00  0.00    +0.000 A 
ATOM     18  C   UNL     1      -3.194  12.200  19.186  0.00  0.00    +0.000 A 
ATOM     19  C   UNL     1      -1.863  11.936  18.847  0.00  0.00    +0.000 A 
ATOM     20  C   UNL     1      -1.560  10.964  17.901  0.00  0.00    +0.000 A 
ATOM     21  C   UNL     1      -2.588  10.248  17.303  0.00  0.00    +0.000 A 
ATOM     22  C   UNL     1      -3.919  10.534  17.621  0.00  0.00    +0.000 A 
ENDBRANCH  11  17
TORSDOF 1
ENDMDL
MODEL 6
REMARK VINA RESULT:      -6.0      8.081     10.857
REMARK  Name = 
REMARK  5 active torsions:
REMARK  status: ('A' for Active; 'I' for Inactive)
REMARK    1  A    between atoms: C_1  and  C_2
REMARK    2  A    between atoms: C_11  and  C_12
REMARK    3  A    between atoms: C_11  and  C_13
REMARK    4  A    between atoms: C_20  and  C_21
REMARK    5  A    between atoms: C_20  and  C_22
REMARK                            x       y       z     vdW  Elec       q    Type
REMARK                         _______ _______ _______ _____ _____    ______ ____
ROOT
ATOM      1  C   UNL     1       2.571  16.117  18.561  0.00  0.00    +0.000 C 
ATOM      2  C   UNL     1       1.299  15.962  19.345  0.00  0.00    +0.000 C 
ATOM      3  O   UNL     1       0.942  16.971  19.962  0.00  0.00    +0.000 OA
ATOM      4  N   UNL     1       0.600  14.722  19.313  0.00  0.00    +0.000 N 
ATOM      5  C   UNL     1      -0.780  14.651  19.856  0.00  0.00    +0.000 A 
ATOM      6  C   UNL     1      -1.491  15.804  20.255  0.00  0.00    +0.000 A 
ATOM      7  C   UNL     1      -2.758  15.767  20.859  0.00  0.00    +0.000 A 
ATOM      8  C   UNL     1      -3.401  14.563  21.051  0.00  0.00    +0.000 A 
ATOM      9  C   UNL     1      -2.770  13.411  20.616  0.00  0.00    +0.000 A 
ATOM     10  C   UNL     1      -1.478  13.428  20.010  0.00  0.00    +0.000 A 
ATOM     11  C   UNL     1      -0.934  12.075  19.550  0.00  0.00    +0.000 C 
ATOM     12  C   UNL     1      -1.955  11.509  18.500  0.00  0.00    +0.000 C 
ATOM     13  C   UNL     1       0.367  12.271  18.772  0.00  0.00    +0.000 C 
ATOM     14  C   UNL     1       1.328  13.385  19.242  0.00  0.00    +0.000 C 
ATOM     15  C   UNL     1       1.976  13.120  20.614  0.00  0.00    +0.000 C 
ATOM     16  C   UNL     1       2.477  13.261  18.197  0.00  0.00    +0.000 C 
ENDROOT
BRANCH  11  17
ATOM     17  C   UNL     1      -0.768  11.058  20.712  0.00  0.00    +0.000 A 
ATOM     18  C   UNL     1      -1.047  11.412  22.048  0.00  0.00    +0.000 A 
ATOM     19  C   UNL     1      -0.762  10.545  23.108  0.00  0.00    +0.000 A 
ATOM     20  C   UNL     1      -0.235   9.283  22.860  0.00  0.00    +0.000 A 
ATOM     21  C   UNL     1      -0.004   8.884  21.551  0.00  0.00    +0.000 A 
ATOM     22  C   UNL     1      -0.261   9.762  20.494  0.00  0.00    +0.000 A 
ENDBRANCH  11  17
TORSDOF 1
ENDMDL
MODEL 7
REMARK VINA RESULT:      -6.0      8.038     10.814
REMARK  Name = 
REMARK  5 active torsions:
REMARK  status: ('A' for Active; 'I' for Inactive)
REMARK    1  A    between atoms: C_1  and  C_2
REMARK    2  A    between atoms: C_11  and  C_12
REMARK    3  A    between atoms: C_11  and  C_13
REMARK    4  A    between atoms: C_20  and  C_21
REMARK    5  A    between atoms: C_20  and  C_22
REMARK                            x       y       z     vdW  Elec       q    Type
REMARK                         _______ _______ _______ _____ _____    ______ ____
ROOT
ATOM      1  C   UNL     1       2.602  16.230  18.539  0.00  0.00    +0.000 C 
ATOM      2  C   UNL     1       1.334  16.030  19.320  0.00  0.00    +0.000 C 
ATOM      3  O   UNL     1       0.937  17.027  19.930  0.00  0.00    +0.000 OA
ATOM      4  N   UNL     1       0.685  14.762  19.293  0.00  0.00    +0.000 N 
ATOM      5  C   UNL     1      -0.692  14.640  19.834  0.00  0.00    +0.000 A 
ATOM      6  C   UNL     1      -1.450  15.766  20.224  0.00  0.00    +0.000 A 
ATOM      7  C   UNL     1      -2.716  15.682  20.825  0.00  0.00    +0.000 A 
ATOM      8  C   UNL     1      -3.311  14.455  21.022  0.00  0.00    +0.000 A 
ATOM      9  C   UNL     1      -2.634  13.326  20.595  0.00  0.00    +0.000 A 
ATOM     10  C   UNL     1      -1.342  13.391  19.993  0.00  0.00    +0.000 A 
ATOM     11  C   UNL     1      -0.743  12.058  19.542  0.00  0.00    +0.000 C 
ATOM     12  C   UNL     1      -1.737  11.446  18.492  0.00  0.00    +0.000 C 
ATOM     13  C   UNL     1       0.551  12.301  18.766  0.00  0.00    +0.000 C 
ATOM     14  C   UNL     1       1.466  13.455  19.232  0.00  0.00    +0.000 C 
ATOM     15  C   UNL     1       2.120  13.223  20.607  0.00  0.00    +0.000 C 
ATOM     16  C   UNL     1       2.623  13.370  18.191  0.00  0.00    +0.000 C 
ENDROOT
BRANCH  11  17
ATOM     17  C   UNL     1      -0.540  11.055  20.710  0.00  0.00    +0.000 A 
ATOM     18  C   UNL     1      -0.091   9.739  20.483  0.00  0.00    +0.000 A 
ATOM     19  C   UNL     1      -0.046   8.794  21.514  0.00  0.00    +0.000 A 
ATOM     20  C   UNL     1      -0.402   9.152  22.809  0.00  0.00    +0.000 A 
ATOM     21  C   UNL     1      -0.791  10.457  23.075  0.00  0.00    +0.000 A 
ATOM     22  C   UNL     1      -0.866  11.392  22.039  0.00  0.00    +0.000 A 
ENDBRANCH  11  17
TORSDOF 1
ENDMDL
MODEL 8
REMARK VINA RESULT:      -5.9      9.144     10.413
REMARK  Name = 
REMARK  5 active torsions:
REMARK  status: ('A' for Active; 'I' for Inactive)
REMARK    1  A    between atoms: C_1  and  C_2
REMARK    2  A    between atoms: C_11  and  C_12
REMARK    3  A    between atoms: C_11  and  C_13
REMARK    4  A    between atoms: C_20  and  C_21
REMARK    5  A    between atoms: C_20  and  C_22
REMARK                            x       y       z     vdW  Elec       q    Type
REMARK                         _______ _______ _______ _____ _____    ______ ____
ROOT
ATOM      1  C   UNL     1       5.643  13.645  24.686  0.00  0.00    +0.000 C 
ATOM      2  C   UNL     1       5.634  13.878  23.202  0.00  0.00    +0.000 C 
ATOM      3  O   UNL     1       4.516  13.853  22.678  0.00  0.00    +0.000 OA
ATOM      4  N   UNL     1       6.862  14.123  22.521  0.00  0.00    +0.000 N 
ATOM      5  C   UNL     1       6.830  14.618  21.121  0.00  0.00    +0.000 A 
ATOM      6  C   UNL     1       5.630  15.013  20.490  0.00  0.00    +0.000 A 
ATOM      7  C   UNL     1       5.549  15.395  19.141  0.00  0.00    +0.000 A 
ATOM      8  C   UNL     1       6.687  15.447  18.366  0.00  0.00    +0.000 A 
ATOM      9  C   UNL     1       7.896  15.132  18.960  0.00  0.00    +0.000 A 
ATOM     10  C   UNL     1       7.996  14.730  20.325  0.00  0.00    +0.000 A 
ATOM     11  C   UNL     1       9.408  14.451  20.841  0.00  0.00    +0.000 C 
ATOM     12  C   UNL     1      10.226  15.780  20.666  0.00  0.00    +0.000 C 
ATOM     13  C   UNL     1       9.375  14.204  22.349  0.00  0.00    +0.000 C 
ATOM     14  C   UNL     1       8.163  13.443  22.929  0.00  0.00    +0.000 C 
ATOM     15  C   UNL     1       8.084  11.965  22.502  0.00  0.00    +0.000 C 
ATOM     16  C   UNL     1       8.506  13.429  24.449  0.00  0.00    +0.000 C 
ENDROOT
BRANCH  11  17
ATOM     17  C   UNL     1      10.119  13.300  20.080  0.00  0.00    +0.000 A 
ATOM     18  C   UNL     1      11.525  13.213  20.019  0.00  0.00    +0.000 A 
ATOM     19  C   UNL     1      12.164  12.262  19.216  0.00  0.00    +0.000 A 
ATOM     20  C   UNL     1      11.417  11.341  18.491  0.00  0.00    +0.000 A 
ATOM     21  C   UNL     1      10.032  11.364  18.577  0.00  0.00    +0.000 A 
ATOM     22  C   UNL     1       9.393  12.334  19.355  0.00  0.00    +0.000 A 
ENDBRANCH  11  17
TORSDOF 1
ENDMDL
MODEL 9
REMARK VINA RESULT:      -5.9      1.622      4.058
REMARK  Name = 
REMARK  5 active torsions:
REMARK  status: ('A' for Active; 'I' for Inactive)
REMARK    1  A    between atoms: C_1  and  C_2
REMARK    2  A    between atoms: C_11  and  C_12
REMARK    3  A    between atoms: C_11  and  C_13
REMARK    4  A    between atoms: C_20  and  C_21
REMARK    5  A    between atoms: C_20  and  C_22
REMARK                            x       y       z     vdW  Elec       q    Type
REMARK                         _______ _______ _______ _____ _____    ______ ____
ROOT
ATOM      1  C   UNL     1       0.960   8.981  20.056  0.00  0.00    +0.000 C 
ATOM      2  C   UNL     1       1.523   7.670  20.528  0.00  0.00    +0.000 C 
ATOM      3  O   UNL     1       1.544   7.526  21.754  0.00  0.00    +0.000 OA
ATOM      4  N   UNL     1       1.959   6.708  19.572  0.00  0.00    +0.000 N 
ATOM      5  C   UNL     1       2.257   5.324  20.020  0.00  0.00    +0.000 A 
ATOM      6  C   UNL     1       1.966   4.877  21.328  0.00  0.00    +0.000 A 
ATOM      7  C   UNL     1       2.319   3.608  21.813  0.00  0.00    +0.000 A 
ATOM      8  C   UNL     1       2.942   2.698  20.988  0.00  0.00    +0.000 A 
ATOM      9  C   UNL     1       3.188   3.068  19.678  0.00  0.00    +0.000 A 
ATOM     10  C   UNL     1       2.848   4.357  19.169  0.00  0.00    +0.000 A 
ATOM     11  C   UNL     1       3.151   4.598  17.690  0.00  0.00    +0.000 C 
ATOM     12  C   UNL     1       2.337   3.527  16.880  0.00  0.00    +0.000 C 
ATOM     13  C   UNL     1       2.578   5.945  17.252  0.00  0.00    +0.000 C 
ATOM     14  C   UNL     1       2.623   7.112  18.262  0.00  0.00    +0.000 C 
ATOM     15  C   UNL     1       4.044   7.614  18.581  0.00  0.00    +0.000 C 
ATOM     16  C   UNL     1       1.942   8.252  17.447  0.00  0.00    +0.000 C 
ENDROOT
BRANCH  11  17
ATOM     17  C   UNL     1       4.661   4.469  17.349  0.00  0.00    +0.000 A 
ATOM     18  C   UNL     1       5.658   4.696  18.319  0.00  0.00    +0.000 A 
ATOM     19  C   UNL     1       7.015   4.722  17.979  0.00  0.00    +0.000 A 
ATOM     20  C   UNL     1       7.415   4.474  16.671  0.00  0.00    +0.000 A 
ATOM     21  C   UNL     1       6.459   4.189  15.707  0.00  0.00    +0.000 A 
ATOM     22  C   UNL     1       5.102   4.193  16.040  0.00  0.00    +0.000 A 
ENDBRANCH  11  17
TORSDOF 1
ENDMDL
