MODEL 1
REMARK VINA RESULT:      -7.1      0.000      0.000
REMARK  Name = 
REMARK  7 active torsions:
REMARK  status: ('A' for Active; 'I' for Inactive)
REMARK    1  A    between atoms: C_1  and  O_2
REMARK    2  A    between atoms: O_2  and  C_3
REMARK    3  A    between atoms: C_8  and  C_9
REMARK    4  A    between atoms: C_9  and  C_10
REMARK    5  A    between atoms: C_10  and  N_11
REMARK    6  A    between atoms: N_11  and  C_12
REMARK    7  A    between atoms: C_12  and  N_14
REMARK                            x       y       z     vdW  Elec       q    Type
REMARK                         _______ _______ _______ _____ _____    ______ ____
ROOT
ATOM      1  N   UNL     1       5.276   6.089  18.282  0.00  0.00    +0.000 N 
ATOM      2  H   UNL     1       5.009   5.609  19.134  0.00  0.00    +0.000 HD
ENDROOT
BRANCH   1   3
ATOM      3  C   UNL     1       6.606   5.933  17.902  0.00  0.00    +0.000 C 
ATOM      4  S   UNL     1       7.832   5.493  18.964  0.00  0.00    +0.000 S 
BRANCH   3   5
ATOM      5  N   UNL     1       6.779   6.289  16.572  0.00  0.00    +0.000 N 
ATOM      6  C   UNL     1       6.572   5.452  15.461  0.00  0.00    +0.000 A 
ATOM      7  C   UNL     1       5.432   4.658  15.359  0.00  0.00    +0.000 A 
ATOM      8  C   UNL     1       5.286   3.818  14.258  0.00  0.00    +0.000 A 
ATOM      9  C   UNL     1       6.277   3.806  13.289  0.00  0.00    +0.000 A 
ATOM     10 BR   UNL     1       6.155   2.646  11.809  0.00  0.00    +0.000 Br
ATOM     11  C   UNL     1       7.355   4.664  13.441  0.00  0.00    +0.000 A 
ATOM     12  N   UNL     1       7.510   5.511  14.493  0.00  0.00    +0.000 NA
ATOM     13  H   UNL     1       7.570   6.906  16.423  0.00  0.00    +0.000 HD
ENDBRANCH   3   5
ENDBRANCH   1   3
BRANCH   1  14
ATOM     14  C   UNL     1       4.414   7.161  17.786  0.00  0.00    +0.000 C 
BRANCH  14  15
ATOM     15  C   UNL     1       2.943   6.781  17.614  0.00  0.00    +0.000 C 
BRANCH  15  21
ATOM     16  C   UNL     1       2.092   3.364  19.139  0.00  0.00    +0.000 A 
ATOM     17  C   UNL     1       1.712   3.729  20.432  0.00  0.00    +0.000 A 
ATOM     18  C   UNL     1       1.755   5.072  20.816  0.00  0.00    +0.000 A 
ATOM     19  C   UNL     1       2.175   6.046  19.912  0.00  0.00    +0.000 A 
ATOM     20  F   UNL     1       2.184   7.326  20.304  0.00  0.00    +0.000 F 
ATOM     21  C   UNL     1       2.564   5.718  18.618  0.00  0.00    +0.000 A 
ATOM     22  C   UNL     1       2.513   4.368  18.249  0.00  0.00    +0.000 A 
ATOM     23  F   UNL     1       2.849   4.030  16.994  0.00  0.00    +0.000 F 
BRANCH  16  25
ATOM     24  C   UNL     1       3.334   1.404  18.601  0.00  0.00    +0.000 C 
ATOM     25  O   UNL     1       2.089   2.091  18.639  0.00  0.00    +0.000 OA
ENDBRANCH  16  25
ENDBRANCH  15  21
ENDBRANCH  14  15
ENDBRANCH   1  14
TORSDOF 6
ENDMDL
MODEL 2
REMARK VINA RESULT:      -6.9      3.744      5.586
REMARK  Name = 
REMARK  7 active torsions:
REMARK  status: ('A' for Active; 'I' for Inactive)
REMARK    1  A    between atoms: C_1  and  O_2
REMARK    2  A    between atoms: O_2  and  C_3
REMARK    3  A    between atoms: C_8  and  C_9
REMARK    4  A    between atoms: C_9  and  C_10
REMARK    5  A    between atoms: C_10  and  N_11
REMARK    6  A    between atoms: N_11  and  C_12
REMARK    7  A    between atoms: C_12  and  N_14
REMARK                            x       y       z     vdW  Elec       q    Type
REMARK                         _______ _______ _______ _____ _____    ______ ____
ROOT
ATOM      1  N   UNL     1       0.936   3.950  19.820  0.00  0.00    +0.000 N 
ATOM      2  H   UNL     1       0.137   3.586  19.315  0.00  0.00    +0.000 HD
ENDROOT
BRANCH   1   3
ATOM      3  C   UNL     1       1.857   2.997  20.245  0.00  0.00    +0.000 C 
ATOM      4  S   UNL     1       2.069   2.560  21.854  0.00  0.00    +0.000 S 
BRANCH   3   5
ATOM      5  N   UNL     1       2.627   2.552  19.179  0.00  0.00    +0.000 N 
ATOM      6  C   UNL     1       3.691   3.253  18.583  0.00  0.00    +0.000 A 
ATOM      7  C   UNL     1       4.671   3.871  19.356  0.00  0.00    +0.000 A 
ATOM      8  C   UNL     1       5.687   4.583  18.723  0.00  0.00    +0.000 A 
ATOM      9  C   UNL     1       5.697   4.646  17.338  0.00  0.00    +0.000 A 
ATOM     10 BR   UNL     1       7.016   5.644  16.435  0.00  0.00    +0.000 Br
ATOM     11  C   UNL     1       4.714   3.960  16.641  0.00  0.00    +0.000 A 
ATOM     12  N   UNL     1       3.727   3.238  17.234  0.00  0.00    +0.000 NA
ATOM     13  H   UNL     1       2.094   2.039  18.487  0.00  0.00    +0.000 HD
ENDBRANCH   3   5
ENDBRANCH   1   3
BRANCH   1  14
ATOM     14  C   UNL     1       0.853   5.299  20.377  0.00  0.00    +0.000 C 
BRANCH  14  15
ATOM     15  C   UNL     1       2.170   6.076  20.393  0.00  0.00    +0.000 C 
BRANCH  15  21
ATOM     16  C   UNL     1       1.031   9.647  19.571  0.00  0.00    +0.000 A 
ATOM     17  C   UNL     1       1.537   9.806  18.280  0.00  0.00    +0.000 A 
ATOM     18  C   UNL     1       2.266   8.771  17.688  0.00  0.00    +0.000 A 
ATOM     19  C   UNL     1       2.487   7.582  18.382  0.00  0.00    +0.000 A 
ATOM     20  F   UNL     1       3.170   6.602  17.779  0.00  0.00    +0.000 F 
ATOM     21  C   UNL     1       2.000   7.392  19.671  0.00  0.00    +0.000 A 
ATOM     22  C   UNL     1       1.270   8.438  20.249  0.00  0.00    +0.000 A 
ATOM     23  F   UNL     1       0.759   8.265  21.477  0.00  0.00    +0.000 F 
BRANCH  16  25
ATOM     24  C   UNL     1       1.001  11.690  20.795  0.00  0.00    +0.000 C 
ATOM     25  O   UNL     1       0.299  10.577  20.259  0.00  0.00    +0.000 OA
ENDBRANCH  16  25
ENDBRANCH  15  21
ENDBRANCH  14  15
ENDBRANCH   1  14
TORSDOF 6
ENDMDL
MODEL 3
REMARK VINA RESULT:      -6.8      2.458      3.490
REMARK  Name = 
REMARK  7 active torsions:
REMARK  status: ('A' for Active; 'I' for Inactive)
REMARK    1  A    between atoms: C_1  and  O_2
REMARK    2  A    between atoms: O_2  and  C_3
REMARK    3  A    between atoms: C_8  and  C_9
REMARK    4  A    between atoms: C_9  and  C_10
REMARK    5  A    between atoms: C_10  and  N_11
REMARK    6  A    between atoms: N_11  and  C_12
REMARK    7  A    between atoms: C_12  and  N_14
REMARK                            x       y       z     vdW  Elec       q    Type
REMARK                         _______ _______ _______ _____ _____    ______ ____
ROOT
ATOM      1  N   UNL     1       5.325   6.370  18.187  0.00  0.00    +0.000 N 
ATOM      2  H   UNL     1       4.899   7.048  17.565  0.00  0.00    +0.000 HD
ENDROOT
BRANCH   1   3
ATOM      3  C   UNL     1       6.678   6.129  17.969  0.00  0.00    +0.000 C 
ATOM      4  S   UNL     1       7.755   5.697  19.185  0.00  0.00    +0.000 S 
BRANCH   3   5
ATOM      5  N   UNL     1       7.015   6.395  16.650  0.00  0.00    +0.000 N 
ATOM      6  C   UNL     1       6.699   5.592  15.540  0.00  0.00    +0.000 A 
ATOM      7  C   UNL     1       5.418   5.071  15.368  0.00  0.00    +0.000 A 
ATOM      8  C   UNL     1       5.160   4.251  14.273  0.00  0.00    +0.000 A 
ATOM      9  C   UNL     1       6.185   3.986  13.378  0.00  0.00    +0.000 A 
ATOM     10 BR   UNL     1       5.902   2.837  11.911  0.00  0.00    +0.000 Br
ATOM     11  C   UNL     1       7.417   4.586  13.594  0.00  0.00    +0.000 A 
ATOM     12  N   UNL     1       7.688   5.408  14.641  0.00  0.00    +0.000 NA
ATOM     13  H   UNL     1       7.933   6.814  16.548  0.00  0.00    +0.000 HD
ENDBRANCH   3   5
ENDBRANCH   1   3
BRANCH   1  14
ATOM     14  C   UNL     1       4.453   5.466  18.936  0.00  0.00    +0.000 C 
BRANCH  14  15
ATOM     15  C   UNL     1       2.981   5.495  18.521  0.00  0.00    +0.000 C 
BRANCH  15  21
ATOM     16  C   UNL     1       1.643   9.055  19.032  0.00  0.00    +0.000 A 
ATOM     17  C   UNL     1       1.154   8.979  20.337  0.00  0.00    +0.000 A 
ATOM     18  C   UNL     1       1.234   7.773  21.040  0.00  0.00    +0.000 A 
ATOM     19  C   UNL     1       1.801   6.649  20.441  0.00  0.00    +0.000 A 
ATOM     20  F   UNL     1       1.883   5.516  21.148  0.00  0.00    +0.000 F 
ATOM     21  C   UNL     1       2.295   6.689  19.141  0.00  0.00    +0.000 A 
ATOM     22  C   UNL     1       2.209   7.905  18.453  0.00  0.00    +0.000 A 
ATOM     23  F   UNL     1       2.711   7.978  17.210  0.00  0.00    +0.000 F 
BRANCH  16  25
ATOM     24  C   UNL     1       1.183  11.384  18.836  0.00  0.00    +0.000 C 
ATOM     25  O   UNL     1       1.631  10.172  18.242  0.00  0.00    +0.000 OA
ENDBRANCH  16  25
ENDBRANCH  15  21
ENDBRANCH  14  15
ENDBRANCH   1  14
TORSDOF 6
ENDMDL
MODEL 4
REMARK VINA RESULT:      -6.7      2.071      2.933
REMARK  Name = 
REMARK  7 active torsions:
REMARK  status: ('A' for Active; 'I' for Inactive)
REMARK    1  A    between atoms: C_1  and  O_2
REMARK    2  A    between atoms: O_2  and  C_3
REMARK    3  A    between atoms: C_8  and  C_9
REMARK    4  A    between atoms: C_9  and  C_10
REMARK    5  A    between atoms: C_10  and  N_11
REMARK    6  A    between atoms: N_11  and  C_12
REMARK    7  A    between atoms: C_12  and  N_14
REMARK                            x       y       z     vdW  Elec       q    Type
REMARK                         _______ _______ _______ _____ _____    ______ ____
ROOT
ATOM      1  N   UNL     1       6.492   4.325  17.783  0.00  0.00    +0.000 N 
ATOM      2  H   UNL     1       6.913   3.498  17.375  0.00  0.00    +0.000 HD
ENDROOT
BRANCH   1   3
ATOM      3  C   UNL     1       7.238   5.493  17.667  0.00  0.00    +0.000 C 
ATOM      4  S   UNL     1       7.877   6.326  18.980  0.00  0.00    +0.000 S 
BRANCH   3   5
ATOM      5  N   UNL     1       7.284   5.914  16.345  0.00  0.00    +0.000 N 
ATOM      6  C   UNL     1       6.835   5.181  15.231  0.00  0.00    +0.000 A 
ATOM      7  C   UNL     1       5.601   4.534  15.243  0.00  0.00    +0.000 A 
ATOM      8  C   UNL     1       5.213   3.791  14.131  0.00  0.00    +0.000 A 
ATOM      9  C   UNL     1       6.064   3.727  13.039  0.00  0.00    +0.000 A 
ATOM     10 BR   UNL     1       5.611   2.689  11.533  0.00  0.00    +0.000 Br
ATOM     11  C   UNL     1       7.251   4.443  13.088  0.00  0.00    +0.000 A 
ATOM     12  N   UNL     1       7.642   5.194  14.150  0.00  0.00    +0.000 NA
ATOM     13  H   UNL     1       8.119   6.443  16.122  0.00  0.00    +0.000 HD
ENDBRANCH   3   5
ENDBRANCH   1   3
BRANCH   1  14
ATOM     14  C   UNL     1       5.409   4.150  18.750  0.00  0.00    +0.000 C 
BRANCH  14  15
ATOM     15  C   UNL     1       4.000   4.173  18.156  0.00  0.00    +0.000 C 
BRANCH  15  21
ATOM     16  C   UNL     1       2.405   7.543  19.065  0.00  0.00    +0.000 A 
ATOM     17  C   UNL     1       1.726   7.216  20.240  0.00  0.00    +0.000 A 
ATOM     18  C   UNL     1       1.764   5.904  20.723  0.00  0.00    +0.000 A 
ATOM     19  C   UNL     1       2.477   4.924  20.034  0.00  0.00    +0.000 A 
ATOM     20  F   UNL     1       2.512   3.683  20.534  0.00  0.00    +0.000 F 
ATOM     21  C   UNL     1       3.162   5.214  18.858  0.00  0.00    +0.000 A 
ATOM     22  C   UNL     1       3.116   6.534  18.391  0.00  0.00    +0.000 A 
ATOM     23  F   UNL     1       3.797   6.846  17.278  0.00  0.00    +0.000 F 
BRANCH  16  25
ATOM     24  C   UNL     1       1.297   9.221  17.789  0.00  0.00    +0.000 C 
ATOM     25  O   UNL     1       2.452   8.785  18.493  0.00  0.00    +0.000 OA
ENDBRANCH  16  25
ENDBRANCH  15  21
ENDBRANCH  14  15
ENDBRANCH   1  14
TORSDOF 6
ENDMDL
MODEL 5
REMARK VINA RESULT:      -6.6      3.514      4.959
REMARK  Name = 
REMARK  7 active torsions:
REMARK  status: ('A' for Active; 'I' for Inactive)
REMARK    1  A    between atoms: C_1  and  O_2
REMARK    2  A    between atoms: O_2  and  C_3
REMARK    3  A    between atoms: C_8  and  C_9
REMARK    4  A    between atoms: C_9  and  C_10
REMARK    5  A    between atoms: C_10  and  N_11
REMARK    6  A    between atoms: N_11  and  C_12
REMARK    7  A    between atoms: C_12  and  N_14
REMARK                            x       y       z     vdW  Elec       q    Type
REMARK                         _______ _______ _______ _____ _____    ______ ____
ROOT
ATOM      1  N   UNL     1       2.560   4.103  17.674  0.00  0.00    +0.000 N 
ATOM      2  H   UNL     1       1.926   4.002  16.889  0.00  0.00    +0.000 HD
ENDROOT
BRANCH   1   3
ATOM      3  C   UNL     1       3.545   3.125  17.775  0.00  0.00    +0.000 C 
ATOM      4  S   UNL     1       3.422   1.780  18.775  0.00  0.00    +0.000 S 
BRANCH   3   5
ATOM      5  N   UNL     1       4.659   3.475  17.025  0.00  0.00    +0.000 N 
ATOM      6  C   UNL     1       5.525   4.550  17.289  0.00  0.00    +0.000 A 
ATOM      7  C   UNL     1       6.007   4.791  18.574  0.00  0.00    +0.000 A 
ATOM      8  C   UNL     1       6.834   5.888  18.795  0.00  0.00    +0.000 A 
ATOM      9  C   UNL     1       7.164   6.704  17.725  0.00  0.00    +0.000 A 
ATOM     10 BR   UNL     1       8.234   8.235  17.983  0.00  0.00    +0.000 Br
ATOM     11  C   UNL     1       6.685   6.366  16.469  0.00  0.00    +0.000 A 
ATOM     12  N   UNL     1       5.896   5.288  16.221  0.00  0.00    +0.000 NA
ATOM     13  H   UNL     1       4.526   3.349  16.028  0.00  0.00    +0.000 HD
ENDBRANCH   3   5
ENDBRANCH   1   3
BRANCH   1  14
ATOM     14  C   UNL     1       2.162   4.968  18.784  0.00  0.00    +0.000 C 
BRANCH  14  15
ATOM     15  C   UNL     1       3.081   6.165  19.034  0.00  0.00    +0.000 C 
BRANCH  15  21
ATOM     16  C   UNL     1       0.683   8.668  20.679  0.00  0.00    +0.000 A 
ATOM     17  C   UNL     1       0.584   9.645  19.687  0.00  0.00    +0.000 A 
ATOM     18  C   UNL     1       1.311   9.507  18.500  0.00  0.00    +0.000 A 
ATOM     19  C   UNL     1       2.132   8.396  18.307  0.00  0.00    +0.000 A 
ATOM     20  F   UNL     1       2.797   8.282  17.151  0.00  0.00    +0.000 F 
ATOM     21  C   UNL     1       2.256   7.406  19.276  0.00  0.00    +0.000 A 
ATOM     22  C   UNL     1       1.519   7.559  20.456  0.00  0.00    +0.000 A 
ATOM     23  F   UNL     1       1.594   6.599  21.391  0.00  0.00    +0.000 F 
BRANCH  16  25
ATOM     24  C   UNL     1       0.423   9.657  22.830  0.00  0.00    +0.000 C 
ATOM     25  O   UNL     1       0.022   8.681  21.877  0.00  0.00    +0.000 OA
ENDBRANCH  16  25
ENDBRANCH  15  21
ENDBRANCH  14  15
ENDBRANCH   1  14
TORSDOF 6
ENDMDL
MODEL 6
REMARK VINA RESULT:      -6.6      6.516      8.630
REMARK  Name = 
REMARK  7 active torsions:
REMARK  status: ('A' for Active; 'I' for Inactive)
REMARK    1  A    between atoms: C_1  and  O_2
REMARK    2  A    between atoms: O_2  and  C_3
REMARK    3  A    between atoms: C_8  and  C_9
REMARK    4  A    between atoms: C_9  and  C_10
REMARK    5  A    between atoms: C_10  and  N_11
REMARK    6  A    between atoms: N_11  and  C_12
REMARK    7  A    between atoms: C_12  and  N_14
REMARK                            x       y       z     vdW  Elec       q    Type
REMARK                         _______ _______ _______ _____ _____    ______ ____
ROOT
ATOM      1  N   UNL     1       7.663   8.384  17.403  0.00  0.00    +0.000 N 
ATOM      2  H   UNL     1       6.996   8.887  16.829  0.00  0.00    +0.000 HD
ENDROOT
BRANCH   1   3
ATOM      3  C   UNL     1       7.306   7.079  17.726  0.00  0.00    +0.000 C 
ATOM      4  S   UNL     1       8.011   6.203  18.976  0.00  0.00    +0.000 S 
BRANCH   3   5
ATOM      5  N   UNL     1       6.381   6.586  16.817  0.00  0.00    +0.000 N 
ATOM      6  C   UNL     1       5.220   5.859  17.136  0.00  0.00    +0.000 A 
ATOM      7  C   UNL     1       4.367   6.272  18.157  0.00  0.00    +0.000 A 
ATOM      8  C   UNL     1       3.248   5.503  18.461  0.00  0.00    +0.000 A 
ATOM      9  C   UNL     1       3.009   4.351  17.728  0.00  0.00    +0.000 A 
ATOM     10 BR   UNL     1       1.539   3.244  18.137  0.00  0.00    +0.000 Br
ATOM     11  C   UNL     1       3.878   4.038  16.694  0.00  0.00    +0.000 A 
ATOM     12  N   UNL     1       4.963   4.784  16.361  0.00  0.00    +0.000 NA
ATOM     13  H   UNL     1       6.804   6.243  15.962  0.00  0.00    +0.000 HD
ENDBRANCH   3   5
ENDBRANCH   1   3
BRANCH   1  14
ATOM     14  C   UNL     1       8.673   9.151  18.132  0.00  0.00    +0.000 C 
BRANCH  14  15
ATOM     15  C   UNL     1       8.397  10.651  18.235  0.00  0.00    +0.000 C 
BRANCH  15  21
ATOM     16  C   UNL     1      11.631  12.715  18.328  0.00  0.00    +0.000 A 
ATOM     17  C   UNL     1      12.001  12.583  19.668  0.00  0.00    +0.000 A 
ATOM     18  C   UNL     1      11.193  11.851  20.543  0.00  0.00    +0.000 A 
ATOM     19  C   UNL     1      10.022  11.252  20.081  0.00  0.00    +0.000 A 
ATOM     20  F   UNL     1       9.283  10.539  20.939  0.00  0.00    +0.000 F 
ATOM     21  C   UNL     1       9.622  11.366  18.754  0.00  0.00    +0.000 A 
ATOM     22  C   UNL     1      10.444  12.101  17.890  0.00  0.00    +0.000 A 
ATOM     23  F   UNL     1      10.097  12.195  16.597  0.00  0.00    +0.000 F 
BRANCH  16  25
ATOM     24  C   UNL     1      12.055  14.783  17.226  0.00  0.00    +0.000 C 
ATOM     25  O   UNL     1      12.333  13.396  17.372  0.00  0.00    +0.000 OA
ENDBRANCH  16  25
ENDBRANCH  15  21
ENDBRANCH  14  15
ENDBRANCH   1  14
TORSDOF 6
ENDMDL
MODEL 7
REMARK VINA RESULT:      -6.6      3.316      4.797
REMARK  Name = 
REMARK  7 active torsions:
REMARK  status: ('A' for Active; 'I' for Inactive)
REMARK    1  A    between atoms: C_1  and  O_2
REMARK    2  A    between atoms: O_2  and  C_3
REMARK    3  A    between atoms: C_8  and  C_9
REMARK    4  A    between atoms: C_9  and  C_10
REMARK    5  A    between atoms: C_10  and  N_11
REMARK    6  A    between atoms: N_11  and  C_12
REMARK    7  A    between atoms: C_12  and  N_14
REMARK                            x       y       z     vdW  Elec       q    Type
REMARK                         _______ _______ _______ _____ _____    ______ ____
ROOT
ATOM      1  N   UNL     1       2.755   3.891  19.894  0.00  0.00    +0.000 N 
ATOM      2  H   UNL     1       2.735   3.577  20.858  0.00  0.00    +0.000 HD
ENDROOT
BRANCH   1   3
ATOM      3  C   UNL     1       3.692   3.261  19.081  0.00  0.00    +0.000 C 
ATOM      4  S   UNL     1       3.544   1.673  18.548  0.00  0.00    +0.000 S 
BRANCH   3   5
ATOM      5  N   UNL     1       4.789   4.084  18.869  0.00  0.00    +0.000 N 
ATOM      6  C   UNL     1       5.389   4.354  17.627  0.00  0.00    +0.000 A 
ATOM      7  C   UNL     1       4.622   4.672  16.508  0.00  0.00    +0.000 A 
ATOM      8  C   UNL     1       5.257   4.897  15.290  0.00  0.00    +0.000 A 
ATOM      9  C   UNL     1       6.639   4.809  15.230  0.00  0.00    +0.000 A 
ATOM     10 BR   UNL     1       7.542   5.048  13.593  0.00  0.00    +0.000 Br
ATOM     11  C   UNL     1       7.332   4.538  16.400  0.00  0.00    +0.000 A 
ATOM     12  N   UNL     1       6.739   4.339  17.605  0.00  0.00    +0.000 NA
ATOM     13  H   UNL     1       5.483   4.022  19.605  0.00  0.00    +0.000 HD
ENDBRANCH   3   5
ENDBRANCH   1   3
BRANCH   1  14
ATOM     14  C   UNL     1       2.131   5.172  19.566  0.00  0.00    +0.000 C 
BRANCH  14  15
ATOM     15  C   UNL     1       2.906   6.407  20.027  0.00  0.00    +0.000 C 
BRANCH  15  21
ATOM     16  C   UNL     1       0.626   9.492  19.941  0.00  0.00    +0.000 A 
ATOM     17  C   UNL     1       0.788   9.916  18.621  0.00  0.00    +0.000 A 
ATOM     18  C   UNL     1       1.652   9.220  17.769  0.00  0.00    +0.000 A 
ATOM     19  C   UNL     1       2.349   8.107  18.235  0.00  0.00    +0.000 A 
ATOM     20  F   UNL     1       3.151   7.450  17.389  0.00  0.00    +0.000 F 
ATOM     21  C   UNL     1       2.214   7.660  19.545  0.00  0.00    +0.000 A 
ATOM     22  C   UNL     1       1.342   8.366  20.384  0.00  0.00    +0.000 A 
ATOM     23  F   UNL     1       1.168   7.933  21.642  0.00  0.00    +0.000 F 
BRANCH  16  25
ATOM     24  C   UNL     1      -0.764  11.335  20.531  0.00  0.00    +0.000 C 
ATOM     25  O   UNL     1      -0.191  10.078  20.870  0.00  0.00    +0.000 OA
ENDBRANCH  16  25
ENDBRANCH  15  21
ENDBRANCH  14  15
ENDBRANCH   1  14
TORSDOF 6
ENDMDL
MODEL 8
REMARK VINA RESULT:      -6.6      4.729      6.190
REMARK  Name = 
REMARK  7 active torsions:
REMARK  status: ('A' for Active; 'I' for Inactive)
REMARK    1  A    between atoms: C_1  and  O_2
REMARK    2  A    between atoms: O_2  and  C_3
REMARK    3  A    between atoms: C_8  and  C_9
REMARK    4  A    between atoms: C_9  and  C_10
REMARK    5  A    between atoms: C_10  and  N_11
REMARK    6  A    between atoms: N_11  and  C_12
REMARK    7  A    between atoms: C_12  and  N_14
REMARK                            x       y       z     vdW  Elec       q    Type
REMARK                         _______ _______ _______ _____ _____    ______ ____
ROOT
ATOM      1  N   UNL     1       2.091   7.245  20.097  0.00  0.00    +0.000 N 
ATOM      2  H   UNL     1       1.888   7.643  19.187  0.00  0.00    +0.000 HD
ENDROOT
BRANCH   1   3
ATOM      3  C   UNL     1       2.433   5.896  20.094  0.00  0.00    +0.000 C 
ATOM      4  S   UNL     1       1.333   4.656  20.372  0.00  0.00    +0.000 S 
BRANCH   3   5
ATOM      5  N   UNL     1       3.803   5.739  19.937  0.00  0.00    +0.000 N 
ATOM      6  C   UNL     1       4.478   5.565  18.716  0.00  0.00    +0.000 A 
ATOM      7  C   UNL     1       4.192   6.367  17.613  0.00  0.00    +0.000 A 
ATOM      8  C   UNL     1       4.860   6.136  16.414  0.00  0.00    +0.000 A 
ATOM      9  C   UNL     1       5.800   5.118  16.356  0.00  0.00    +0.000 A 
ATOM     10 BR   UNL     1       6.690   4.727  14.742  0.00  0.00    +0.000 Br
ATOM     11  C   UNL     1       6.062   4.400  17.513  0.00  0.00    +0.000 A 
ATOM     12  N   UNL     1       5.443   4.621  18.702  0.00  0.00    +0.000 NA
ATOM     13  H   UNL     1       4.229   5.186  20.673  0.00  0.00    +0.000 HD
ENDBRANCH   3   5
ENDBRANCH   1   3
BRANCH   1  14
ATOM     14  C   UNL     1       1.640   7.962  21.288  0.00  0.00    +0.000 C 
BRANCH  14  15
ATOM     15  C   UNL     1       0.125   8.133  21.406  0.00  0.00    +0.000 C 
BRANCH  15  21
ATOM     16  C   UNL     1      -0.511  11.653  20.018  0.00  0.00    +0.000 A 
ATOM     17  C   UNL     1      -0.755  12.370  21.191  0.00  0.00    +0.000 A 
ATOM     18  C   UNL     1      -0.739  11.711  22.424  0.00  0.00    +0.000 A 
ATOM     19  C   UNL     1      -0.479  10.343  22.484  0.00  0.00    +0.000 A 
ATOM     20  F   UNL     1      -0.448   9.746  23.682  0.00  0.00    +0.000 F 
ATOM     21  C   UNL     1      -0.235   9.598  21.335  0.00  0.00    +0.000 A 
ATOM     22  C   UNL     1      -0.253  10.274  20.109  0.00  0.00    +0.000 A 
ATOM     23  F   UNL     1       0.014   9.584  18.990  0.00  0.00    +0.000 F 
BRANCH  16  25
ATOM     24  C   UNL     1      -1.685  12.071  17.988  0.00  0.00    +0.000 C 
ATOM     25  O   UNL     1      -0.493  12.178  18.755  0.00  0.00    +0.000 OA
ENDBRANCH  16  25
ENDBRANCH  15  21
ENDBRANCH  14  15
ENDBRANCH   1  14
TORSDOF 6
ENDMDL
MODEL 9
REMARK VINA RESULT:      -6.5      4.536      6.133
REMARK  Name = 
REMARK  7 active torsions:
REMARK  status: ('A' for Active; 'I' for Inactive)
REMARK    1  A    between atoms: C_1  and  O_2
REMARK    2  A    between atoms: O_2  and  C_3
REMARK    3  A    between atoms: C_8  and  C_9
REMARK    4  A    between atoms: C_9  and  C_10
REMARK    5  A    between atoms: C_10  and  N_11
REMARK    6  A    between atoms: N_11  and  C_12
REMARK    7  A    between atoms: C_12  and  N_14
REMARK                            x       y       z     vdW  Elec       q    Type
REMARK                         _______ _______ _______ _____ _____    ______ ____
ROOT
ATOM      1  N   UNL     1       2.053   5.555  21.101  0.00  0.00    +0.000 N 
ATOM      2  H   UNL     1       2.955   5.725  21.532  0.00  0.00    +0.000 HD
ENDROOT
BRANCH   1   3
ATOM      3  C   UNL     1       1.938   4.350  20.414  0.00  0.00    +0.000 C 
ATOM      4  S   UNL     1       1.435   2.915  21.129  0.00  0.00    +0.000 S 
BRANCH   3   5
ATOM      5  N   UNL     1       2.391   4.487  19.109  0.00  0.00    +0.000 N 
ATOM      6  C   UNL     1       3.616   5.056  18.718  0.00  0.00    +0.000 A 
ATOM      7  C   UNL     1       4.806   4.719  19.359  0.00  0.00    +0.000 A 
ATOM      8  C   UNL     1       5.990   5.333  18.961  0.00  0.00    +0.000 A 
ATOM      9  C   UNL     1       5.950   6.257  17.929  0.00  0.00    +0.000 A 
ATOM     10 BR   UNL     1       7.515   7.159  17.391  0.00  0.00    +0.000 Br
ATOM     11  C   UNL     1       4.733   6.498  17.309  0.00  0.00    +0.000 A 
ATOM     12  N   UNL     1       3.568   5.894  17.661  0.00  0.00    +0.000 NA
ATOM     13  H   UNL     1       1.654   4.718  18.452  0.00  0.00    +0.000 HD
ENDBRANCH   3   5
ENDBRANCH   1   3
BRANCH   1  14
ATOM     14  C   UNL     1       1.151   6.689  20.903  0.00  0.00    +0.000 C 
BRANCH  14  15
ATOM     15  C   UNL     1       1.824   7.975  20.422  0.00  0.00    +0.000 C 
BRANCH  15  21
ATOM     16  C   UNL     1      -0.460  10.932  19.547  0.00  0.00    +0.000 A 
ATOM     17  C   UNL     1      -0.781  11.415  20.817  0.00  0.00    +0.000 A 
ATOM     18  C   UNL     1      -0.282  10.770  21.953  0.00  0.00    +0.000 A 
ATOM     19  C   UNL     1       0.536   9.649  21.819  0.00  0.00    +0.000 A 
ATOM     20  F   UNL     1       1.017   9.068  22.925  0.00  0.00    +0.000 F 
ATOM     21  C   UNL     1       0.874   9.140  20.570  0.00  0.00    +0.000 A 
ATOM     22  C   UNL     1       0.367   9.799  19.443  0.00  0.00    +0.000 A 
ATOM     23  F   UNL     1       0.707   9.348  18.226  0.00  0.00    +0.000 F 
BRANCH  16  25
ATOM     24  C   UNL     1      -2.222  11.225  17.971  0.00  0.00    +0.000 C 
ATOM     25  O   UNL     1      -0.877  11.473  18.362  0.00  0.00    +0.000 OA
ENDBRANCH  16  25
ENDBRANCH  15  21
ENDBRANCH  14  15
ENDBRANCH   1  14
TORSDOF 6
ENDMDL
