MODEL 1
REMARK VINA RESULT:      -8.1      0.000      0.000
REMARK  Name = 
REMARK  3 active torsions:
REMARK  status: ('A' for Active; 'I' for Inactive)
REMARK    1  A    between atoms: N_1  and  C_2
REMARK    2  A    between atoms: N_6  and  C_7
REMARK    3  A    between atoms: N_15  and  C_16
REMARK                            x       y       z     vdW  Elec       q    Type
REMARK                         _______ _______ _______ _____ _____    ______ ____
ROOT
ATOM      1  C   UNL     1       1.382   2.734  19.029  0.00  0.00    +0.000 C 
ATOM      2  C   UNL     1       2.372   3.526  19.479  0.00  0.00    +0.000 C 
ATOM      3  C   UNL     1       3.733   3.259  19.013  0.00  0.00    +0.000 C 
ATOM      4  O   UNL     1       4.196   2.119  19.032  0.00  0.00    +0.000 OA
ATOM      5  N   UNL     1       4.360   4.392  18.538  0.00  0.00    +0.000 N 
ATOM      6  C   UNL     1       4.160   5.605  19.185  0.00  0.00    +0.000 C 
ATOM      7  O   UNL     1       5.062   6.405  19.446  0.00  0.00    +0.000 OA
ATOM      8  N   UNL     1       2.826   5.852  19.574  0.00  0.00    +0.000 N 
ATOM      9  C   UNL     1       2.015   4.831  20.061  0.00  0.00    +0.000 C 
ATOM     10  O   UNL     1       1.058   4.923  20.820  0.00  0.00    +0.000 OA
ENDROOT
BRANCH   5  11
ATOM     11  C   UNL     1       5.228   4.282  17.399  0.00  0.00    +0.000 A 
ATOM     12  C   UNL     1       4.649   4.217  16.114  0.00  0.00    +0.000 A 
ATOM     13  C   UNL     1       5.424   4.281  14.956  0.00  0.00    +0.000 A 
ATOM     14  C   UNL     1       6.801   4.398  15.054  0.00  0.00    +0.000 A 
ATOM     15  C   UNL     1       7.403   4.449  16.309  0.00  0.00    +0.000 A 
ATOM     16  C   UNL     1       6.622   4.405  17.471  0.00  0.00    +0.000 A 
ENDBRANCH   5  11
BRANCH   8  17
ATOM     17  C   UNL     1       2.317   7.189  19.400  0.00  0.00    +0.000 A 
ATOM     18  C   UNL     1       2.299   7.744  18.103  0.00  0.00    +0.000 A 
ATOM     19  C   UNL     1       1.671   8.963  17.836  0.00  0.00    +0.000 A 
ATOM     20  C   UNL     1       1.062   9.664  18.865  0.00  0.00    +0.000 A 
ATOM     21  C   UNL     1       1.079   9.147  20.157  0.00  0.00    +0.000 A 
ATOM     22  C   UNL     1       1.694   7.916  20.422  0.00  0.00    +0.000 A 
ENDBRANCH   8  17
BRANCH   1  23
ATOM     23  N   UNL     1       1.483   1.640  18.198  0.00  0.00    +0.000 N 
ATOM     24  H   UNL     1       2.156   1.734  17.442  0.00  0.00    +0.000 HD
ATOM     25  H   UNL     1       0.578   1.279  17.875  0.00  0.00    +0.000 HD
ENDBRANCH   1  23
TORSDOF 3
ENDMDL
MODEL 2
REMARK VINA RESULT:      -7.9      0.165      1.015
REMARK  Name = 
REMARK  3 active torsions:
REMARK  status: ('A' for Active; 'I' for Inactive)
REMARK    1  A    between atoms: N_1  and  C_2
REMARK    2  A    between atoms: N_6  and  C_7
REMARK    3  A    between atoms: N_15  and  C_16
REMARK                            x       y       z     vdW  Elec       q    Type
REMARK                         _______ _______ _______ _____ _____    ______ ____
ROOT
ATOM      1  C   UNL     1       1.561   2.621  19.193  0.00  0.00    +0.000 C 
ATOM      2  C   UNL     1       2.497   3.511  19.572  0.00  0.00    +0.000 C 
ATOM      3  C   UNL     1       3.866   3.315  19.095  0.00  0.00    +0.000 C 
ATOM      4  O   UNL     1       4.413   2.215  19.175  0.00  0.00    +0.000 OA
ATOM      5  N   UNL     1       4.400   4.458  18.538  0.00  0.00    +0.000 N 
ATOM      6  C   UNL     1       4.121   5.692  19.113  0.00  0.00    +0.000 C 
ATOM      7  O   UNL     1       4.965   6.570  19.305  0.00  0.00    +0.000 OA
ATOM      8  N   UNL     1       2.778   5.865  19.513  0.00  0.00    +0.000 N 
ATOM      9  C   UNL     1       2.054   4.820  20.079  0.00  0.00    +0.000 C 
ATOM     10  O   UNL     1       1.104   4.890  20.851  0.00  0.00    +0.000 OA
ENDROOT
BRANCH   5  11
ATOM     11  C   UNL     1       5.256   4.340  17.391  0.00  0.00    +0.000 A 
ATOM     12  C   UNL     1       4.662   4.267  16.113  0.00  0.00    +0.000 A 
ATOM     13  C   UNL     1       5.425   4.324  14.945  0.00  0.00    +0.000 A 
ATOM     14  C   UNL     1       6.803   4.439  15.027  0.00  0.00    +0.000 A 
ATOM     15  C   UNL     1       7.418   4.497  16.275  0.00  0.00    +0.000 A 
ATOM     16  C   UNL     1       6.650   4.461  17.446  0.00  0.00    +0.000 A 
ENDBRANCH   5  11
BRANCH   8  17
ATOM     17  C   UNL     1       2.169   7.148  19.268  0.00  0.00    +0.000 A 
ATOM     18  C   UNL     1       1.665   7.879  20.364  0.00  0.00    +0.000 A 
ATOM     19  C   UNL     1       1.213   9.193  20.223  0.00  0.00    +0.000 A 
ATOM     20  C   UNL     1       1.239   9.800  18.978  0.00  0.00    +0.000 A 
ATOM     21  C   UNL     1       1.715   9.096  17.876  0.00  0.00    +0.000 A 
ATOM     22  C   UNL     1       2.184   7.783  18.020  0.00  0.00    +0.000 A 
ENDBRANCH   8  17
BRANCH   1  23
ATOM     23  N   UNL     1       1.730   1.487  18.429  0.00  0.00    +0.000 N 
ATOM     24  H   UNL     1       2.650   1.060  18.489  0.00  0.00    +0.000 HD
ATOM     25  H   UNL     1       1.407   1.588  17.460  0.00  0.00    +0.000 HD
ENDBRANCH   1  23
TORSDOF 3
ENDMDL
MODEL 3
REMARK VINA RESULT:      -7.5      0.222      1.026
REMARK  Name = 
REMARK  3 active torsions:
REMARK  status: ('A' for Active; 'I' for Inactive)
REMARK    1  A    between atoms: N_1  and  C_2
REMARK    2  A    between atoms: N_6  and  C_7
REMARK    3  A    between atoms: N_15  and  C_16
REMARK                            x       y       z     vdW  Elec       q    Type
REMARK                         _______ _______ _______ _____ _____    ______ ____
ROOT
ATOM      1  C   UNL     1       1.436   2.800  18.961  0.00  0.00    +0.000 C 
ATOM      2  C   UNL     1       2.427   3.609  19.382  0.00  0.00    +0.000 C 
ATOM      3  C   UNL     1       3.763   3.409  18.822  0.00  0.00    +0.000 C 
ATOM      4  O   UNL     1       4.263   2.286  18.765  0.00  0.00    +0.000 OA
ATOM      5  N   UNL     1       4.322   4.580  18.357  0.00  0.00    +0.000 N 
ATOM      6  C   UNL     1       4.124   5.759  19.065  0.00  0.00    +0.000 C 
ATOM      7  O   UNL     1       5.013   6.579  19.303  0.00  0.00    +0.000 OA
ATOM      8  N   UNL     1       2.809   5.944  19.545  0.00  0.00    +0.000 N 
ATOM      9  C   UNL     1       2.065   4.876  20.038  0.00  0.00    +0.000 C 
ATOM     10  O   UNL     1       1.154   4.905  20.858  0.00  0.00    +0.000 OA
ENDROOT
BRANCH   5  11
ATOM     11  C   UNL     1       5.120   4.546  17.163  0.00  0.00    +0.000 A 
ATOM     12  C   UNL     1       6.525   4.567  17.291  0.00  0.00    +0.000 A 
ATOM     13  C   UNL     1       7.364   4.364  16.194  0.00  0.00    +0.000 A 
ATOM     14  C   UNL     1       6.819   4.151  14.939  0.00  0.00    +0.000 A 
ATOM     15  C   UNL     1       5.435   4.140  14.779  0.00  0.00    +0.000 A 
ATOM     16  C   UNL     1       4.594   4.323  15.884  0.00  0.00    +0.000 A 
ENDBRANCH   5  11
BRANCH   8  17
ATOM     17  C   UNL     1       2.247   7.268  19.459  0.00  0.00    +0.000 A 
ATOM     18  C   UNL     1       2.163   7.888  18.194  0.00  0.00    +0.000 A 
ATOM     19  C   UNL     1       1.483   9.094  18.012  0.00  0.00    +0.000 A 
ATOM     20  C   UNL     1       0.886   9.718  19.097  0.00  0.00    +0.000 A 
ATOM     21  C   UNL     1       0.968   9.137  20.358  0.00  0.00    +0.000 A 
ATOM     22  C   UNL     1       1.636   7.918  20.538  0.00  0.00    +0.000 A 
ENDBRANCH   8  17
BRANCH   1  23
ATOM     23  N   UNL     1       1.521   1.744  18.081  0.00  0.00    +0.000 N 
ATOM     24  H   UNL     1       1.666   0.835  18.511  0.00  0.00    +0.000 HD
ATOM     25  H   UNL     1       2.156   1.912  17.292  0.00  0.00    +0.000 HD
ENDBRANCH   1  23
TORSDOF 3
ENDMDL
MODEL 4
REMARK VINA RESULT:      -7.3      0.279      1.441
REMARK  Name = 
REMARK  3 active torsions:
REMARK  status: ('A' for Active; 'I' for Inactive)
REMARK    1  A    between atoms: N_1  and  C_2
REMARK    2  A    between atoms: N_6  and  C_7
REMARK    3  A    between atoms: N_15  and  C_16
REMARK                            x       y       z     vdW  Elec       q    Type
REMARK                         _______ _______ _______ _____ _____    ______ ____
ROOT
ATOM      1  C   UNL     1       1.539   2.734  18.997  0.00  0.00    +0.000 C 
ATOM      2  C   UNL     1       2.470   3.621  19.395  0.00  0.00    +0.000 C 
ATOM      3  C   UNL     1       3.826   3.478  18.867  0.00  0.00    +0.000 C 
ATOM      4  O   UNL     1       4.396   2.387  18.872  0.00  0.00    +0.000 OA
ATOM      5  N   UNL     1       4.322   4.659  18.356  0.00  0.00    +0.000 N 
ATOM      6  C   UNL     1       4.038   5.855  19.005  0.00  0.00    +0.000 C 
ATOM      7  O   UNL     1       4.871   6.739  19.218  0.00  0.00    +0.000 OA
ATOM      8  N   UNL     1       2.706   5.980  19.454  0.00  0.00    +0.000 N 
ATOM      9  C   UNL     1       2.019   4.892  19.985  0.00  0.00    +0.000 C 
ATOM     10  O   UNL     1       1.093   4.902  20.788  0.00  0.00    +0.000 OA
ENDROOT
BRANCH   5  11
ATOM     11  C   UNL     1       5.143   4.619  17.179  0.00  0.00    +0.000 A 
ATOM     12  C   UNL     1       6.545   4.659  17.334  0.00  0.00    +0.000 A 
ATOM     13  C   UNL     1       7.407   4.453  16.256  0.00  0.00    +0.000 A 
ATOM     14  C   UNL     1       6.889   4.217  14.993  0.00  0.00    +0.000 A 
ATOM     15  C   UNL     1       5.509   4.187  14.807  0.00  0.00    +0.000 A 
ATOM     16  C   UNL     1       4.644   4.373  15.893  0.00  0.00    +0.000 A 
ENDBRANCH   5  11
BRANCH   8  17
ATOM     17  C   UNL     1       2.065   7.261  19.296  0.00  0.00    +0.000 A 
ATOM     18  C   UNL     1       1.603   7.933  20.448  0.00  0.00    +0.000 A 
ATOM     19  C   UNL     1       1.125   9.244  20.388  0.00  0.00    +0.000 A 
ATOM     20  C   UNL     1       1.081   9.907  19.172  0.00  0.00    +0.000 A 
ATOM     21  C   UNL     1       1.515   9.262  18.018  0.00  0.00    +0.000 A 
ATOM     22  C   UNL     1       2.011   7.952  18.080  0.00  0.00    +0.000 A 
ENDBRANCH   8  17
BRANCH   1  23
ATOM     23  N   UNL     1       1.705   1.645  18.169  0.00  0.00    +0.000 N 
ATOM     24  H   UNL     1       2.644   1.524  17.800  0.00  0.00    +0.000 HD
ATOM     25  H   UNL     1       0.984   1.563  17.443  0.00  0.00    +0.000 HD
ENDBRANCH   1  23
TORSDOF 3
ENDMDL
MODEL 5
REMARK VINA RESULT:      -7.0      2.772      4.428
REMARK  Name = 
REMARK  3 active torsions:
REMARK  status: ('A' for Active; 'I' for Inactive)
REMARK    1  A    between atoms: N_1  and  C_2
REMARK    2  A    between atoms: N_6  and  C_7
REMARK    3  A    between atoms: N_15  and  C_16
REMARK                            x       y       z     vdW  Elec       q    Type
REMARK                         _______ _______ _______ _____ _____    ______ ____
ROOT
ATOM      1  C   UNL     1       5.141   4.124  15.148  0.00  0.00    +0.000 C 
ATOM      2  C   UNL     1       5.629   3.992  16.396  0.00  0.00    +0.000 C 
ATOM      3  C   UNL     1       6.869   4.694  16.726  0.00  0.00    +0.000 C 
ATOM      4  O   UNL     1       7.850   4.629  15.985  0.00  0.00    +0.000 OA
ATOM      5  N   UNL     1       6.768   5.426  17.890  0.00  0.00    +0.000 N 
ATOM      6  C   UNL     1       6.051   4.908  18.962  0.00  0.00    +0.000 C 
ATOM      7  O   UNL     1       6.438   4.942  20.132  0.00  0.00    +0.000 OA
ATOM      8  N   UNL     1       4.834   4.285  18.611  0.00  0.00    +0.000 N 
ATOM      9  C   UNL     1       4.724   3.517  17.455  0.00  0.00    +0.000 C 
ATOM     10  O   UNL     1       3.951   2.593  17.233  0.00  0.00    +0.000 OA
ENDROOT
BRANCH   5  11
ATOM     11  C   UNL     1       7.430   6.698  17.973  0.00  0.00    +0.000 A 
ATOM     12  C   UNL     1       6.976   7.749  17.149  0.00  0.00    +0.000 A 
ATOM     13  C   UNL     1       7.453   9.053  17.294  0.00  0.00    +0.000 A 
ATOM     14  C   UNL     1       8.407   9.335  18.257  0.00  0.00    +0.000 A 
ATOM     15  C   UNL     1       8.885   8.314  19.076  0.00  0.00    +0.000 A 
ATOM     16  C   UNL     1       8.391   7.010  18.943  0.00  0.00    +0.000 A 
ENDBRANCH   5  11
BRANCH   8  17
ATOM     17  C   UNL     1       3.696   4.515  19.464  0.00  0.00    +0.000 A 
ATOM     18  C   UNL     1       3.088   5.789  19.455  0.00  0.00    +0.000 A 
ATOM     19  C   UNL     1       1.888   6.033  20.127  0.00  0.00    +0.000 A 
ATOM     20  C   UNL     1       1.278   5.013  20.838  0.00  0.00    +0.000 A 
ATOM     21  C   UNL     1       1.864   3.752  20.878  0.00  0.00    +0.000 A 
ATOM     22  C   UNL     1       3.059   3.501  20.190  0.00  0.00    +0.000 A 
ENDBRANCH   8  17
BRANCH   1  23
ATOM     23  N   UNL     1       5.691   4.814  14.091  0.00  0.00    +0.000 N 
ATOM     24  H   UNL     1       6.127   4.236  13.378  0.00  0.00    +0.000 HD
ATOM     25  H   UNL     1       6.284   5.602  14.375  0.00  0.00    +0.000 HD
ENDBRANCH   1  23
TORSDOF 3
ENDMDL
MODEL 6
REMARK VINA RESULT:      -6.9      1.861      5.866
REMARK  Name = 
REMARK  3 active torsions:
REMARK  status: ('A' for Active; 'I' for Inactive)
REMARK    1  A    between atoms: N_1  and  C_2
REMARK    2  A    between atoms: N_6  and  C_7
REMARK    3  A    between atoms: N_15  and  C_16
REMARK                            x       y       z     vdW  Elec       q    Type
REMARK                         _______ _______ _______ _____ _____    ______ ____
ROOT
ATOM      1  C   UNL     1       2.769   8.370  17.499  0.00  0.00    +0.000 C 
ATOM      2  C   UNL     1       3.608   7.461  18.033  0.00  0.00    +0.000 C 
ATOM      3  C   UNL     1       3.099   6.599  19.099  0.00  0.00    +0.000 C 
ATOM      4  O   UNL     1       2.480   7.069  20.053  0.00  0.00    +0.000 OA
ATOM      5  N   UNL     1       3.359   5.264  18.867  0.00  0.00    +0.000 N 
ATOM      6  C   UNL     1       4.574   4.893  18.304  0.00  0.00    +0.000 C 
ATOM      7  O   UNL     1       5.258   3.948  18.702  0.00  0.00    +0.000 OA
ATOM      8  N   UNL     1       5.008   5.718  17.244  0.00  0.00    +0.000 N 
ATOM      9  C   UNL     1       4.817   7.096  17.278  0.00  0.00    +0.000 C 
ATOM     10  O   UNL     1       5.477   7.964  16.718  0.00  0.00    +0.000 OA
ENDROOT
BRANCH   5  11
ATOM     11  C   UNL     1       2.374   4.288  19.240  0.00  0.00    +0.000 A 
ATOM     12  C   UNL     1       1.699   3.587  18.217  0.00  0.00    +0.000 A 
ATOM     13  C   UNL     1       0.859   2.509  18.499  0.00  0.00    +0.000 A 
ATOM     14  C   UNL     1       0.660   2.114  19.811  0.00  0.00    +0.000 A 
ATOM     15  C   UNL     1       1.301   2.796  20.843  0.00  0.00    +0.000 A 
ATOM     16  C   UNL     1       2.160   3.865  20.558  0.00  0.00    +0.000 A 
ENDBRANCH   5  11
BRANCH   8  17
ATOM     17  C   UNL     1       5.610   5.076  16.103  0.00  0.00    +0.000 A 
ATOM     18  C   UNL     1       4.777   4.385  15.197  0.00  0.00    +0.000 A 
ATOM     19  C   UNL     1       5.266   3.883  13.989  0.00  0.00    +0.000 A 
ATOM     20  C   UNL     1       6.604   4.046  13.667  0.00  0.00    +0.000 A 
ATOM     21  C   UNL     1       7.451   4.708  14.550  0.00  0.00    +0.000 A 
ATOM     22  C   UNL     1       6.957   5.227  15.755  0.00  0.00    +0.000 A 
ENDBRANCH   8  17
BRANCH   1  23
ATOM     23  N   UNL     1       1.468   8.638  17.862  0.00  0.00    +0.000 N 
ATOM     24  H   UNL     1       0.759   8.181  17.295  0.00  0.00    +0.000 HD
ATOM     25  H   UNL     1       1.275   9.636  18.003  0.00  0.00    +0.000 HD
ENDBRANCH   1  23
TORSDOF 3
ENDMDL
MODEL 7
REMARK VINA RESULT:      -6.9      1.907      5.992
REMARK  Name = 
REMARK  3 active torsions:
REMARK  status: ('A' for Active; 'I' for Inactive)
REMARK    1  A    between atoms: N_1  and  C_2
REMARK    2  A    between atoms: N_6  and  C_7
REMARK    3  A    between atoms: N_15  and  C_16
REMARK                            x       y       z     vdW  Elec       q    Type
REMARK                         _______ _______ _______ _____ _____    ______ ____
ROOT
ATOM      1  C   UNL     1       2.991   8.123  17.487  0.00  0.00    +0.000 C 
ATOM      2  C   UNL     1       3.865   7.204  17.939  0.00  0.00    +0.000 C 
ATOM      3  C   UNL     1       3.419   6.288  18.988  0.00  0.00    +0.000 C 
ATOM      4  O   UNL     1       2.840   6.706  19.990  0.00  0.00    +0.000 OA
ATOM      5  N   UNL     1       3.685   4.969  18.685  0.00  0.00    +0.000 N 
ATOM      6  C   UNL     1       4.877   4.642  18.049  0.00  0.00    +0.000 C 
ATOM      7  O   UNL     1       5.591   3.690  18.371  0.00  0.00    +0.000 OA
ATOM      8  N   UNL     1       5.249   5.518  17.008  0.00  0.00    +0.000 N 
ATOM      9  C   UNL     1       5.042   6.891  17.112  0.00  0.00    +0.000 C 
ATOM     10  O   UNL     1       5.663   7.793  16.561  0.00  0.00    +0.000 OA
ENDROOT
BRANCH   5  11
ATOM     11  C   UNL     1       2.732   3.962  19.059  0.00  0.00    +0.000 A 
ATOM     12  C   UNL     1       2.712   3.518  20.399  0.00  0.00    +0.000 A 
ATOM     13  C   UNL     1       1.709   2.673  20.876  0.00  0.00    +0.000 A 
ATOM     14  C   UNL     1       0.709   2.239  20.022  0.00  0.00    +0.000 A 
ATOM     15  C   UNL     1       0.710   2.648  18.691  0.00  0.00    +0.000 A 
ATOM     16  C   UNL     1       1.706   3.513  18.218  0.00  0.00    +0.000 A 
ENDBRANCH   5  11
BRANCH   8  17
ATOM     17  C   UNL     1       5.804   4.937  15.812  0.00  0.00    +0.000 A 
ATOM     18  C   UNL     1       4.942   4.252  14.928  0.00  0.00    +0.000 A 
ATOM     19  C   UNL     1       5.376   3.809  13.677  0.00  0.00    +0.000 A 
ATOM     20  C   UNL     1       6.689   4.026  13.288  0.00  0.00    +0.000 A 
ATOM     21  C   UNL     1       7.564   4.684  14.146  0.00  0.00    +0.000 A 
ATOM     22  C   UNL     1       7.124   5.143  15.395  0.00  0.00    +0.000 A 
ENDBRANCH   8  17
BRANCH   1  23
ATOM     23  N   UNL     1       1.705   8.355  17.922  0.00  0.00    +0.000 N 
ATOM     24  H   UNL     1       1.474   7.944  18.823  0.00  0.00    +0.000 HD
ATOM     25  H   UNL     1       0.987   8.172  17.212  0.00  0.00    +0.000 HD
ENDBRANCH   1  23
TORSDOF 3
ENDMDL
MODEL 8
REMARK VINA RESULT:      -6.9      2.727      4.459
REMARK  Name = 
REMARK  3 active torsions:
REMARK  status: ('A' for Active; 'I' for Inactive)
REMARK    1  A    between atoms: N_1  and  C_2
REMARK    2  A    between atoms: N_6  and  C_7
REMARK    3  A    between atoms: N_15  and  C_16
REMARK                            x       y       z     vdW  Elec       q    Type
REMARK                         _______ _______ _______ _____ _____    ______ ____
ROOT
ATOM      1  C   UNL     1       5.252   3.880  15.014  0.00  0.00    +0.000 C 
ATOM      2  C   UNL     1       5.656   3.797  16.295  0.00  0.00    +0.000 C 
ATOM      3  C   UNL     1       6.863   4.527  16.683  0.00  0.00    +0.000 C 
ATOM      4  O   UNL     1       7.892   4.450  16.013  0.00  0.00    +0.000 OA
ATOM      5  N   UNL     1       6.675   5.297  17.812  0.00  0.00    +0.000 N 
ATOM      6  C   UNL     1       5.893   4.805  18.851  0.00  0.00    +0.000 C 
ATOM      7  O   UNL     1       6.201   4.884  20.042  0.00  0.00    +0.000 OA
ATOM      8  N   UNL     1       4.710   4.154  18.440  0.00  0.00    +0.000 N 
ATOM      9  C   UNL     1       4.688   3.346  17.307  0.00  0.00    +0.000 C 
ATOM     10  O   UNL     1       3.941   2.404  17.066  0.00  0.00    +0.000 OA
ENDROOT
BRANCH   5  11
ATOM     11  C   UNL     1       7.316   6.579  17.896  0.00  0.00    +0.000 A 
ATOM     12  C   UNL     1       6.791   7.645  17.134  0.00  0.00    +0.000 A 
ATOM     13  C   UNL     1       7.250   8.954  17.292  0.00  0.00    +0.000 A 
ATOM     14  C   UNL     1       8.256   9.227  18.204  0.00  0.00    +0.000 A 
ATOM     15  C   UNL     1       8.804   8.192  18.959  0.00  0.00    +0.000 A 
ATOM     16  C   UNL     1       8.328   6.882  18.815  0.00  0.00    +0.000 A 
ENDBRANCH   5  11
BRANCH   8  17
ATOM     17  C   UNL     1       3.514   4.397  19.207  0.00  0.00    +0.000 A 
ATOM     18  C   UNL     1       2.965   3.336  19.958  0.00  0.00    +0.000 A 
ATOM     19  C   UNL     1       1.909   3.540  20.850  0.00  0.00    +0.000 A 
ATOM     20  C   UNL     1       1.367   4.807  20.997  0.00  0.00    +0.000 A 
ATOM     21  C   UNL     1       1.879   5.867  20.256  0.00  0.00    +0.000 A 
ATOM     22  C   UNL     1       2.949   5.667  19.373  0.00  0.00    +0.000 A 
ENDBRANCH   8  17
BRANCH   1  23
ATOM     23  N   UNL     1       5.864   4.543  13.973  0.00  0.00    +0.000 N 
ATOM     24  H   UNL     1       5.445   5.434  13.723  0.00  0.00    +0.000 HD
ATOM     25  H   UNL     1       6.044   3.950  13.154  0.00  0.00    +0.000 HD
ENDBRANCH   1  23
TORSDOF 3
ENDMDL
MODEL 9
REMARK VINA RESULT:      -6.7      2.699      4.648
REMARK  Name = 
REMARK  3 active torsions:
REMARK  status: ('A' for Active; 'I' for Inactive)
REMARK    1  A    between atoms: N_1  and  C_2
REMARK    2  A    between atoms: N_6  and  C_7
REMARK    3  A    between atoms: N_15  and  C_16
REMARK                            x       y       z     vdW  Elec       q    Type
REMARK                         _______ _______ _______ _____ _____    ______ ____
ROOT
ATOM      1  C   UNL     1       5.153   3.934  15.051  0.00  0.00    +0.000 C 
ATOM      2  C   UNL     1       5.622   3.810  16.307  0.00  0.00    +0.000 C 
ATOM      3  C   UNL     1       6.764   4.635  16.699  0.00  0.00    +0.000 C 
ATOM      4  O   UNL     1       7.765   4.710  15.985  0.00  0.00    +0.000 OA
ATOM      5  N   UNL     1       6.550   5.306  17.884  0.00  0.00    +0.000 N 
ATOM      6  C   UNL     1       5.869   4.670  18.915  0.00  0.00    +0.000 C 
ATOM      7  O   UNL     1       6.220   4.703  20.097  0.00  0.00    +0.000 OA
ATOM      8  N   UNL     1       4.741   3.927  18.506  0.00  0.00    +0.000 N 
ATOM      9  C   UNL     1       4.750   3.196  17.322  0.00  0.00    +0.000 C 
ATOM     10  O   UNL     1       4.093   2.199  17.044  0.00  0.00    +0.000 OA
ENDROOT
BRANCH   5  11
ATOM     11  C   UNL     1       7.061   6.640  18.031  0.00  0.00    +0.000 A 
ATOM     12  C   UNL     1       8.170   6.847  18.879  0.00  0.00    +0.000 A 
ATOM     13  C   UNL     1       8.827   8.077  18.940  0.00  0.00    +0.000 A 
ATOM     14  C   UNL     1       8.380   9.136  18.167  0.00  0.00    +0.000 A 
ATOM     15  C   UNL     1       7.279   8.966  17.332  0.00  0.00    +0.000 A 
ATOM     16  C   UNL     1       6.633   7.725  17.255  0.00  0.00    +0.000 A 
ENDBRANCH   5  11
BRANCH   8  17
ATOM     17  C   UNL     1       3.563   3.994  19.332  0.00  0.00    +0.000 A 
ATOM     18  C   UNL     1       2.737   5.135  19.244  0.00  0.00    +0.000 A 
ATOM     19  C   UNL     1       1.499   5.195  19.888  0.00  0.00    +0.000 A 
ATOM     20  C   UNL     1       1.067   4.122  20.650  0.00  0.00    +0.000 A 
ATOM     21  C   UNL     1       1.868   2.991  20.768  0.00  0.00    +0.000 A 
ATOM     22  C   UNL     1       3.103   2.923  20.108  0.00  0.00    +0.000 A 
ENDBRANCH   8  17
BRANCH   1  23
ATOM     23  N   UNL     1       5.648   4.722  14.035  0.00  0.00    +0.000 N 
ATOM     24  H   UNL     1       6.434   4.327  13.527  0.00  0.00    +0.000 HD
ATOM     25  H   UNL     1       5.808   5.698  14.309  0.00  0.00    +0.000 HD
ENDBRANCH   1  23
TORSDOF 3
ENDMDL
