MODEL 1
REMARK VINA RESULT:      -8.4      0.000      0.000
REMARK  Name = 
REMARK  9 active torsions:
REMARK  status: ('A' for Active; 'I' for Inactive)
REMARK    1  A    between atoms: C_1  and  C_2
REMARK    2  A    between atoms: C_3  and  C_4
REMARK    3  A    between atoms: N_6  and  C_7
REMARK    4  A    between atoms: C_11  and  N_12
REMARK    5  A    between atoms: C_17  and  N_18
REMARK    6  A    between atoms: C_19  and  C_20
REMARK    7  A    between atoms: C_20  and  O_22
REMARK    8  A    between atoms: O_22  and  C_23
REMARK    9  A    between atoms: C_23  and  C_24
REMARK                            x       y       z     vdW  Elec       q    Type
REMARK                         _______ _______ _______ _____ _____    ______ ____
ROOT
ATOM      1  C   UNL     1       5.290   7.332  17.083  0.00  0.00    +0.000 C 
ATOM      2  C   UNL     1       4.788   6.222  17.965  0.00  0.00    +0.000 A 
ATOM      3  C   UNL     1       3.546   6.203  18.615  0.00  0.00    +0.000 A 
ATOM      4  S   UNL     1       3.337   4.754  19.499  0.00  0.00    +0.000 S 
ATOM      5  C   UNL     1       4.864   4.151  19.068  0.00  0.00    +0.000 A 
ATOM      6  C   UNL     1       5.580   5.019  18.258  0.00  0.00    +0.000 A 
ENDROOT
BRANCH   3   7
ATOM      7  C   UNL     1       2.470   7.216  18.611  0.00  0.00    +0.000 C 
ATOM      8  O   UNL     1       1.860   7.499  17.585  0.00  0.00    +0.000 OA
ATOM      9  N   UNL     1       2.229   7.856  19.830  0.00  0.00    +0.000 N 
ATOM     10  H   UNL     1       2.886   7.647  20.572  0.00  0.00    +0.000 HD
BRANCH   9  11
ATOM     11  C   UNL     1       1.234   8.826  20.100  0.00  0.00    +0.000 A 
ATOM     12  C   UNL     1       0.643   9.609  19.099  0.00  0.00    +0.000 A 
ATOM     13  C   UNL     1      -0.312  10.582  19.402  0.00  0.00    +0.000 A 
ATOM     14  C   UNL     1      -0.704  10.790  20.720  0.00  0.00    +0.000 A 
ATOM     15  C   UNL     1      -0.136  10.004  21.729  0.00  0.00    +0.000 A 
ATOM     16  C   UNL     1       0.816   9.011  21.425  0.00  0.00    +0.000 A 
BRANCH  15  17
ATOM     17  N   UNL     1      -0.539  10.235  23.123  0.00  0.00    +0.000 N 
ATOM     18  O   UNL     1       0.168   9.745  24.018  0.00  0.00    +0.000 OA
ATOM     19  O   UNL     1      -1.563  10.905  23.322  0.00  0.00    +0.000 OA
ENDBRANCH  15  17
ENDBRANCH   9  11
ENDBRANCH   3   7
BRANCH   5  20
ATOM     20  N   UNL     1       5.249   2.945  19.535  0.00  0.00    +0.000 N 
ATOM     21  H   UNL     1       5.868   2.861  20.334  0.00  0.00    +0.000 HD
ATOM     22  H   UNL     1       5.208   2.125  18.927  0.00  0.00    +0.000 HD
ENDBRANCH   5  20
BRANCH   6  23
ATOM     23  C   UNL     1       6.967   4.700  17.846  0.00  0.00    +0.000 C 
ATOM     24  O   UNL     1       7.867   4.477  18.654  0.00  0.00    +0.000 OA
BRANCH  23  25
ATOM     25  O   UNL     1       7.185   4.780  16.501  0.00  0.00    +0.000 OA
BRANCH  25  26
ATOM     26  C   UNL     1       6.318   3.975  15.690  0.00  0.00    +0.000 C 
BRANCH  26  27
ATOM     27  C   UNL     1       6.564   4.143  14.212  0.00  0.00    +0.000 A 
ATOM     28  C   UNL     1       7.471   5.104  13.742  0.00  0.00    +0.000 A 
ATOM     29  C   UNL     1       7.750   5.210  12.377  0.00  0.00    +0.000 A 
ATOM     30  C   UNL     1       7.120   4.364  11.466  0.00  0.00    +0.000 A 
ATOM     31  C   UNL     1       6.209   3.413  11.920  0.00  0.00    +0.000 A 
ATOM     32  C   UNL     1       5.928   3.305  13.285  0.00  0.00    +0.000 A 
ENDBRANCH  26  27
ENDBRANCH  25  26
ENDBRANCH  23  25
ENDBRANCH   6  23
TORSDOF 8
ENDMDL
MODEL 2
REMARK VINA RESULT:      -8.1      2.714      9.325
REMARK  Name = 
REMARK  9 active torsions:
REMARK  status: ('A' for Active; 'I' for Inactive)
REMARK    1  A    between atoms: C_1  and  C_2
REMARK    2  A    between atoms: C_3  and  C_4
REMARK    3  A    between atoms: N_6  and  C_7
REMARK    4  A    between atoms: C_11  and  N_12
REMARK    5  A    between atoms: C_17  and  N_18
REMARK    6  A    between atoms: C_19  and  C_20
REMARK    7  A    between atoms: C_20  and  O_22
REMARK    8  A    between atoms: O_22  and  C_23
REMARK    9  A    between atoms: C_23  and  C_24
REMARK                            x       y       z     vdW  Elec       q    Type
REMARK                         _______ _______ _______ _____ _____    ______ ____
ROOT
ATOM      1  C   UNL     1       1.721  11.145  18.073  0.00  0.00    +0.000 C 
ATOM      2  C   UNL     1       1.421  10.276  19.264  0.00  0.00    +0.000 A 
ATOM      3  C   UNL     1       1.736   8.916  19.373  0.00  0.00    +0.000 A 
ATOM      4  S   UNL     1       1.257   8.293  20.893  0.00  0.00    +0.000 S 
ATOM      5  C   UNL     1       0.614   9.776  21.412  0.00  0.00    +0.000 A 
ATOM      6  C   UNL     1       0.730  10.778  20.460  0.00  0.00    +0.000 A 
ENDROOT
BRANCH   3   7
ATOM      7  C   UNL     1       2.399   8.025  18.398  0.00  0.00    +0.000 C 
ATOM      8  O   UNL     1       2.508   8.337  17.216  0.00  0.00    +0.000 OA
ATOM      9  N   UNL     1       2.846   6.798  18.895  0.00  0.00    +0.000 N 
ATOM     10  H   UNL     1       2.574   6.588  19.849  0.00  0.00    +0.000 HD
BRANCH   9  11
ATOM     11  C   UNL     1       3.543   5.792  18.183  0.00  0.00    +0.000 A 
ATOM     12  C   UNL     1       2.914   4.647  17.675  0.00  0.00    +0.000 A 
ATOM     13  C   UNL     1       3.636   3.656  17.006  0.00  0.00    +0.000 A 
ATOM     14  C   UNL     1       5.008   3.793  16.823  0.00  0.00    +0.000 A 
ATOM     15  C   UNL     1       5.646   4.939  17.309  0.00  0.00    +0.000 A 
ATOM     16  C   UNL     1       4.919   5.948  17.971  0.00  0.00    +0.000 A 
BRANCH  15  17
ATOM     17  N   UNL     1       7.098   5.075  17.130  0.00  0.00    +0.000 N 
ATOM     18  O   UNL     1       7.503   5.910  16.304  0.00  0.00    +0.000 OA
ATOM     19  O   UNL     1       7.832   4.346  17.812  0.00  0.00    +0.000 OA
ENDBRANCH  15  17
ENDBRANCH   9  11
ENDBRANCH   3   7
BRANCH   5  20
ATOM     20  N   UNL     1       0.056   9.856  22.638  0.00  0.00    +0.000 N 
ATOM     21  H   UNL     1      -0.454  10.681  22.932  0.00  0.00    +0.000 HD
ATOM     22  H   UNL     1       0.398   9.261  23.394  0.00  0.00    +0.000 HD
ENDBRANCH   5  20
BRANCH   6  23
ATOM     23  C   UNL     1       0.153  12.122  20.703  0.00  0.00    +0.000 C 
ATOM     24  O   UNL     1       0.476  12.821  21.661  0.00  0.00    +0.000 OA
BRANCH  23  25
ATOM     25  O   UNL     1      -0.842  12.470  19.836  0.00  0.00    +0.000 OA
BRANCH  25  26
ATOM     26  C   UNL     1      -2.006  11.633  19.870  0.00  0.00    +0.000 C 
BRANCH  26  27
ATOM     27  C   UNL     1      -2.478  11.219  18.499  0.00  0.00    +0.000 A 
ATOM     28  C   UNL     1      -1.771  10.264  17.756  0.00  0.00    +0.000 A 
ATOM     29  C   UNL     1      -2.248   9.831  16.516  0.00  0.00    +0.000 A 
ATOM     30  C   UNL     1      -3.433  10.353  16.002  0.00  0.00    +0.000 A 
ATOM     31  C   UNL     1      -4.139  11.312  16.726  0.00  0.00    +0.000 A 
ATOM     32  C   UNL     1      -3.663  11.746  17.966  0.00  0.00    +0.000 A 
ENDBRANCH  26  27
ENDBRANCH  25  26
ENDBRANCH  23  25
ENDBRANCH   6  23
TORSDOF 8
ENDMDL
MODEL 3
REMARK VINA RESULT:      -8.0      3.176     11.129
REMARK  Name = 
REMARK  9 active torsions:
REMARK  status: ('A' for Active; 'I' for Inactive)
REMARK    1  A    between atoms: C_1  and  C_2
REMARK    2  A    between atoms: C_3  and  C_4
REMARK    3  A    between atoms: N_6  and  C_7
REMARK    4  A    between atoms: C_11  and  N_12
REMARK    5  A    between atoms: C_17  and  N_18
REMARK    6  A    between atoms: C_19  and  C_20
REMARK    7  A    between atoms: C_20  and  O_22
REMARK    8  A    between atoms: O_22  and  C_23
REMARK    9  A    between atoms: C_23  and  C_24
REMARK                            x       y       z     vdW  Elec       q    Type
REMARK                         _______ _______ _______ _____ _____    ______ ____
ROOT
ATOM      1  C   UNL     1       0.980   8.889  21.976  0.00  0.00    +0.000 C 
ATOM      2  C   UNL     1       0.988   9.510  20.606  0.00  0.00    +0.000 A 
ATOM      3  C   UNL     1       1.521   8.919  19.453  0.00  0.00    +0.000 A 
ATOM      4  S   UNL     1       1.309   9.930  18.089  0.00  0.00    +0.000 S 
ATOM      5  C   UNL     1       0.547  11.152  18.987  0.00  0.00    +0.000 A 
ATOM      6  C   UNL     1       0.438  10.846  20.335  0.00  0.00    +0.000 A 
ENDROOT
BRANCH   3   7
ATOM      7  C   UNL     1       2.187   7.610  19.291  0.00  0.00    +0.000 C 
ATOM      8  O   UNL     1       2.101   6.737  20.150  0.00  0.00    +0.000 OA
ATOM      9  N   UNL     1       2.951   7.450  18.132  0.00  0.00    +0.000 N 
ATOM     10  H   UNL     1       3.067   8.283  17.567  0.00  0.00    +0.000 HD
BRANCH   9  11
ATOM     11  C   UNL     1       3.649   6.288  17.724  0.00  0.00    +0.000 A 
ATOM     12  C   UNL     1       3.043   5.027  17.645  0.00  0.00    +0.000 A 
ATOM     13  C   UNL     1       3.768   3.893  17.271  0.00  0.00    +0.000 A 
ATOM     14  C   UNL     1       5.119   3.997  16.961  0.00  0.00    +0.000 A 
ATOM     15  C   UNL     1       5.734   5.253  17.018  0.00  0.00    +0.000 A 
ATOM     16  C   UNL     1       5.002   6.401  17.380  0.00  0.00    +0.000 A 
BRANCH  15  17
ATOM     17  N   UNL     1       7.165   5.360  16.706  0.00  0.00    +0.000 N 
ATOM     18  O   UNL     1       7.591   6.459  16.317  0.00  0.00    +0.000 OA
ATOM     19  O   UNL     1       7.862   4.344  16.847  0.00  0.00    +0.000 OA
ENDBRANCH  15  17
ENDBRANCH   9  11
ENDBRANCH   3   7
BRANCH   5  20
ATOM     20  N   UNL     1       0.144  12.275  18.357  0.00  0.00    +0.000 N 
ATOM     21  H   UNL     1       0.735  13.097  18.313  0.00  0.00    +0.000 HD
ATOM     22  H   UNL     1      -0.852  12.445  18.204  0.00  0.00    +0.000 HD
ENDBRANCH   5  20
BRANCH   6  23
ATOM     23  C   UNL     1      -0.128  11.827  21.291  0.00  0.00    +0.000 C 
ATOM     24  O   UNL     1       0.524  12.765  21.745  0.00  0.00    +0.000 OA
BRANCH  23  25
ATOM     25  O   UNL     1      -1.395  11.538  21.708  0.00  0.00    +0.000 OA
BRANCH  25  26
ATOM     26  C   UNL     1      -2.397  12.495  21.333  0.00  0.00    +0.000 C 
BRANCH  26  27
ATOM     27  C   UNL     1      -3.545  12.562  22.308  0.00  0.00    +0.000 A 
ATOM     28  C   UNL     1      -3.333  12.357  23.679  0.00  0.00    +0.000 A 
ATOM     29  C   UNL     1      -4.386  12.489  24.589  0.00  0.00    +0.000 A 
ATOM     30  C   UNL     1      -5.662  12.819  24.138  0.00  0.00    +0.000 A 
ATOM     31  C   UNL     1      -5.887  13.014  22.777  0.00  0.00    +0.000 A 
ATOM     32  C   UNL     1      -4.836  12.882  21.865  0.00  0.00    +0.000 A 
ENDBRANCH  26  27
ENDBRANCH  25  26
ENDBRANCH  23  25
ENDBRANCH   6  23
TORSDOF 8
ENDMDL
MODEL 4
REMARK VINA RESULT:      -8.0      1.748      2.113
REMARK  Name = 
REMARK  9 active torsions:
REMARK  status: ('A' for Active; 'I' for Inactive)
REMARK    1  A    between atoms: C_1  and  C_2
REMARK    2  A    between atoms: C_3  and  C_4
REMARK    3  A    between atoms: N_6  and  C_7
REMARK    4  A    between atoms: C_11  and  N_12
REMARK    5  A    between atoms: C_17  and  N_18
REMARK    6  A    between atoms: C_19  and  C_20
REMARK    7  A    between atoms: C_20  and  O_22
REMARK    8  A    between atoms: O_22  and  C_23
REMARK    9  A    between atoms: C_23  and  C_24
REMARK                            x       y       z     vdW  Elec       q    Type
REMARK                         _______ _______ _______ _____ _____    ______ ____
ROOT
ATOM      1  C   UNL     1       3.902   6.969  18.099  0.00  0.00    +0.000 C 
ATOM      2  C   UNL     1       3.825   5.687  18.883  0.00  0.00    +0.000 A 
ATOM      3  C   UNL     1       2.875   5.399  19.872  0.00  0.00    +0.000 A 
ATOM      4  S   UNL     1       3.106   3.827  20.506  0.00  0.00    +0.000 S 
ATOM      5  C   UNL     1       4.454   3.518  19.523  0.00  0.00    +0.000 A 
ATOM      6  C   UNL     1       4.779   4.584  18.698  0.00  0.00    +0.000 A 
ENDROOT
BRANCH   3   7
ATOM      7  C   UNL     1       1.769   6.235  20.382  0.00  0.00    +0.000 C 
ATOM      8  O   UNL     1       0.666   5.757  20.631  0.00  0.00    +0.000 OA
ATOM      9  N   UNL     1       2.044   7.598  20.515  0.00  0.00    +0.000 N 
ATOM     10  H   UNL     1       2.936   7.903  20.145  0.00  0.00    +0.000 HD
BRANCH   9  11
ATOM     11  C   UNL     1       1.175   8.598  21.017  0.00  0.00    +0.000 A 
ATOM     12  C   UNL     1       0.995   8.830  22.387  0.00  0.00    +0.000 A 
ATOM     13  C   UNL     1       0.105   9.801  22.851  0.00  0.00    +0.000 A 
ATOM     14  C   UNL     1      -0.623  10.570  21.949  0.00  0.00    +0.000 A 
ATOM     15  C   UNL     1      -0.440  10.363  20.578  0.00  0.00    +0.000 A 
ATOM     16  C   UNL     1       0.468   9.394  20.107  0.00  0.00    +0.000 A 
BRANCH  15  17
ATOM     17  N   UNL     1      -1.220  11.165  19.626  0.00  0.00    +0.000 N 
ATOM     18  O   UNL     1      -1.135  10.878  18.421  0.00  0.00    +0.000 OA
ATOM     19  O   UNL     1      -1.916  12.083  20.084  0.00  0.00    +0.000 OA
ENDBRANCH  15  17
ENDBRANCH   9  11
ENDBRANCH   3   7
BRANCH   5  20
ATOM     20  N   UNL     1       5.082   2.328  19.626  0.00  0.00    +0.000 N 
ATOM     21  H   UNL     1       4.734   1.504  19.150  0.00  0.00    +0.000 HD
ATOM     22  H   UNL     1       5.703   2.145  20.417  0.00  0.00    +0.000 HD
ENDBRANCH   5  20
BRANCH   6  23
ATOM     23  C   UNL     1       5.975   4.529  17.825  0.00  0.00    +0.000 C 
ATOM     24  O   UNL     1       7.102   4.291  18.256  0.00  0.00    +0.000 OA
BRANCH  23  25
ATOM     25  O   UNL     1       5.738   4.870  16.525  0.00  0.00    +0.000 OA
BRANCH  25  26
ATOM     26  C   UNL     1       6.901   5.215  15.759  0.00  0.00    +0.000 C 
BRANCH  26  27
ATOM     27  C   UNL     1       6.819   4.764  14.323  0.00  0.00    +0.000 A 
ATOM     28  C   UNL     1       7.690   5.289  13.357  0.00  0.00    +0.000 A 
ATOM     29  C   UNL     1       7.659   4.818  12.041  0.00  0.00    +0.000 A 
ATOM     30  C   UNL     1       6.753   3.825  11.675  0.00  0.00    +0.000 A 
ATOM     31  C   UNL     1       5.874   3.305  12.623  0.00  0.00    +0.000 A 
ATOM     32  C   UNL     1       5.903   3.774  13.939  0.00  0.00    +0.000 A 
ENDBRANCH  26  27
ENDBRANCH  25  26
ENDBRANCH  23  25
ENDBRANCH   6  23
TORSDOF 8
ENDMDL
MODEL 5
REMARK VINA RESULT:      -7.9      3.169      9.260
REMARK  Name = 
REMARK  9 active torsions:
REMARK  status: ('A' for Active; 'I' for Inactive)
REMARK    1  A    between atoms: C_1  and  C_2
REMARK    2  A    between atoms: C_3  and  C_4
REMARK    3  A    between atoms: N_6  and  C_7
REMARK    4  A    between atoms: C_11  and  N_12
REMARK    5  A    between atoms: C_17  and  N_18
REMARK    6  A    between atoms: C_19  and  C_20
REMARK    7  A    between atoms: C_20  and  O_22
REMARK    8  A    between atoms: O_22  and  C_23
REMARK    9  A    between atoms: C_23  and  C_24
REMARK                            x       y       z     vdW  Elec       q    Type
REMARK                         _______ _______ _______ _____ _____    ______ ____
ROOT
ATOM      1  C   UNL     1       1.713   9.862  18.116  0.00  0.00    +0.000 C 
ATOM      2  C   UNL     1       1.216   9.780  19.533  0.00  0.00    +0.000 A 
ATOM      3  C   UNL     1       1.264   8.637  20.343  0.00  0.00    +0.000 A 
ATOM      4  S   UNL     1       0.627   8.959  21.897  0.00  0.00    +0.000 S 
ATOM      5  C   UNL     1       0.261  10.573  21.525  0.00  0.00    +0.000 A 
ATOM      6  C   UNL     1       0.594  10.918  20.224  0.00  0.00    +0.000 A 
ENDROOT
BRANCH   3   7
ATOM      7  C   UNL     1       1.778   7.287  20.031  0.00  0.00    +0.000 C 
ATOM      8  O   UNL     1       1.655   6.356  20.821  0.00  0.00    +0.000 OA
ATOM      9  N   UNL     1       2.446   7.154  18.811  0.00  0.00    +0.000 N 
ATOM     10  H   UNL     1       2.614   8.017  18.307  0.00  0.00    +0.000 HD
BRANCH   9  11
ATOM     11  C   UNL     1       2.992   5.968  18.264  0.00  0.00    +0.000 A 
ATOM     12  C   UNL     1       2.200   4.889  17.847  0.00  0.00    +0.000 A 
ATOM     13  C   UNL     1       2.771   3.718  17.342  0.00  0.00    +0.000 A 
ATOM     14  C   UNL     1       4.153   3.603  17.236  0.00  0.00    +0.000 A 
ATOM     15  C   UNL     1       4.955   4.679  17.630  0.00  0.00    +0.000 A 
ATOM     16  C   UNL     1       4.383   5.867  18.126  0.00  0.00    +0.000 A 
BRANCH  15  17
ATOM     17  N   UNL     1       6.415   4.551  17.532  0.00  0.00    +0.000 N 
ATOM     18  O   UNL     1       7.072   4.596  18.586  0.00  0.00    +0.000 OA
ATOM     19  O   UNL     1       6.905   4.407  16.403  0.00  0.00    +0.000 OA
ENDBRANCH  15  17
ENDBRANCH   9  11
ENDBRANCH   3   7
BRANCH   5  20
ATOM     20  N   UNL     1      -0.311  11.350  22.469  0.00  0.00    +0.000 N 
ATOM     21  H   UNL     1      -0.844  10.948  23.232  0.00  0.00    +0.000 HD
ATOM     22  H   UNL     1      -0.506  12.334  22.271  0.00  0.00    +0.000 HD
ENDBRANCH   5  20
BRANCH   6  23
ATOM     23  C   UNL     1       0.275  12.264  19.692  0.00  0.00    +0.000 C 
ATOM     24  O   UNL     1       0.686  13.299  20.213  0.00  0.00    +0.000 OA
BRANCH  23  25
ATOM     25  O   UNL     1      -0.600  12.260  18.645  0.00  0.00    +0.000 OA
BRANCH  25  26
ATOM     26  C   UNL     1      -1.921  11.790  18.950  0.00  0.00    +0.000 C 
BRANCH  26  27
ATOM     27  C   UNL     1      -2.635  11.215  17.754  0.00  0.00    +0.000 A 
ATOM     28  C   UNL     1      -3.938  11.625  17.433  0.00  0.00    +0.000 A 
ATOM     29  C   UNL     1      -4.572  11.143  16.284  0.00  0.00    +0.000 A 
ATOM     30  C   UNL     1      -3.915  10.241  15.450  0.00  0.00    +0.000 A 
ATOM     31  C   UNL     1      -2.625   9.818  15.764  0.00  0.00    +0.000 A 
ATOM     32  C   UNL     1      -1.990  10.298  16.912  0.00  0.00    +0.000 A 
ENDBRANCH  26  27
ENDBRANCH  25  26
ENDBRANCH  23  25
ENDBRANCH   6  23
TORSDOF 8
ENDMDL
MODEL 6
REMARK VINA RESULT:      -7.9      0.797      1.238
REMARK  Name = 
REMARK  9 active torsions:
REMARK  status: ('A' for Active; 'I' for Inactive)
REMARK    1  A    between atoms: C_1  and  C_2
REMARK    2  A    between atoms: C_3  and  C_4
REMARK    3  A    between atoms: N_6  and  C_7
REMARK    4  A    between atoms: C_11  and  N_12
REMARK    5  A    between atoms: C_17  and  N_18
REMARK    6  A    between atoms: C_19  and  C_20
REMARK    7  A    between atoms: C_20  and  O_22
REMARK    8  A    between atoms: O_22  and  C_23
REMARK    9  A    between atoms: C_23  and  C_24
REMARK                            x       y       z     vdW  Elec       q    Type
REMARK                         _______ _______ _______ _____ _____    ______ ____
ROOT
ATOM      1  C   UNL     1       4.882   7.026  16.270  0.00  0.00    +0.000 C 
ATOM      2  C   UNL     1       4.585   6.068  17.391  0.00  0.00    +0.000 A 
ATOM      3  C   UNL     1       3.513   6.176  18.286  0.00  0.00    +0.000 A 
ATOM      4  S   UNL     1       3.504   4.875  19.396  0.00  0.00    +0.000 S 
ATOM      5  C   UNL     1       4.905   4.175  18.743  0.00  0.00    +0.000 A 
ATOM      6  C   UNL     1       5.428   4.899  17.681  0.00  0.00    +0.000 A 
ENDROOT
BRANCH   3   7
ATOM      7  C   UNL     1       2.457   7.207  18.364  0.00  0.00    +0.000 C 
ATOM      8  O   UNL     1       1.774   7.501  17.388  0.00  0.00    +0.000 OA
ATOM      9  N   UNL     1       2.320   7.850  19.597  0.00  0.00    +0.000 N 
ATOM     10  H   UNL     1       3.029   7.630  20.286  0.00  0.00    +0.000 HD
BRANCH   9  11
ATOM     11  C   UNL     1       1.365   8.837  19.942  0.00  0.00    +0.000 A 
ATOM     12  C   UNL     1       0.772   9.684  18.996  0.00  0.00    +0.000 A 
ATOM     13  C   UNL     1      -0.142  10.670  19.374  0.00  0.00    +0.000 A 
ATOM     14  C   UNL     1      -0.489  10.828  20.711  0.00  0.00    +0.000 A 
ATOM     15  C   UNL     1       0.081   9.978  21.665  0.00  0.00    +0.000 A 
ATOM     16  C   UNL     1       0.991   8.972  21.286  0.00  0.00    +0.000 A 
BRANCH  15  17
ATOM     17  N   UNL     1      -0.274  10.155  23.079  0.00  0.00    +0.000 N 
ATOM     18  O   UNL     1      -1.213  10.922  23.347  0.00  0.00    +0.000 OA
ATOM     19  O   UNL     1       0.386   9.530  23.921  0.00  0.00    +0.000 OA
ENDBRANCH  15  17
ENDBRANCH   9  11
ENDBRANCH   3   7
BRANCH   5  20
ATOM     20  N   UNL     1       5.387   3.038  19.288  0.00  0.00    +0.000 N 
ATOM     21  H   UNL     1       4.949   2.142  19.111  0.00  0.00    +0.000 HD
ATOM     22  H   UNL     1       5.972   3.081  20.124  0.00  0.00    +0.000 HD
ENDBRANCH   5  20
BRANCH   6  23
ATOM     23  C   UNL     1       6.695   4.486  17.034  0.00  0.00    +0.000 C 
ATOM     24  O   UNL     1       7.799   4.821  17.459  0.00  0.00    +0.000 OA
BRANCH  23  25
ATOM     25  O   UNL     1       6.531   3.794  15.868  0.00  0.00    +0.000 OA
BRANCH  25  26
ATOM     26  C   UNL     1       6.857   4.519  14.674  0.00  0.00    +0.000 C 
BRANCH  26  27
ATOM     27  C   UNL     1       6.309   3.879  13.425  0.00  0.00    +0.000 A 
ATOM     28  C   UNL     1       7.160   3.225  12.522  0.00  0.00    +0.000 A 
ATOM     29  C   UNL     1       6.641   2.572  11.401  0.00  0.00    +0.000 A 
ATOM     30  C   UNL     1       5.268   2.571  11.165  0.00  0.00    +0.000 A 
ATOM     31  C   UNL     1       4.413   3.227  12.049  0.00  0.00    +0.000 A 
ATOM     32  C   UNL     1       4.930   3.881  13.170  0.00  0.00    +0.000 A 
ENDBRANCH  26  27
ENDBRANCH  25  26
ENDBRANCH  23  25
ENDBRANCH   6  23
TORSDOF 8
ENDMDL
MODEL 7
REMARK VINA RESULT:      -7.9      2.712      4.774
REMARK  Name = 
REMARK  9 active torsions:
REMARK  status: ('A' for Active; 'I' for Inactive)
REMARK    1  A    between atoms: C_1  and  C_2
REMARK    2  A    between atoms: C_3  and  C_4
REMARK    3  A    between atoms: N_6  and  C_7
REMARK    4  A    between atoms: C_11  and  N_12
REMARK    5  A    between atoms: C_17  and  N_18
REMARK    6  A    between atoms: C_19  and  C_20
REMARK    7  A    between atoms: C_20  and  O_22
REMARK    8  A    between atoms: O_22  and  C_23
REMARK    9  A    between atoms: C_23  and  C_24
REMARK                            x       y       z     vdW  Elec       q    Type
REMARK                         _______ _______ _______ _____ _____    ______ ____
ROOT
ATOM      1  C   UNL     1       3.071   5.935  19.770  0.00  0.00    +0.000 C 
ATOM      2  C   UNL     1       3.672   6.224  18.422  0.00  0.00    +0.000 A 
ATOM      3  C   UNL     1       3.452   7.386  17.670  0.00  0.00    +0.000 A 
ATOM      4  S   UNL     1       4.337   7.349  16.207  0.00  0.00    +0.000 S 
ATOM      5  C   UNL     1       4.991   5.815  16.523  0.00  0.00    +0.000 A 
ATOM      6  C   UNL     1       4.560   5.281  17.728  0.00  0.00    +0.000 A 
ENDROOT
BRANCH   3   7
ATOM      7  C   UNL     1       2.613   8.561  17.984  0.00  0.00    +0.000 C 
ATOM      8  O   UNL     1       2.758   9.628  17.395  0.00  0.00    +0.000 OA
ATOM      9  N   UNL     1       1.686   8.394  19.016  0.00  0.00    +0.000 N 
ATOM     10  H   UNL     1       1.752   7.520  19.526  0.00  0.00    +0.000 HD
BRANCH   9  11
ATOM     11  C   UNL     1       0.743   9.344  19.478  0.00  0.00    +0.000 A 
ATOM     12  C   UNL     1      -0.101  10.057  18.617  0.00  0.00    +0.000 A 
ATOM     13  C   UNL     1      -0.997  11.013  19.102  0.00  0.00    +0.000 A 
ATOM     14  C   UNL     1      -1.073  11.272  20.466  0.00  0.00    +0.000 A 
ATOM     15  C   UNL     1      -0.249  10.554  21.340  0.00  0.00    +0.000 A 
ATOM     16  C   UNL     1       0.644   9.579  20.856  0.00  0.00    +0.000 A 
BRANCH  15  17
ATOM     17  N   UNL     1      -0.319  10.840  22.779  0.00  0.00    +0.000 N 
ATOM     18  O   UNL     1      -0.716  11.964  23.127  0.00  0.00    +0.000 OA
ATOM     19  O   UNL     1       0.025   9.941  23.561  0.00  0.00    +0.000 OA
ENDBRANCH  15  17
ENDBRANCH   9  11
ENDBRANCH   3   7
BRANCH   5  20
ATOM     20  N   UNL     1       5.823   5.257  15.619  0.00  0.00    +0.000 N 
ATOM     21  H   UNL     1       5.897   5.621  14.676  0.00  0.00    +0.000 HD
ATOM     22  H   UNL     1       6.137   4.293  15.741  0.00  0.00    +0.000 HD
ENDBRANCH   5  20
BRANCH   6  23
ATOM     23  C   UNL     1       4.962   3.914  18.137  0.00  0.00    +0.000 C 
ATOM     24  O   UNL     1       5.838   3.701  18.974  0.00  0.00    +0.000 OA
BRANCH  23  25
ATOM     25  O   UNL     1       4.357   2.916  17.430  0.00  0.00    +0.000 OA
BRANCH  25  26
ATOM     26  C   UNL     1       3.817   1.845  18.219  0.00  0.00    +0.000 C 
BRANCH  26  27
ATOM     27  C   UNL     1       2.868   2.319  19.288  0.00  0.00    +0.000 A 
ATOM     28  C   UNL     1       1.553   2.689  18.967  0.00  0.00    +0.000 A 
ATOM     29  C   UNL     1       0.654   3.061  19.970  0.00  0.00    +0.000 A 
ATOM     30  C   UNL     1       1.060   3.076  21.303  0.00  0.00    +0.000 A 
ATOM     31  C   UNL     1       2.366   2.722  21.633  0.00  0.00    +0.000 A 
ATOM     32  C   UNL     1       3.267   2.350  20.632  0.00  0.00    +0.000 A 
ENDBRANCH  26  27
ENDBRANCH  25  26
ENDBRANCH  23  25
ENDBRANCH   6  23
TORSDOF 8
ENDMDL
MODEL 8
REMARK VINA RESULT:      -7.9      2.968     10.996
REMARK  Name = 
REMARK  9 active torsions:
REMARK  status: ('A' for Active; 'I' for Inactive)
REMARK    1  A    between atoms: C_1  and  C_2
REMARK    2  A    between atoms: C_3  and  C_4
REMARK    3  A    between atoms: N_6  and  C_7
REMARK    4  A    between atoms: C_11  and  N_12
REMARK    5  A    between atoms: C_17  and  N_18
REMARK    6  A    between atoms: C_19  and  C_20
REMARK    7  A    between atoms: C_20  and  O_22
REMARK    8  A    between atoms: O_22  and  C_23
REMARK    9  A    between atoms: C_23  and  C_24
REMARK                            x       y       z     vdW  Elec       q    Type
REMARK                         _______ _______ _______ _____ _____    ______ ____
ROOT
ATOM      1  C   UNL     1       1.282  11.067  18.777  0.00  0.00    +0.000 C 
ATOM      2  C   UNL     1       1.091  10.089  19.904  0.00  0.00    +0.000 A 
ATOM      3  C   UNL     1       1.477   8.742  19.880  0.00  0.00    +0.000 A 
ATOM      4  S   UNL     1       1.115   7.972  21.364  0.00  0.00    +0.000 S 
ATOM      5  C   UNL     1       0.432   9.371  22.040  0.00  0.00    +0.000 A 
ATOM      6  C   UNL     1       0.445  10.453  21.173  0.00  0.00    +0.000 A 
ENDROOT
BRANCH   3   7
ATOM      7  C   UNL     1       2.126   7.971  18.799  0.00  0.00    +0.000 C 
ATOM      8  O   UNL     1       2.133   8.373  17.640  0.00  0.00    +0.000 OA
ATOM      9  N   UNL     1       2.684   6.746  19.172  0.00  0.00    +0.000 N 
ATOM     10  H   UNL     1       2.494   6.449  20.122  0.00  0.00    +0.000 HD
BRANCH   9  11
ATOM     11  C   UNL     1       3.393   5.844  18.342  0.00  0.00    +0.000 A 
ATOM     12  C   UNL     1       2.787   4.740  17.728  0.00  0.00    +0.000 A 
ATOM     13  C   UNL     1       3.521   3.849  16.941  0.00  0.00    +0.000 A 
ATOM     14  C   UNL     1       4.883   4.048  16.746  0.00  0.00    +0.000 A 
ATOM     15  C   UNL     1       5.499   5.156  17.338  0.00  0.00    +0.000 A 
ATOM     16  C   UNL     1       4.758   6.065  18.118  0.00  0.00    +0.000 A 
BRANCH  15  17
ATOM     17  N   UNL     1       6.941   5.357  17.143  0.00  0.00    +0.000 N 
ATOM     18  O   UNL     1       7.718   4.645  17.801  0.00  0.00    +0.000 OA
ATOM     19  O   UNL     1       7.297   6.226  16.335  0.00  0.00    +0.000 OA
ENDBRANCH  15  17
ENDBRANCH   9  11
ENDBRANCH   3   7
BRANCH   5  20
ATOM     20  N   UNL     1      -0.060   9.320  23.295  0.00  0.00    +0.000 N 
ATOM     21  H   UNL     1       0.176   8.561  23.924  0.00  0.00    +0.000 HD
ATOM     22  H   UNL     1      -0.911   9.834  23.532  0.00  0.00    +0.000 HD
ENDBRANCH   5  20
BRANCH   6  23
ATOM     23  C   UNL     1      -0.181  11.740  21.559  0.00  0.00    +0.000 C 
ATOM     24  O   UNL     1       0.466  12.773  21.718  0.00  0.00    +0.000 OA
BRANCH  23  25
ATOM     25  O   UNL     1      -1.517  11.656  21.827  0.00  0.00    +0.000 OA
BRANCH  25  26
ATOM     26  C   UNL     1      -1.933  12.250  23.065  0.00  0.00    +0.000 C 
BRANCH  26  27
ATOM     27  C   UNL     1      -3.414  12.517  23.125  0.00  0.00    +0.000 A 
ATOM     28  C   UNL     1      -4.148  12.755  21.953  0.00  0.00    +0.000 A 
ATOM     29  C   UNL     1      -5.533  12.933  22.004  0.00  0.00    +0.000 A 
ATOM     30  C   UNL     1      -6.199  12.884  23.227  0.00  0.00    +0.000 A 
ATOM     31  C   UNL     1      -5.480  12.661  24.400  0.00  0.00    +0.000 A 
ATOM     32  C   UNL     1      -4.095  12.483  24.350  0.00  0.00    +0.000 A 
ENDBRANCH  26  27
ENDBRANCH  25  26
ENDBRANCH  23  25
ENDBRANCH   6  23
TORSDOF 8
ENDMDL
MODEL 9
REMARK VINA RESULT:      -7.9      1.636      2.079
REMARK  Name = 
REMARK  9 active torsions:
REMARK  status: ('A' for Active; 'I' for Inactive)
REMARK    1  A    between atoms: C_1  and  C_2
REMARK    2  A    between atoms: C_3  and  C_4
REMARK    3  A    between atoms: N_6  and  C_7
REMARK    4  A    between atoms: C_11  and  N_12
REMARK    5  A    between atoms: C_17  and  N_18
REMARK    6  A    between atoms: C_19  and  C_20
REMARK    7  A    between atoms: C_20  and  O_22
REMARK    8  A    between atoms: O_22  and  C_23
REMARK    9  A    between atoms: C_23  and  C_24
REMARK                            x       y       z     vdW  Elec       q    Type
REMARK                         _______ _______ _______ _____ _____    ______ ____
ROOT
ATOM      1  C   UNL     1       4.989   7.260  17.222  0.00  0.00    +0.000 C 
ATOM      2  C   UNL     1       4.513   6.161  18.133  0.00  0.00    +0.000 A 
ATOM      3  C   UNL     1       3.370   6.219  18.941  0.00  0.00    +0.000 A 
ATOM      4  S   UNL     1       3.153   4.759  19.806  0.00  0.00    +0.000 S 
ATOM      5  C   UNL     1       4.553   4.050  19.160  0.00  0.00    +0.000 A 
ATOM      6  C   UNL     1       5.230   4.888  18.286  0.00  0.00    +0.000 A 
ENDROOT
BRANCH   3   7
ATOM      7  C   UNL     1       2.393   7.316  19.109  0.00  0.00    +0.000 C 
ATOM      8  O   UNL     1       1.886   7.876  18.142  0.00  0.00    +0.000 OA
ATOM      9  N   UNL     1       2.125   7.701  20.425  0.00  0.00    +0.000 N 
ATOM     10  H   UNL     1       2.706   7.269  21.134  0.00  0.00    +0.000 HD
BRANCH   9  11
ATOM     11  C   UNL     1       1.206   8.689  20.854  0.00  0.00    +0.000 A 
ATOM     12  C   UNL     1       0.780   8.803  22.184  0.00  0.00    +0.000 A 
ATOM     13  C   UNL     1      -0.154   9.768  22.569  0.00  0.00    +0.000 A 
ATOM     14  C   UNL     1      -0.679  10.648  21.629  0.00  0.00    +0.000 A 
ATOM     15  C   UNL     1      -0.250  10.557  20.300  0.00  0.00    +0.000 A 
ATOM     16  C   UNL     1       0.703   9.595  19.911  0.00  0.00    +0.000 A 
BRANCH  15  17
ATOM     17  N   UNL     1      -0.817  11.476  19.305  0.00  0.00    +0.000 N 
ATOM     18  O   UNL     1      -0.068  12.341  18.823  0.00  0.00    +0.000 OA
ATOM     19  O   UNL     1      -2.012  11.335  19.007  0.00  0.00    +0.000 OA
ENDBRANCH  15  17
ENDBRANCH   9  11
ENDBRANCH   3   7
BRANCH   5  20
ATOM     20  N   UNL     1       4.891   2.800  19.539  0.00  0.00    +0.000 N 
ATOM     21  H   UNL     1       5.834   2.574  19.832  0.00  0.00    +0.000 HD
ATOM     22  H   UNL     1       4.325   2.005  19.237  0.00  0.00    +0.000 HD
ENDBRANCH   5  20
BRANCH   6  23
ATOM     23  C   UNL     1       6.519   4.471  17.684  0.00  0.00    +0.000 C 
ATOM     24  O   UNL     1       7.601   4.927  18.049  0.00  0.00    +0.000 OA
BRANCH  23  25
ATOM     25  O   UNL     1       6.394   3.625  16.621  0.00  0.00    +0.000 OA
BRANCH  25  26
ATOM     26  C   UNL     1       5.508   4.069  15.583  0.00  0.00    +0.000 C 
BRANCH  26  27
ATOM     27  C   UNL     1       6.173   4.157  14.234  0.00  0.00    +0.000 A 
ATOM     28  C   UNL     1       5.700   3.401  13.151  0.00  0.00    +0.000 A 
ATOM     29  C   UNL     1       6.274   3.538  11.884  0.00  0.00    +0.000 A 
ATOM     30  C   UNL     1       7.331   4.424  11.687  0.00  0.00    +0.000 A 
ATOM     31  C   UNL     1       7.816   5.173  12.757  0.00  0.00    +0.000 A 
ATOM     32  C   UNL     1       7.244   5.037  14.025  0.00  0.00    +0.000 A 
ENDBRANCH  26  27
ENDBRANCH  25  26
ENDBRANCH  23  25
ENDBRANCH   6  23
TORSDOF 8
ENDMDL
