MODEL 1
REMARK VINA RESULT:      -6.9      0.000      0.000
REMARK  Name = 
REMARK  8 active torsions:
REMARK  status: ('A' for Active; 'I' for Inactive)
REMARK    1  A    between atoms: C_1  and  C_2
REMARK    2  A    between atoms: C_4  and  C_5
REMARK    3  A    between atoms: C_5  and  C_7
REMARK    4  A    between atoms: N_9  and  C_10
REMARK    5  A    between atoms: N_9  and  C_11
REMARK    6  A    between atoms: C_12  and  C_13
REMARK    7  A    between atoms: N_14  and  C_15
REMARK    8  A    between atoms: C_18  and  N_19
REMARK                            x       y       z     vdW  Elec       q    Type
REMARK                         _______ _______ _______ _____ _____    ______ ____
ROOT
ATOM      1  C   UNL     1       7.075   4.698  15.177  0.00  0.00    +0.000 C 
ATOM      2  C   UNL     1       5.998   4.649  16.212  0.00  0.00    +0.000 A 
ATOM      3  C   UNL     1       4.984   3.715  16.269  0.00  0.00    +0.000 A 
ATOM      4  C   UNL     1       4.247   3.909  17.459  0.00  0.00    +0.000 A 
ATOM      5  C   UNL     1       4.827   5.004  18.108  0.00  0.00    +0.000 A 
ATOM      6  C   UNL     1       4.354   5.670  19.364  0.00  0.00    +0.000 C 
ATOM      7  N   UNL     1       5.914   5.463  17.345  0.00  0.00    +0.000 N 
ENDROOT
BRANCH   7   8
ATOM      8  C   UNL     1       6.765   6.583  17.657  0.00  0.00    +0.000 A 
ATOM      9  C   UNL     1       7.812   6.453  18.582  0.00  0.00    +0.000 A 
ATOM     10  C   UNL     1       8.582   7.561  18.966  0.00  0.00    +0.000 A 
ATOM     11  C   UNL     1       8.334   8.808  18.389  0.00  0.00    +0.000 A 
ATOM     12  C   UNL     1       7.327   8.948  17.428  0.00  0.00    +0.000 A 
ATOM     13  C   UNL     1       6.541   7.841  17.076  0.00  0.00    +0.000 A 
BRANCH  11  14
ATOM     14  N   UNL     1       9.124   9.974  18.801  0.00  0.00    +0.000 N 
ATOM     15  O   UNL     1       9.636  10.668  17.911  0.00  0.00    +0.000 OA
ATOM     16  O   UNL     1       9.238  10.193  20.016  0.00  0.00    +0.000 OA
ENDBRANCH  11  14
ENDBRANCH   7   8
BRANCH   4  17
ATOM     17  C   UNL     1       3.092   3.118  17.927  0.00  0.00    +0.000 C 
ATOM     18  O   UNL     1       2.105   2.876  17.233  0.00  0.00    +0.000 OA
BRANCH  17  19
ATOM     19  C   UNL     1       3.071   2.564  19.362  0.00  0.00    +0.000 C 
ATOM     20  O   UNL     1       3.925   1.732  19.661  0.00  0.00    +0.000 OA
ATOM     21  N   UNL     1       2.095   3.032  20.249  0.00  0.00    +0.000 N 
ATOM     22  C   UNL     1       1.048   3.986  19.908  0.00  0.00    +0.000 C 
ATOM     23  C   UNL     1       2.131   2.587  21.630  0.00  0.00    +0.000 C 
ENDBRANCH  17  19
ENDBRANCH   4  17
TORSDOF 4
ENDMDL
MODEL 2
REMARK VINA RESULT:      -6.8      0.657      1.377
REMARK  Name = 
REMARK  8 active torsions:
REMARK  status: ('A' for Active; 'I' for Inactive)
REMARK    1  A    between atoms: C_1  and  C_2
REMARK    2  A    between atoms: C_4  and  C_5
REMARK    3  A    between atoms: C_5  and  C_7
REMARK    4  A    between atoms: N_9  and  C_10
REMARK    5  A    between atoms: N_9  and  C_11
REMARK    6  A    between atoms: C_12  and  C_13
REMARK    7  A    between atoms: N_14  and  C_15
REMARK    8  A    between atoms: C_18  and  N_19
REMARK                            x       y       z     vdW  Elec       q    Type
REMARK                         _______ _______ _______ _____ _____    ______ ____
ROOT
ATOM      1  C   UNL     1       7.152   4.809  15.011  0.00  0.00    +0.000 C 
ATOM      2  C   UNL     1       6.162   4.611  16.113  0.00  0.00    +0.000 A 
ATOM      3  C   UNL     1       5.230   3.595  16.179  0.00  0.00    +0.000 A 
ATOM      4  C   UNL     1       4.571   3.657  17.428  0.00  0.00    +0.000 A 
ATOM      5  C   UNL     1       5.112   4.753  18.106  0.00  0.00    +0.000 A 
ATOM      6  C   UNL     1       4.685   5.302  19.433  0.00  0.00    +0.000 C 
ATOM      7  N   UNL     1       6.102   5.345  17.300  0.00  0.00    +0.000 N 
ENDROOT
BRANCH   7   8
ATOM      8  C   UNL     1       6.885   6.510  17.626  0.00  0.00    +0.000 A 
ATOM      9  C   UNL     1       7.901   6.445  18.592  0.00  0.00    +0.000 A 
ATOM     10  C   UNL     1       8.601   7.593  18.987  0.00  0.00    +0.000 A 
ATOM     11  C   UNL     1       8.315   8.818  18.380  0.00  0.00    +0.000 A 
ATOM     12  C   UNL     1       7.341   8.895  17.379  0.00  0.00    +0.000 A 
ATOM     13  C   UNL     1       6.623   7.746  17.016  0.00  0.00    +0.000 A 
BRANCH  11  14
ATOM     14  N   UNL     1       9.032  10.028  18.802  0.00  0.00    +0.000 N 
ATOM     15  O   UNL     1       9.298  10.150  20.007  0.00  0.00    +0.000 OA
ATOM     16  O   UNL     1       9.325  10.858  17.930  0.00  0.00    +0.000 OA
ENDBRANCH  11  14
ENDBRANCH   7   8
BRANCH   4  17
ATOM     17  C   UNL     1       3.519   2.748  17.922  0.00  0.00    +0.000 C 
ATOM     18  O   UNL     1       3.630   1.522  17.940  0.00  0.00    +0.000 OA
BRANCH  17  19
ATOM     19  C   UNL     1       2.187   3.321  18.435  0.00  0.00    +0.000 C 
ATOM     20  O   UNL     1       1.423   3.811  17.605  0.00  0.00    +0.000 OA
ATOM     21  N   UNL     1       1.909   3.254  19.804  0.00  0.00    +0.000 N 
ATOM     22  C   UNL     1       2.813   2.716  20.812  0.00  0.00    +0.000 C 
ATOM     23  C   UNL     1       0.614   3.703  20.281  0.00  0.00    +0.000 C 
ENDBRANCH  17  19
ENDBRANCH   4  17
TORSDOF 4
ENDMDL
MODEL 3
REMARK VINA RESULT:      -6.8      4.033      6.260
REMARK  Name = 
REMARK  8 active torsions:
REMARK  status: ('A' for Active; 'I' for Inactive)
REMARK    1  A    between atoms: C_1  and  C_2
REMARK    2  A    between atoms: C_4  and  C_5
REMARK    3  A    between atoms: C_5  and  C_7
REMARK    4  A    between atoms: N_9  and  C_10
REMARK    5  A    between atoms: N_9  and  C_11
REMARK    6  A    between atoms: C_12  and  C_13
REMARK    7  A    between atoms: N_14  and  C_15
REMARK    8  A    between atoms: C_18  and  N_19
REMARK                            x       y       z     vdW  Elec       q    Type
REMARK                         _______ _______ _______ _____ _____    ______ ____
ROOT
ATOM      1  C   UNL     1       2.119   4.089  17.621  0.00  0.00    +0.000 C 
ATOM      2  C   UNL     1       3.487   4.652  17.408  0.00  0.00    +0.000 A 
ATOM      3  C   UNL     1       4.554   3.975  16.851  0.00  0.00    +0.000 A 
ATOM      4  C   UNL     1       5.632   4.875  16.687  0.00  0.00    +0.000 A 
ATOM      5  C   UNL     1       5.198   6.107  17.184  0.00  0.00    +0.000 A 
ATOM      6  C   UNL     1       6.001   7.364  17.325  0.00  0.00    +0.000 C 
ATOM      7  N   UNL     1       3.869   5.978  17.626  0.00  0.00    +0.000 N 
ENDROOT
BRANCH   7   8
ATOM      8  C   UNL     1       3.063   7.013  18.222  0.00  0.00    +0.000 A 
ATOM      9  C   UNL     1       2.658   6.925  19.563  0.00  0.00    +0.000 A 
ATOM     10  C   UNL     1       1.793   7.875  20.123  0.00  0.00    +0.000 A 
ATOM     11  C   UNL     1       1.358   8.954  19.350  0.00  0.00    +0.000 A 
ATOM     12  C   UNL     1       1.792   9.087  18.026  0.00  0.00    +0.000 A 
ATOM     13  C   UNL     1       2.630   8.113  17.466  0.00  0.00    +0.000 A 
BRANCH  11  14
ATOM     14  N   UNL     1       0.438   9.942  19.925  0.00  0.00    +0.000 N 
ATOM     15  O   UNL     1      -0.523  10.308  19.232  0.00  0.00    +0.000 OA
ATOM     16  O   UNL     1       0.679  10.358  21.068  0.00  0.00    +0.000 OA
ENDBRANCH  11  14
ENDBRANCH   7   8
BRANCH   4  17
ATOM     17  C   UNL     1       6.957   4.576  16.109  0.00  0.00    +0.000 C 
ATOM     18  O   UNL     1       7.879   4.064  16.744  0.00  0.00    +0.000 OA
BRANCH  17  19
ATOM     19  C   UNL     1       7.250   4.923  14.640  0.00  0.00    +0.000 C 
ATOM     20  O   UNL     1       8.044   5.836  14.420  0.00  0.00    +0.000 OA
ATOM     21  N   UNL     1       6.611   4.189  13.635  0.00  0.00    +0.000 N 
ATOM     22  C   UNL     1       5.637   3.131  13.868  0.00  0.00    +0.000 C 
ATOM     23  C   UNL     1       6.957   4.446  12.249  0.00  0.00    +0.000 C 
ENDBRANCH  17  19
ENDBRANCH   4  17
TORSDOF 4
ENDMDL
MODEL 4
REMARK VINA RESULT:      -6.7      0.665      1.586
REMARK  Name = 
REMARK  8 active torsions:
REMARK  status: ('A' for Active; 'I' for Inactive)
REMARK    1  A    between atoms: C_1  and  C_2
REMARK    2  A    between atoms: C_4  and  C_5
REMARK    3  A    between atoms: C_5  and  C_7
REMARK    4  A    between atoms: N_9  and  C_10
REMARK    5  A    between atoms: N_9  and  C_11
REMARK    6  A    between atoms: C_12  and  C_13
REMARK    7  A    between atoms: N_14  and  C_15
REMARK    8  A    between atoms: C_18  and  N_19
REMARK                            x       y       z     vdW  Elec       q    Type
REMARK                         _______ _______ _______ _____ _____    ______ ____
ROOT
ATOM      1  C   UNL     1       7.154   4.950  15.075  0.00  0.00    +0.000 C 
ATOM      2  C   UNL     1       6.144   4.692  16.146  0.00  0.00    +0.000 A 
ATOM      3  C   UNL     1       5.237   3.652  16.157  0.00  0.00    +0.000 A 
ATOM      4  C   UNL     1       4.548   3.658  17.392  0.00  0.00    +0.000 A 
ATOM      5  C   UNL     1       5.046   4.745  18.116  0.00  0.00    +0.000 A 
ATOM      6  C   UNL     1       4.574   5.240  19.450  0.00  0.00    +0.000 C 
ATOM      7  N   UNL     1       6.038   5.386  17.354  0.00  0.00    +0.000 N 
ENDROOT
BRANCH   7   8
ATOM      8  C   UNL     1       6.784   6.559  17.735  0.00  0.00    +0.000 A 
ATOM      9  C   UNL     1       6.497   7.809  17.164  0.00  0.00    +0.000 A 
ATOM     10  C   UNL     1       7.280   8.934  17.454  0.00  0.00    +0.000 A 
ATOM     11  C   UNL     1       8.339   8.825  18.358  0.00  0.00    +0.000 A 
ATOM     12  C   UNL     1       8.610   7.599  18.976  0.00  0.00    +0.000 A 
ATOM     13  C   UNL     1       7.841   6.472  18.653  0.00  0.00    +0.000 A 
BRANCH  11  14
ATOM     14  N   UNL     1       9.174   9.996  18.652  0.00  0.00    +0.000 N 
ATOM     15  O   UNL     1       9.606  10.652  17.692  0.00  0.00    +0.000 OA
ATOM     16  O   UNL     1       9.403  10.258  19.841  0.00  0.00    +0.000 OA
ENDBRANCH  11  14
ENDBRANCH   7   8
BRANCH   4  17
ATOM     17  C   UNL     1       3.508   2.708  17.832  0.00  0.00    +0.000 C 
ATOM     18  O   UNL     1       3.645   1.485  17.802  0.00  0.00    +0.000 OA
BRANCH  17  19
ATOM     19  C   UNL     1       2.157   3.232  18.345  0.00  0.00    +0.000 C 
ATOM     20  O   UNL     1       1.381   3.707  17.519  0.00  0.00    +0.000 OA
ATOM     21  N   UNL     1       1.876   3.140  19.713  0.00  0.00    +0.000 N 
ATOM     22  C   UNL     1       2.793   2.620  20.718  0.00  0.00    +0.000 C 
ATOM     23  C   UNL     1       0.566   3.542  20.189  0.00  0.00    +0.000 C 
ENDBRANCH  17  19
ENDBRANCH   4  17
TORSDOF 4
ENDMDL
MODEL 5
REMARK VINA RESULT:      -6.7      4.389      6.094
REMARK  Name = 
REMARK  8 active torsions:
REMARK  status: ('A' for Active; 'I' for Inactive)
REMARK    1  A    between atoms: C_1  and  C_2
REMARK    2  A    between atoms: C_4  and  C_5
REMARK    3  A    between atoms: C_5  and  C_7
REMARK    4  A    between atoms: N_9  and  C_10
REMARK    5  A    between atoms: N_9  and  C_11
REMARK    6  A    between atoms: C_12  and  C_13
REMARK    7  A    between atoms: N_14  and  C_15
REMARK    8  A    between atoms: C_18  and  N_19
REMARK                            x       y       z     vdW  Elec       q    Type
REMARK                         _______ _______ _______ _____ _____    ______ ____
ROOT
ATOM      1  C   UNL     1       3.343   3.805  20.409  0.00  0.00    +0.000 C 
ATOM      2  C   UNL     1       2.682   5.123  20.165  0.00  0.00    +0.000 A 
ATOM      3  C   UNL     1       1.773   5.732  21.007  0.00  0.00    +0.000 A 
ATOM      4  C   UNL     1       1.479   7.022  20.509  0.00  0.00    +0.000 A 
ATOM      5  C   UNL     1       2.214   7.166  19.328  0.00  0.00    +0.000 A 
ATOM      6  C   UNL     1       2.177   8.318  18.370  0.00  0.00    +0.000 C 
ATOM      7  N   UNL     1       2.965   5.997  19.112  0.00  0.00    +0.000 N 
ENDROOT
BRANCH   7   8
ATOM      8  C   UNL     1       3.840   5.738  17.997  0.00  0.00    +0.000 A 
ATOM      9  C   UNL     1       3.711   4.562  17.242  0.00  0.00    +0.000 A 
ATOM     10  C   UNL     1       4.619   4.255  16.219  0.00  0.00    +0.000 A 
ATOM     11  C   UNL     1       5.646   5.151  15.914  0.00  0.00    +0.000 A 
ATOM     12  C   UNL     1       5.761   6.353  16.622  0.00  0.00    +0.000 A 
ATOM     13  C   UNL     1       4.867   6.635  17.665  0.00  0.00    +0.000 A 
BRANCH  11  14
ATOM     14  N   UNL     1       6.610   4.826  14.856  0.00  0.00    +0.000 N 
ATOM     15  O   UNL     1       6.294   3.951  14.037  0.00  0.00    +0.000 OA
ATOM     16  O   UNL     1       7.686   5.441  14.848  0.00  0.00    +0.000 OA
ENDBRANCH  11  14
ENDBRANCH   7   8
BRANCH   4  17
ATOM     17  C   UNL     1       0.573   8.020  21.110  0.00  0.00    +0.000 C 
ATOM     18  O   UNL     1      -0.604   7.793  21.387  0.00  0.00    +0.000 OA
BRANCH  17  19
ATOM     19  C   UNL     1       1.083   9.440  21.406  0.00  0.00    +0.000 C 
ATOM     20  O   UNL     1       1.903   9.572  22.313  0.00  0.00    +0.000 OA
ATOM     21  N   UNL     1       0.599  10.502  20.635  0.00  0.00    +0.000 N 
ATOM     22  C   UNL     1      -0.401  10.380  19.583  0.00  0.00    +0.000 C 
ATOM     23  C   UNL     1       1.149  11.829  20.843  0.00  0.00    +0.000 C 
ENDBRANCH  17  19
ENDBRANCH   4  17
TORSDOF 4
ENDMDL
MODEL 6
REMARK VINA RESULT:      -6.6      4.068      6.337
REMARK  Name = 
REMARK  8 active torsions:
REMARK  status: ('A' for Active; 'I' for Inactive)
REMARK    1  A    between atoms: C_1  and  C_2
REMARK    2  A    between atoms: C_4  and  C_5
REMARK    3  A    between atoms: C_5  and  C_7
REMARK    4  A    between atoms: N_9  and  C_10
REMARK    5  A    between atoms: N_9  and  C_11
REMARK    6  A    between atoms: C_12  and  C_13
REMARK    7  A    between atoms: N_14  and  C_15
REMARK    8  A    between atoms: C_18  and  N_19
REMARK                            x       y       z     vdW  Elec       q    Type
REMARK                         _______ _______ _______ _____ _____    ______ ____
ROOT
ATOM      1  C   UNL     1       1.631   4.245  17.786  0.00  0.00    +0.000 C 
ATOM      2  C   UNL     1       3.031   4.759  17.690  0.00  0.00    +0.000 A 
ATOM      3  C   UNL     1       4.109   4.057  17.190  0.00  0.00    +0.000 A 
ATOM      4  C   UNL     1       5.230   4.917  17.133  0.00  0.00    +0.000 A 
ATOM      5  C   UNL     1       4.807   6.150  17.637  0.00  0.00    +0.000 A 
ATOM      6  C   UNL     1       5.645   7.369  17.877  0.00  0.00    +0.000 C 
ATOM      7  N   UNL     1       3.446   6.061  17.979  0.00  0.00    +0.000 N 
ENDROOT
BRANCH   7   8
ATOM      8  C   UNL     1       2.638   7.109  18.549  0.00  0.00    +0.000 A 
ATOM      9  C   UNL     1       2.211   8.193  17.766  0.00  0.00    +0.000 A 
ATOM     10  C   UNL     1       1.509   9.265  18.333  0.00  0.00    +0.000 A 
ATOM     11  C   UNL     1       1.189   9.239  19.692  0.00  0.00    +0.000 A 
ATOM     12  C   UNL     1       1.562   8.145  20.480  0.00  0.00    +0.000 A 
ATOM     13  C   UNL     1       2.293   7.093  19.909  0.00  0.00    +0.000 A 
BRANCH  11  14
ATOM     14  N   UNL     1       0.471  10.368  20.296  0.00  0.00    +0.000 N 
ATOM     15  O   UNL     1       0.930  10.853  21.340  0.00  0.00    +0.000 OA
ATOM     16  O   UNL     1      -0.557  10.766  19.729  0.00  0.00    +0.000 OA
ENDBRANCH  11  14
ENDBRANCH   7   8
BRANCH   4  17
ATOM     17  C   UNL     1       6.581   4.582  16.642  0.00  0.00    +0.000 C 
ATOM     18  O   UNL     1       7.361   3.843  17.242  0.00  0.00    +0.000 OA
BRANCH  17  19
ATOM     19  C   UNL     1       7.090   5.185  15.322  0.00  0.00    +0.000 C 
ATOM     20  O   UNL     1       7.783   6.198  15.389  0.00  0.00    +0.000 OA
ATOM     21  N   UNL     1       6.747   4.555  14.120  0.00  0.00    +0.000 N 
ATOM     22  C   UNL     1       5.895   3.379  14.009  0.00  0.00    +0.000 C 
ATOM     23  C   UNL     1       7.304   5.061  12.879  0.00  0.00    +0.000 C 
ENDBRANCH  17  19
ENDBRANCH   4  17
TORSDOF 4
ENDMDL
MODEL 7
REMARK VINA RESULT:      -6.6      4.286      6.050
REMARK  Name = 
REMARK  8 active torsions:
REMARK  status: ('A' for Active; 'I' for Inactive)
REMARK    1  A    between atoms: C_1  and  C_2
REMARK    2  A    between atoms: C_4  and  C_5
REMARK    3  A    between atoms: C_5  and  C_7
REMARK    4  A    between atoms: N_9  and  C_10
REMARK    5  A    between atoms: N_9  and  C_11
REMARK    6  A    between atoms: C_12  and  C_13
REMARK    7  A    between atoms: N_14  and  C_15
REMARK    8  A    between atoms: C_18  and  N_19
REMARK                            x       y       z     vdW  Elec       q    Type
REMARK                         _______ _______ _______ _____ _____    ______ ____
ROOT
ATOM      1  C   UNL     1       3.088   3.551  20.625  0.00  0.00    +0.000 C 
ATOM      2  C   UNL     1       2.541   4.910  20.332  0.00  0.00    +0.000 A 
ATOM      3  C   UNL     1       1.595   5.573  21.089  0.00  0.00    +0.000 A 
ATOM      4  C   UNL     1       1.435   6.882  20.579  0.00  0.00    +0.000 A 
ATOM      5  C   UNL     1       2.290   6.984  19.477  0.00  0.00    +0.000 A 
ATOM      6  C   UNL     1       2.421   8.140  18.533  0.00  0.00    +0.000 C 
ATOM      7  N   UNL     1       2.981   5.769  19.322  0.00  0.00    +0.000 N 
ENDROOT
BRANCH   7   8
ATOM      8  C   UNL     1       3.942   5.458  18.295  0.00  0.00    +0.000 A 
ATOM      9  C   UNL     1       5.220   6.039  18.307  0.00  0.00    +0.000 A 
ATOM     10  C   UNL     1       6.126   5.821  17.260  0.00  0.00    +0.000 A 
ATOM     11  C   UNL     1       5.772   4.976  16.206  0.00  0.00    +0.000 A 
ATOM     12  C   UNL     1       4.522   4.348  16.200  0.00  0.00    +0.000 A 
ATOM     13  C   UNL     1       3.611   4.600  17.236  0.00  0.00    +0.000 A 
BRANCH  11  14
ATOM     14  N   UNL     1       6.710   4.758  15.098  0.00  0.00    +0.000 N 
ATOM     15  O   UNL     1       6.477   3.820  14.321  0.00  0.00    +0.000 OA
ATOM     16  O   UNL     1       7.682   5.521  15.007  0.00  0.00    +0.000 OA
ENDBRANCH  11  14
ENDBRANCH   7   8
BRANCH   4  17
ATOM     17  C   UNL     1       0.541   7.934  21.101  0.00  0.00    +0.000 C 
ATOM     18  O   UNL     1      -0.654   7.759  21.335  0.00  0.00    +0.000 OA
BRANCH  17  19
ATOM     19  C   UNL     1       1.089   9.347  21.362  0.00  0.00    +0.000 C 
ATOM     20  O   UNL     1       1.891   9.484  22.284  0.00  0.00    +0.000 OA
ATOM     21  N   UNL     1       0.658  10.397  20.544  0.00  0.00    +0.000 N 
ATOM     22  C   UNL     1      -0.320  10.270  19.472  0.00  0.00    +0.000 C 
ATOM     23  C   UNL     1       1.246  11.713  20.722  0.00  0.00    +0.000 C 
ENDBRANCH  17  19
ENDBRANCH   4  17
TORSDOF 4
ENDMDL
MODEL 8
REMARK VINA RESULT:      -6.6      5.475      7.227
REMARK  Name = 
REMARK  8 active torsions:
REMARK  status: ('A' for Active; 'I' for Inactive)
REMARK    1  A    between atoms: C_1  and  C_2
REMARK    2  A    between atoms: C_4  and  C_5
REMARK    3  A    between atoms: C_5  and  C_7
REMARK    4  A    between atoms: N_9  and  C_10
REMARK    5  A    between atoms: N_9  and  C_11
REMARK    6  A    between atoms: C_12  and  C_13
REMARK    7  A    between atoms: N_14  and  C_15
REMARK    8  A    between atoms: C_18  and  N_19
REMARK                            x       y       z     vdW  Elec       q    Type
REMARK                         _______ _______ _______ _____ _____    ______ ____
ROOT
ATOM      1  C   UNL     1       2.251  10.173  17.778  0.00  0.00    +0.000 C 
ATOM      2  C   UNL     1       2.312   8.773  18.298  0.00  0.00    +0.000 A 
ATOM      3  C   UNL     1       3.019   7.736  17.725  0.00  0.00    +0.000 A 
ATOM      4  C   UNL     1       2.948   6.608  18.575  0.00  0.00    +0.000 A 
ATOM      5  C   UNL     1       2.158   6.984  19.665  0.00  0.00    +0.000 A 
ATOM      6  C   UNL     1       1.703   6.116  20.799  0.00  0.00    +0.000 C 
ATOM      7  N   UNL     1       1.765   8.324  19.503  0.00  0.00    +0.000 N 
ENDROOT
BRANCH   7   8
ATOM      8  C   UNL     1       0.930   9.084  20.399  0.00  0.00    +0.000 A 
ATOM      9  C   UNL     1      -0.081   9.920  19.901  0.00  0.00    +0.000 A 
ATOM     10  C   UNL     1      -0.833  10.737  20.757  0.00  0.00    +0.000 A 
ATOM     11  C   UNL     1      -0.604  10.689  22.134  0.00  0.00    +0.000 A 
ATOM     12  C   UNL     1       0.364   9.825  22.655  0.00  0.00    +0.000 A 
ATOM     13  C   UNL     1       1.134   9.036  21.786  0.00  0.00    +0.000 A 
BRANCH  11  14
ATOM     14  N   UNL     1      -1.376  11.556  23.034  0.00  0.00    +0.000 N 
ATOM     15  O   UNL     1      -0.907  12.672  23.302  0.00  0.00    +0.000 OA
ATOM     16  O   UNL     1      -2.447  11.119  23.477  0.00  0.00    +0.000 OA
ENDBRANCH  11  14
ENDBRANCH   7   8
BRANCH   4  17
ATOM     17  C   UNL     1       3.580   5.292  18.357  0.00  0.00    +0.000 C 
ATOM     18  O   UNL     1       2.953   4.276  18.058  0.00  0.00    +0.000 OA
BRANCH  17  19
ATOM     19  C   UNL     1       5.101   5.133  18.520  0.00  0.00    +0.000 C 
ATOM     20  O   UNL     1       5.551   5.121  19.664  0.00  0.00    +0.000 OA
ATOM     21  N   UNL     1       5.890   5.007  17.372  0.00  0.00    +0.000 N 
ATOM     22  C   UNL     1       5.388   5.059  16.006  0.00  0.00    +0.000 C 
ATOM     23  C   UNL     1       7.313   4.759  17.522  0.00  0.00    +0.000 C 
ENDBRANCH  17  19
ENDBRANCH   4  17
TORSDOF 4
ENDMDL
MODEL 9
REMARK VINA RESULT:      -6.5      4.864      6.752
REMARK  Name = 
REMARK  8 active torsions:
REMARK  status: ('A' for Active; 'I' for Inactive)
REMARK    1  A    between atoms: C_1  and  C_2
REMARK    2  A    between atoms: C_4  and  C_5
REMARK    3  A    between atoms: C_5  and  C_7
REMARK    4  A    between atoms: N_9  and  C_10
REMARK    5  A    between atoms: N_9  and  C_11
REMARK    6  A    between atoms: C_12  and  C_13
REMARK    7  A    between atoms: N_14  and  C_15
REMARK    8  A    between atoms: C_18  and  N_19
REMARK                            x       y       z     vdW  Elec       q    Type
REMARK                         _______ _______ _______ _____ _____    ______ ____
ROOT
ATOM      1  C   UNL     1       2.577   5.157  20.831  0.00  0.00    +0.000 C 
ATOM      2  C   UNL     1       2.137   6.426  20.175  0.00  0.00    +0.000 A 
ATOM      3  C   UNL     1       1.235   7.329  20.701  0.00  0.00    +0.000 A 
ATOM      4  C   UNL     1       1.180   8.465  19.861  0.00  0.00    +0.000 A 
ATOM      5  C   UNL     1       2.053   8.212  18.799  0.00  0.00    +0.000 A 
ATOM      6  C   UNL     1       2.283   9.067  17.589  0.00  0.00    +0.000 C 
ATOM      7  N   UNL     1       2.653   6.955  18.990  0.00  0.00    +0.000 N 
ENDROOT
BRANCH   7   8
ATOM      8  C   UNL     1       3.601   6.319  18.111  0.00  0.00    +0.000 A 
ATOM      9  C   UNL     1       3.359   5.032  17.604  0.00  0.00    +0.000 A 
ATOM     10  C   UNL     1       4.318   4.366  16.830  0.00  0.00    +0.000 A 
ATOM     11  C   UNL     1       5.520   5.006  16.517  0.00  0.00    +0.000 A 
ATOM     12  C   UNL     1       5.759   6.308  16.970  0.00  0.00    +0.000 A 
ATOM     13  C   UNL     1       4.806   6.952  17.773  0.00  0.00    +0.000 A 
BRANCH  11  14
ATOM     14  N   UNL     1       6.535   4.306  15.722  0.00  0.00    +0.000 N 
ATOM     15  O   UNL     1       6.148   3.630  14.757  0.00  0.00    +0.000 OA
ATOM     16  O   UNL     1       7.720   4.426  16.064  0.00  0.00    +0.000 OA
ENDBRANCH  11  14
ENDBRANCH   7   8
BRANCH   4  17
ATOM     17  C   UNL     1       0.361   9.677  20.060  0.00  0.00    +0.000 C 
ATOM     18  O   UNL     1      -0.772   9.817  19.602  0.00  0.00    +0.000 OA
BRANCH  17  19
ATOM     19  C   UNL     1       0.926  10.861  20.862  0.00  0.00    +0.000 C 
ATOM     20  O   UNL     1       1.021  10.727  22.081  0.00  0.00    +0.000 OA
ATOM     21  N   UNL     1       1.304  12.019  20.175  0.00  0.00    +0.000 N 
ATOM     22  C   UNL     1       1.163  12.218  18.738  0.00  0.00    +0.000 C 
ATOM     23  C   UNL     1       1.928  13.102  20.913  0.00  0.00    +0.000 C 
ENDBRANCH  17  19
ENDBRANCH   4  17
TORSDOF 4
ENDMDL
