MODEL 1
REMARK VINA RESULT:      -7.5      0.000      0.000
REMARK  Name = 
REMARK  11 active torsions:
REMARK  status: ('A' for Active; 'I' for Inactive)
REMARK    1  A    between atoms: C_1  and  N_2
REMARK    2  A    between atoms: C_4  and  N_5
REMARK    3  A    between atoms: C_6  and  C_8
REMARK    4  A    between atoms: C_10  and  N_11
REMARK    5  A    between atoms: C_12  and  C_14
REMARK    6  A    between atoms: C_16  and  N_17
REMARK    7  A    between atoms: N_21  and  C_22
REMARK    8  A    between atoms: C_26  and  C_27
REMARK    9  A    between atoms: N_29  and  C_30
REMARK   10  A    between atoms: C_30  and  C_31
REMARK   11  A    between atoms: C_31  and  C_32
REMARK                            x       y       z     vdW  Elec       q    Type
REMARK                         _______ _______ _______ _____ _____    ______ ____
ROOT
ATOM      1  N   UNL     1       1.101   9.899  20.169  0.00  0.00    +0.000 N 
ATOM      2  C   UNL     1       1.199   8.722  20.891  0.00  0.00    +0.000 C 
ATOM      3  O   UNL     1       0.801   8.552  22.039  0.00  0.00    +0.000 OA
ATOM      4  H   UNL     1       1.475   9.925  19.230  0.00  0.00    +0.000 HD
ENDROOT
BRANCH   1   8
ATOM      5  C   UNL     1       0.525  14.589  21.467  0.00  0.00    +0.000 C 
ATOM      6  N   UNL     1       0.219  13.188  21.262  0.00  0.00    +0.000 N 
ATOM      7  C   UNL     1       1.116  12.306  20.717  0.00  0.00    +0.000 A 
ATOM      8  C   UNL     1       0.530  11.069  20.638  0.00  0.00    +0.000 A 
ATOM      9  C   UNL     1      -0.788  11.220  21.141  0.00  0.00    +0.000 A 
ATOM     10  C   UNL     1      -0.979  12.547  21.525  0.00  0.00    +0.000 A 
BRANCH  10  11
ATOM     11  C   UNL     1      -2.148  13.172  22.121  0.00  0.00    +0.000 C 
ATOM     12  O   UNL     1      -2.195  13.550  23.289  0.00  0.00    +0.000 OA
ATOM     13  N   UNL     1      -3.221  13.325  21.262  0.00  0.00    +0.000 N 
ATOM     14  H   UNL     1      -3.109  13.057  20.294  0.00  0.00    +0.000 HD
BRANCH  13  15
ATOM     15  C   UNL     1      -4.489  13.865  21.715  0.00  0.00    +0.000 C 
BRANCH  15  16
ATOM     16  C   UNL     1      -5.414  12.834  22.357  0.00  0.00    +0.000 C 
BRANCH  16  17
ATOM     17  C   UNL     1      -5.643  13.064  23.837  0.00  0.00    +0.000 C 
ATOM     18  N   UNL     1      -6.316  14.082  24.265  0.00  0.00    +0.000 NA
ATOM     19  N   UNL     1      -5.119  12.215  24.756  0.00  0.00    +0.000 N 
ATOM     20  H   UNL     1      -6.612  14.686  23.491  0.00  0.00    +0.000 HD
ATOM     21  H   UNL     1      -4.877  11.267  24.506  0.00  0.00    +0.000 HD
ATOM     22  H   UNL     1      -5.485  12.340  25.695  0.00  0.00    +0.000 HD
ENDBRANCH  16  17
ENDBRANCH  15  16
ENDBRANCH  13  15
ENDBRANCH  10  11
ENDBRANCH   1   8
BRANCH   2  23
ATOM     23  C   UNL     1       1.849   7.626  20.192  0.00  0.00    +0.000 A 
ATOM     24  C   UNL     1       2.488   7.537  18.971  0.00  0.00    +0.000 A 
ATOM     25  C   UNL     1       2.969   6.212  18.813  0.00  0.00    +0.000 A 
ATOM     26  C   UNL     1       2.590   5.508  19.933  0.00  0.00    +0.000 A 
ATOM     27  N   UNL     1       1.910   6.368  20.756  0.00  0.00    +0.000 N 
ATOM     28  H   UNL     1       1.511   6.146  21.661  0.00  0.00    +0.000 HD
BRANCH  25  29
ATOM     29  N   UNL     1       3.703   5.659  17.783  0.00  0.00    +0.000 N 
ATOM     30  C   UNL     1       4.803   6.254  17.190  0.00  0.00    +0.000 C 
ATOM     31  O   UNL     1       5.184   7.396  17.425  0.00  0.00    +0.000 OA
ATOM     32  H   UNL     1       3.396   4.757  17.451  0.00  0.00    +0.000 HD
BRANCH  30  33
ATOM     33  C   UNL     1       5.495   5.398  16.236  0.00  0.00    +0.000 A 
ATOM     34  C   UNL     1       5.124   5.051  14.943  0.00  0.00    +0.000 A 
ATOM     35  C   UNL     1       6.071   4.145  14.425  0.00  0.00    +0.000 A 
ATOM     36  C   UNL     1       7.032   3.970  15.392  0.00  0.00    +0.000 A 
ATOM     37  N   UNL     1       6.663   4.700  16.495  0.00  0.00    +0.000 N 
ATOM     38  C   UNL     1       7.394   4.706  17.747  0.00  0.00    +0.000 C 
BRANCH  35  39
ATOM     39  N   UNL     1       6.093   3.506  13.207  0.00  0.00    +0.000 N 
ATOM     40  C   UNL     1       4.992   3.282  12.431  0.00  0.00    +0.000 C 
ATOM     41  O   UNL     1       5.034   2.688  11.360  0.00  0.00    +0.000 OA
ATOM     42  H   UNL     1       6.968   3.139  12.856  0.00  0.00    +0.000 HD
ENDBRANCH  35  39
ENDBRANCH  30  33
ENDBRANCH  25  29
ENDBRANCH   2  23
TORSDOF 9
ENDMDL
MODEL 2
REMARK VINA RESULT:      -7.4      2.220      3.430
REMARK  Name = 
REMARK  11 active torsions:
REMARK  status: ('A' for Active; 'I' for Inactive)
REMARK    1  A    between atoms: C_1  and  N_2
REMARK    2  A    between atoms: C_4  and  N_5
REMARK    3  A    between atoms: C_6  and  C_8
REMARK    4  A    between atoms: C_10  and  N_11
REMARK    5  A    between atoms: C_12  and  C_14
REMARK    6  A    between atoms: C_16  and  N_17
REMARK    7  A    between atoms: N_21  and  C_22
REMARK    8  A    between atoms: C_26  and  C_27
REMARK    9  A    between atoms: N_29  and  C_30
REMARK   10  A    between atoms: C_30  and  C_31
REMARK   11  A    between atoms: C_31  and  C_32
REMARK                            x       y       z     vdW  Elec       q    Type
REMARK                         _______ _______ _______ _____ _____    ______ ____
ROOT
ATOM      1  N   UNL     1      -0.721  11.598  21.292  0.00  0.00    +0.000 N 
ATOM      2  C   UNL     1       0.028  10.517  21.724  0.00  0.00    +0.000 C 
ATOM      3  O   UNL     1       0.148  10.149  22.888  0.00  0.00    +0.000 OA
ATOM      4  H   UNL     1      -0.738  11.813  20.304  0.00  0.00    +0.000 HD
ENDROOT
BRANCH   1   8
ATOM      5  C   UNL     1      -1.857  14.986  24.645  0.00  0.00    +0.000 C 
ATOM      6  N   UNL     1      -2.029  13.950  23.647  0.00  0.00    +0.000 N 
ATOM      7  C   UNL     1      -0.972  13.352  23.012  0.00  0.00    +0.000 A 
ATOM      8  C   UNL     1      -1.455  12.432  22.117  0.00  0.00    +0.000 A 
ATOM      9  C   UNL     1      -2.870  12.494  22.207  0.00  0.00    +0.000 A 
ATOM     10  C   UNL     1      -3.223  13.448  23.160  0.00  0.00    +0.000 A 
BRANCH  10  11
ATOM     11  C   UNL     1      -4.545  13.844  23.619  0.00  0.00    +0.000 C 
ATOM     12  O   UNL     1      -4.804  14.960  24.062  0.00  0.00    +0.000 OA
ATOM     13  N   UNL     1      -5.511  12.860  23.511  0.00  0.00    +0.000 N 
ATOM     14  H   UNL     1      -5.261  11.980  23.081  0.00  0.00    +0.000 HD
BRANCH  13  15
ATOM     15  C   UNL     1      -6.864  13.065  23.991  0.00  0.00    +0.000 C 
BRANCH  15  16
ATOM     16  C   UNL     1      -7.917  12.225  23.272  0.00  0.00    +0.000 C 
BRANCH  16  17
ATOM     17  C   UNL     1      -7.583  11.952  21.819  0.00  0.00    +0.000 C 
ATOM     18  N   UNL     1      -7.408  12.916  20.974  0.00  0.00    +0.000 NA
ATOM     19  N   UNL     1      -7.486  10.679  21.361  0.00  0.00    +0.000 N 
ATOM     20  H   UNL     1      -7.564  13.829  21.413  0.00  0.00    +0.000 HD
ATOM     21  H   UNL     1      -7.290   9.915  21.993  0.00  0.00    +0.000 HD
ATOM     22  H   UNL     1      -7.072  10.598  20.438  0.00  0.00    +0.000 HD
ENDBRANCH  16  17
ENDBRANCH  15  16
ENDBRANCH  13  15
ENDBRANCH  10  11
ENDBRANCH   1   8
BRANCH   2  23
ATOM     23  C   UNL     1       0.723   9.794  20.673  0.00  0.00    +0.000 A 
ATOM     24  C   UNL     1       1.513   8.660  20.675  0.00  0.00    +0.000 A 
ATOM     25  C   UNL     1       1.905   8.385  19.340  0.00  0.00    +0.000 A 
ATOM     26  C   UNL     1       1.368   9.375  18.549  0.00  0.00    +0.000 A 
ATOM     27  N   UNL     1       0.662  10.222  19.364  0.00  0.00    +0.000 N 
ATOM     28  H   UNL     1       0.146  11.045  19.073  0.00  0.00    +0.000 HD
BRANCH  25  29
ATOM     29  N   UNL     1       2.656   7.340  18.841  0.00  0.00    +0.000 N 
ATOM     30  C   UNL     1       2.546   6.022  19.253  0.00  0.00    +0.000 C 
ATOM     31  O   UNL     1       1.857   5.646  20.196  0.00  0.00    +0.000 OA
ATOM     32  H   UNL     1       3.330   7.575  18.128  0.00  0.00    +0.000 HD
BRANCH  30  33
ATOM     33  C   UNL     1       3.336   5.088  18.461  0.00  0.00    +0.000 A 
ATOM     34  C   UNL     1       4.547   5.298  17.813  0.00  0.00    +0.000 A 
ATOM     35  C   UNL     1       4.899   4.124  17.117  0.00  0.00    +0.000 A 
ATOM     36  C   UNL     1       3.918   3.195  17.371  0.00  0.00    +0.000 A 
ATOM     37  N   UNL     1       2.960   3.791  18.154  0.00  0.00    +0.000 N 
ATOM     38  C   UNL     1       1.730   3.144  18.567  0.00  0.00    +0.000 C 
BRANCH  35  39
ATOM     39  N   UNL     1       5.985   3.881  16.309  0.00  0.00    +0.000 N 
ATOM     40  C   UNL     1       6.692   4.846  15.651  0.00  0.00    +0.000 C 
ATOM     41  O   UNL     1       7.641   4.602  14.917  0.00  0.00    +0.000 OA
ATOM     42  H   UNL     1       6.279   2.926  16.149  0.00  0.00    +0.000 HD
ENDBRANCH  35  39
ENDBRANCH  30  33
ENDBRANCH  25  29
ENDBRANCH   2  23
TORSDOF 9
ENDMDL
MODEL 3
REMARK VINA RESULT:      -7.4      2.426     12.745
REMARK  Name = 
REMARK  11 active torsions:
REMARK  status: ('A' for Active; 'I' for Inactive)
REMARK    1  A    between atoms: C_1  and  N_2
REMARK    2  A    between atoms: C_4  and  N_5
REMARK    3  A    between atoms: C_6  and  C_8
REMARK    4  A    between atoms: C_10  and  N_11
REMARK    5  A    between atoms: C_12  and  C_14
REMARK    6  A    between atoms: C_16  and  N_17
REMARK    7  A    between atoms: N_21  and  C_22
REMARK    8  A    between atoms: C_26  and  C_27
REMARK    9  A    between atoms: N_29  and  C_30
REMARK   10  A    between atoms: C_30  and  C_31
REMARK   11  A    between atoms: C_31  and  C_32
REMARK                            x       y       z     vdW  Elec       q    Type
REMARK                         _______ _______ _______ _____ _____    ______ ____
ROOT
ATOM      1  N   UNL     1       1.828   8.036  19.412  0.00  0.00    +0.000 N 
ATOM      2  C   UNL     1       1.728   8.975  18.400  0.00  0.00    +0.000 C 
ATOM      3  O   UNL     1       2.206   8.869  17.276  0.00  0.00    +0.000 OA
ATOM      4  H   UNL     1       1.400   8.238  20.306  0.00  0.00    +0.000 HD
ENDROOT
BRANCH   1   8
ATOM      5  C   UNL     1       3.136   3.378  20.189  0.00  0.00    +0.000 C 
ATOM      6  N   UNL     1       3.134   4.713  19.628  0.00  0.00    +0.000 N 
ATOM      7  C   UNL     1       2.248   5.681  20.025  0.00  0.00    +0.000 A 
ATOM      8  C   UNL     1       2.485   6.823  19.303  0.00  0.00    +0.000 A 
ATOM      9  C   UNL     1       3.550   6.520  18.417  0.00  0.00    +0.000 A 
ATOM     10  C   UNL     1       3.949   5.199  18.620  0.00  0.00    +0.000 A 
BRANCH  10  11
ATOM     11  C   UNL     1       5.014   4.450  17.974  0.00  0.00    +0.000 C 
ATOM     12  O   UNL     1       6.054   4.123  18.540  0.00  0.00    +0.000 OA
ATOM     13  N   UNL     1       4.766   4.115  16.656  0.00  0.00    +0.000 N 
ATOM     14  H   UNL     1       3.868   4.351  16.255  0.00  0.00    +0.000 HD
BRANCH  13  15
ATOM     15  C   UNL     1       5.755   3.432  15.843  0.00  0.00    +0.000 C 
BRANCH  15  16
ATOM     16  C   UNL     1       6.084   4.140  14.531  0.00  0.00    +0.000 C 
BRANCH  16  17
ATOM     17  C   UNL     1       7.187   5.171  14.661  0.00  0.00    +0.000 C 
ATOM     18  N   UNL     1       7.426   5.766  15.784  0.00  0.00    +0.000 NA
ATOM     19  N   UNL     1       7.938   5.516  13.585  0.00  0.00    +0.000 N 
ATOM     20  H   UNL     1       6.763   5.474  16.510  0.00  0.00    +0.000 HD
ATOM     21  H   UNL     1       8.030   4.892  12.796  0.00  0.00    +0.000 HD
ATOM     22  H   UNL     1       8.765   6.059  13.812  0.00  0.00    +0.000 HD
ENDBRANCH  16  17
ENDBRANCH  15  16
ENDBRANCH  13  15
ENDBRANCH  10  11
ENDBRANCH   1   8
BRANCH   2  23
ATOM     23  C   UNL     1       0.997  10.181  18.753  0.00  0.00    +0.000 A 
ATOM     24  C   UNL     1      -0.174  10.400  19.452  0.00  0.00    +0.000 A 
ATOM     25  C   UNL     1      -0.399  11.799  19.521  0.00  0.00    +0.000 A 
ATOM     26  C   UNL     1       0.628  12.408  18.837  0.00  0.00    +0.000 A 
ATOM     27  N   UNL     1       1.461  11.423  18.373  0.00  0.00    +0.000 N 
ATOM     28  H   UNL     1       2.312  11.557  17.837  0.00  0.00    +0.000 HD
BRANCH  25  29
ATOM     29  N   UNL     1      -1.410  12.497  20.150  0.00  0.00    +0.000 N 
ATOM     30  C   UNL     1      -1.335  13.010  21.434  0.00  0.00    +0.000 C 
ATOM     31  O   UNL     1      -0.408  12.798  22.211  0.00  0.00    +0.000 OA
ATOM     32  H   UNL     1      -2.258  12.630  19.619  0.00  0.00    +0.000 HD
BRANCH  30  33
ATOM     33  C   UNL     1      -2.472  13.841  21.807  0.00  0.00    +0.000 A 
ATOM     34  C   UNL     1      -2.830  15.096  21.331  0.00  0.00    +0.000 A 
ATOM     35  C   UNL     1      -3.969  15.540  22.032  0.00  0.00    +0.000 A 
ATOM     36  C   UNL     1      -4.319  14.539  22.907  0.00  0.00    +0.000 A 
ATOM     37  N   UNL     1      -3.393  13.531  22.793  0.00  0.00    +0.000 N 
ATOM     38  C   UNL     1      -3.388  12.335  23.612  0.00  0.00    +0.000 C 
BRANCH  35  39
ATOM     39  N   UNL     1      -4.648  16.731  21.930  0.00  0.00    +0.000 N 
ATOM     40  C   UNL     1      -5.616  17.147  22.798  0.00  0.00    +0.000 C 
ATOM     41  O   UNL     1      -6.224  18.203  22.671  0.00  0.00    +0.000 OA
ATOM     42  H   UNL     1      -4.459  17.343  21.147  0.00  0.00    +0.000 HD
ENDBRANCH  35  39
ENDBRANCH  30  33
ENDBRANCH  25  29
ENDBRANCH   2  23
TORSDOF 9
ENDMDL
MODEL 4
REMARK VINA RESULT:      -7.4      1.958      2.621
REMARK  Name = 
REMARK  11 active torsions:
REMARK  status: ('A' for Active; 'I' for Inactive)
REMARK    1  A    between atoms: C_1  and  N_2
REMARK    2  A    between atoms: C_4  and  N_5
REMARK    3  A    between atoms: C_6  and  C_8
REMARK    4  A    between atoms: C_10  and  N_11
REMARK    5  A    between atoms: C_12  and  C_14
REMARK    6  A    between atoms: C_16  and  N_17
REMARK    7  A    between atoms: N_21  and  C_22
REMARK    8  A    between atoms: C_26  and  C_27
REMARK    9  A    between atoms: N_29  and  C_30
REMARK   10  A    between atoms: C_30  and  C_31
REMARK   11  A    between atoms: C_31  and  C_32
REMARK                            x       y       z     vdW  Elec       q    Type
REMARK                         _______ _______ _______ _____ _____    ______ ____
ROOT
ATOM      1  N   UNL     1      -0.243  11.145  20.974  0.00  0.00    +0.000 N 
ATOM      2  C   UNL     1      -0.010   9.782  21.035  0.00  0.00    +0.000 C 
ATOM      3  O   UNL     1      -0.447   9.019  21.890  0.00  0.00    +0.000 OA
ATOM      4  H   UNL     1       0.179  11.677  20.225  0.00  0.00    +0.000 HD
ENDROOT
BRANCH   1   8
ATOM      5  C   UNL     1      -1.674  14.569  24.175  0.00  0.00    +0.000 C 
ATOM      6  N   UNL     1      -1.710  13.376  23.353  0.00  0.00    +0.000 N 
ATOM      7  C   UNL     1      -0.676  13.012  22.531  0.00  0.00    +0.000 A 
ATOM      8  C   UNL     1      -1.015  11.856  21.876  0.00  0.00    +0.000 A 
ATOM      9  C   UNL     1      -2.323  11.521  22.311  0.00  0.00    +0.000 A 
ATOM     10  C   UNL     1      -2.756  12.477  23.230  0.00  0.00    +0.000 A 
BRANCH  10  11
ATOM     11  C   UNL     1      -4.006  12.545  23.968  0.00  0.00    +0.000 C 
ATOM     12  O   UNL     1      -4.100  12.307  25.169  0.00  0.00    +0.000 OA
ATOM     13  N   UNL     1      -5.103  12.912  23.211  0.00  0.00    +0.000 N 
ATOM     14  H   UNL     1      -4.962  13.160  22.241  0.00  0.00    +0.000 HD
BRANCH  13  15
ATOM     15  C   UNL     1      -6.439  12.957  23.775  0.00  0.00    +0.000 C 
BRANCH  15  16
ATOM     16  C   UNL     1      -7.477  12.162  22.987  0.00  0.00    +0.000 C 
BRANCH  16  17
ATOM     17  C   UNL     1      -7.272  12.219  21.486  0.00  0.00    +0.000 C 
ATOM     18  N   UNL     1      -6.677  11.262  20.850  0.00  0.00    +0.000 NA
ATOM     19  N   UNL     1      -7.687  13.295  20.773  0.00  0.00    +0.000 N 
ATOM     20  H   UNL     1      -6.354  10.531  21.493  0.00  0.00    +0.000 HD
ATOM     21  H   UNL     1      -8.416  13.899  21.126  0.00  0.00    +0.000 HD
ATOM     22  H   UNL     1      -7.684  13.156  19.768  0.00  0.00    +0.000 HD
ENDBRANCH  16  17
ENDBRANCH  15  16
ENDBRANCH  13  15
ENDBRANCH  10  11
ENDBRANCH   1   8
BRANCH   2  23
ATOM     23  C   UNL     1       0.843   9.259  19.981  0.00  0.00    +0.000 A 
ATOM     24  C   UNL     1       1.896   8.365  19.980  0.00  0.00    +0.000 A 
ATOM     25  C   UNL     1       2.340   8.196  18.644  0.00  0.00    +0.000 A 
ATOM     26  C   UNL     1       1.563   9.013  17.854  0.00  0.00    +0.000 A 
ATOM     27  N   UNL     1       0.667   9.654  18.671  0.00  0.00    +0.000 N 
ATOM     28  H   UNL     1      -0.044  10.316  18.382  0.00  0.00    +0.000 HD
BRANCH  25  29
ATOM     29  N   UNL     1       3.331   7.377  18.142  0.00  0.00    +0.000 N 
ATOM     30  C   UNL     1       3.427   6.017  18.382  0.00  0.00    +0.000 C 
ATOM     31  O   UNL     1       2.714   5.400  19.168  0.00  0.00    +0.000 OA
ATOM     32  H   UNL     1       4.027   7.822  17.564  0.00  0.00    +0.000 HD
BRANCH  30  33
ATOM     33  C   UNL     1       4.470   5.353  17.611  0.00  0.00    +0.000 A 
ATOM     34  C   UNL     1       4.399   4.800  16.339  0.00  0.00    +0.000 A 
ATOM     35  C   UNL     1       5.639   4.207  16.030  0.00  0.00    +0.000 A 
ATOM     36  C   UNL     1       6.470   4.431  17.102  0.00  0.00    +0.000 A 
ATOM     37  N   UNL     1       5.751   5.092  18.067  0.00  0.00    +0.000 N 
ATOM     38  C   UNL     1       6.272   5.437  19.376  0.00  0.00    +0.000 C 
BRANCH  35  39
ATOM     39  N   UNL     1       6.019   3.511  14.907  0.00  0.00    +0.000 N 
ATOM     40  C   UNL     1       6.039   4.031  13.645  0.00  0.00    +0.000 C 
ATOM     41  O   UNL     1       6.358   3.382  12.655  0.00  0.00    +0.000 OA
ATOM     42  H   UNL     1       6.274   2.536  14.991  0.00  0.00    +0.000 HD
ENDBRANCH  35  39
ENDBRANCH  30  33
ENDBRANCH  25  29
ENDBRANCH   2  23
TORSDOF 9
ENDMDL
MODEL 5
REMARK VINA RESULT:      -7.4      1.406      1.614
REMARK  Name = 
REMARK  11 active torsions:
REMARK  status: ('A' for Active; 'I' for Inactive)
REMARK    1  A    between atoms: C_1  and  N_2
REMARK    2  A    between atoms: C_4  and  N_5
REMARK    3  A    between atoms: C_6  and  C_8
REMARK    4  A    between atoms: C_10  and  N_11
REMARK    5  A    between atoms: C_12  and  C_14
REMARK    6  A    between atoms: C_16  and  N_17
REMARK    7  A    between atoms: N_21  and  C_22
REMARK    8  A    between atoms: C_26  and  C_27
REMARK    9  A    between atoms: N_29  and  C_30
REMARK   10  A    between atoms: C_30  and  C_31
REMARK   11  A    between atoms: C_31  and  C_32
REMARK                            x       y       z     vdW  Elec       q    Type
REMARK                         _______ _______ _______ _____ _____    ______ ____
ROOT
ATOM      1  N   UNL     1       0.185   9.772  20.222  0.00  0.00    +0.000 N 
ATOM      2  C   UNL     1       0.735   8.772  21.006  0.00  0.00    +0.000 C 
ATOM      3  O   UNL     1       0.578   8.643  22.216  0.00  0.00    +0.000 OA
ATOM      4  H   UNL     1       0.394   9.782  19.233  0.00  0.00    +0.000 HD
ENDROOT
BRANCH   1   8
ATOM      5  C   UNL     1      -2.573  13.819  20.370  0.00  0.00    +0.000 C 
ATOM      6  N   UNL     1      -1.885  12.626  20.819  0.00  0.00    +0.000 N 
ATOM      7  C   UNL     1      -1.141  11.840  19.978  0.00  0.00    +0.000 A 
ATOM      8  C   UNL     1      -0.635  10.783  20.690  0.00  0.00    +0.000 A 
ATOM      9  C   UNL     1      -1.113  10.932  22.018  0.00  0.00    +0.000 A 
ATOM     10  C   UNL     1      -1.898  12.082  22.092  0.00  0.00    +0.000 A 
BRANCH  10  11
ATOM     11  C   UNL     1      -2.575  12.661  23.240  0.00  0.00    +0.000 C 
ATOM     12  O   UNL     1      -2.062  13.496  23.981  0.00  0.00    +0.000 OA
ATOM     13  N   UNL     1      -3.865  12.206  23.439  0.00  0.00    +0.000 N 
ATOM     14  H   UNL     1      -4.264  11.567  22.765  0.00  0.00    +0.000 HD
BRANCH  13  15
ATOM     15  C   UNL     1      -4.655  12.627  24.581  0.00  0.00    +0.000 C 
BRANCH  15  16
ATOM     16  C   UNL     1      -6.147  12.767  24.291  0.00  0.00    +0.000 C 
BRANCH  16  17
ATOM     17  C   UNL     1      -6.474  12.828  22.812  0.00  0.00    +0.000 C 
ATOM     18  N   UNL     1      -6.133  13.845  22.088  0.00  0.00    +0.000 NA
ATOM     19  N   UNL     1      -7.159  11.821  22.215  0.00  0.00    +0.000 N 
ATOM     20  H   UNL     1      -5.676  14.569  22.651  0.00  0.00    +0.000 HD
ATOM     21  H   UNL     1      -7.168  10.893  22.615  0.00  0.00    +0.000 HD
ATOM     22  H   UNL     1      -7.157  11.860  21.201  0.00  0.00    +0.000 HD
ENDBRANCH  16  17
ENDBRANCH  15  16
ENDBRANCH  13  15
ENDBRANCH  10  11
ENDBRANCH   1   8
BRANCH   2  23
ATOM     23  C   UNL     1       1.574   7.824  20.292  0.00  0.00    +0.000 A 
ATOM     24  C   UNL     1       2.312   7.912  19.128  0.00  0.00    +0.000 A 
ATOM     25  C   UNL     1       2.972   6.674  18.921  0.00  0.00    +0.000 A 
ATOM     26  C   UNL     1       2.601   5.841  19.952  0.00  0.00    +0.000 A 
ATOM     27  N   UNL     1       1.753   6.542  20.770  0.00  0.00    +0.000 N 
ATOM     28  H   UNL     1       1.317   6.201  21.619  0.00  0.00    +0.000 HD
BRANCH  25  29
ATOM     29  N   UNL     1       3.849   6.300  17.922  0.00  0.00    +0.000 N 
ATOM     30  C   UNL     1       4.801   5.302  18.042  0.00  0.00    +0.000 C 
ATOM     31  O   UNL     1       5.063   4.716  19.088  0.00  0.00    +0.000 OA
ATOM     32  H   UNL     1       3.775   6.805  17.052  0.00  0.00    +0.000 HD
BRANCH  30  33
ATOM     33  C   UNL     1       5.493   4.993  16.798  0.00  0.00    +0.000 A 
ATOM     34  C   UNL     1       5.150   4.077  15.811  0.00  0.00    +0.000 A 
ATOM     35  C   UNL     1       6.154   4.077  14.822  0.00  0.00    +0.000 A 
ATOM     36  C   UNL     1       7.086   5.016  15.194  0.00  0.00    +0.000 A 
ATOM     37  N   UNL     1       6.702   5.542  16.403  0.00  0.00    +0.000 N 
ATOM     38  C   UNL     1       7.476   6.514  17.150  0.00  0.00    +0.000 C 
BRANCH  35  39
ATOM     39  N   UNL     1       6.261   3.308  13.687  0.00  0.00    +0.000 N 
ATOM     40  C   UNL     1       5.362   3.317  12.659  0.00  0.00    +0.000 C 
ATOM     41  O   UNL     1       5.466   2.603  11.669  0.00  0.00    +0.000 OA
ATOM     42  H   UNL     1       7.032   2.660  13.598  0.00  0.00    +0.000 HD
ENDBRANCH  35  39
ENDBRANCH  30  33
ENDBRANCH  25  29
ENDBRANCH   2  23
TORSDOF 9
ENDMDL
MODEL 6
REMARK VINA RESULT:      -7.3      2.539     12.368
REMARK  Name = 
REMARK  11 active torsions:
REMARK  status: ('A' for Active; 'I' for Inactive)
REMARK    1  A    between atoms: C_1  and  N_2
REMARK    2  A    between atoms: C_4  and  N_5
REMARK    3  A    between atoms: C_6  and  C_8
REMARK    4  A    between atoms: C_10  and  N_11
REMARK    5  A    between atoms: C_12  and  C_14
REMARK    6  A    between atoms: C_16  and  N_17
REMARK    7  A    between atoms: N_21  and  C_22
REMARK    8  A    between atoms: C_26  and  C_27
REMARK    9  A    between atoms: N_29  and  C_30
REMARK   10  A    between atoms: C_30  and  C_31
REMARK   11  A    between atoms: C_31  and  C_32
REMARK                            x       y       z     vdW  Elec       q    Type
REMARK                         _______ _______ _______ _____ _____    ______ ____
ROOT
ATOM      1  N   UNL     1       1.702   8.998  18.863  0.00  0.00    +0.000 N 
ATOM      2  C   UNL     1       1.288   9.137  20.177  0.00  0.00    +0.000 C 
ATOM      3  O   UNL     1       1.499   8.336  21.082  0.00  0.00    +0.000 OA
ATOM      4  H   UNL     1       1.460   9.722  18.200  0.00  0.00    +0.000 HD
ENDROOT
BRANCH   1   8
ATOM      5  C   UNL     1       5.063   6.391  16.432  0.00  0.00    +0.000 C 
ATOM      6  N   UNL     1       3.920   6.690  17.270  0.00  0.00    +0.000 N 
ATOM      7  C   UNL     1       3.517   7.971  17.542  0.00  0.00    +0.000 A 
ATOM      8  C   UNL     1       2.426   7.927  18.371  0.00  0.00    +0.000 A 
ATOM      9  C   UNL     1       2.174   6.554  18.625  0.00  0.00    +0.000 A 
ATOM     10  C   UNL     1       3.114   5.785  17.939  0.00  0.00    +0.000 A 
BRANCH  10  11
ATOM     11  C   UNL     1       3.244   4.339  17.868  0.00  0.00    +0.000 C 
ATOM     12  O   UNL     1       3.165   3.701  16.820  0.00  0.00    +0.000 OA
ATOM     13  N   UNL     1       3.477   3.720  19.082  0.00  0.00    +0.000 N 
ATOM     14  H   UNL     1       3.597   4.295  19.904  0.00  0.00    +0.000 HD
BRANCH  13  15
ATOM     15  C   UNL     1       3.559   2.276  19.198  0.00  0.00    +0.000 C 
BRANCH  15  16
ATOM     16  C   UNL     1       2.305   1.623  19.774  0.00  0.00    +0.000 C 
BRANCH  16  17
ATOM     17  C   UNL     1       1.520   2.531  20.700  0.00  0.00    +0.000 C 
ATOM     18  N   UNL     1       0.586   3.307  20.252  0.00  0.00    +0.000 NA
ATOM     19  N   UNL     1       1.799   2.571  22.027  0.00  0.00    +0.000 N 
ATOM     20  H   UNL     1       0.502   3.240  19.233  0.00  0.00    +0.000 HD
ATOM     21  H   UNL     1       2.261   1.796  22.482  0.00  0.00    +0.000 HD
ATOM     22  H   UNL     1       1.102   3.053  22.585  0.00  0.00    +0.000 HD
ENDBRANCH  16  17
ENDBRANCH  15  16
ENDBRANCH  13  15
ENDBRANCH  10  11
ENDBRANCH   1   8
BRANCH   2  23
ATOM     23  C   UNL     1       0.530  10.345  20.457  0.00  0.00    +0.000 A 
ATOM     24  C   UNL     1      -0.771  10.566  20.862  0.00  0.00    +0.000 A 
ATOM     25  C   UNL     1      -0.963  11.963  21.014  0.00  0.00    +0.000 A 
ATOM     26  C   UNL     1       0.223  12.573  20.672  0.00  0.00    +0.000 A 
ATOM     27  N   UNL     1       1.115  11.588  20.332  0.00  0.00    +0.000 N 
ATOM     28  H   UNL     1       2.077  11.723  20.041  0.00  0.00    +0.000 HD
BRANCH  25  29
ATOM     29  N   UNL     1      -2.077  12.658  21.439  0.00  0.00    +0.000 N 
ATOM     30  C   UNL     1      -2.701  12.477  22.662  0.00  0.00    +0.000 C 
ATOM     31  O   UNL     1      -2.412  11.592  23.462  0.00  0.00    +0.000 OA
ATOM     32  H   UNL     1      -2.449  13.340  20.797  0.00  0.00    +0.000 HD
BRANCH  30  33
ATOM     33  C   UNL     1      -3.757  13.442  22.935  0.00  0.00    +0.000 A 
ATOM     34  C   UNL     1      -3.778  14.478  23.860  0.00  0.00    +0.000 A 
ATOM     35  C   UNL     1      -5.039  15.105  23.813  0.00  0.00    +0.000 A 
ATOM     36  C   UNL     1      -5.769  14.470  22.836  0.00  0.00    +0.000 A 
ATOM     37  N   UNL     1      -5.005  13.445  22.334  0.00  0.00    +0.000 N 
ATOM     38  C   UNL     1      -5.467  12.502  21.334  0.00  0.00    +0.000 C 
BRANCH  35  39
ATOM     39  N   UNL     1      -5.526  16.144  24.571  0.00  0.00    +0.000 N 
ATOM     40  C   UNL     1      -4.755  17.119  25.135  0.00  0.00    +0.000 C 
ATOM     41  O   UNL     1      -5.211  18.021  25.827  0.00  0.00    +0.000 OA
ATOM     42  H   UNL     1      -6.518  16.193  24.765  0.00  0.00    +0.000 HD
ENDBRANCH  35  39
ENDBRANCH  30  33
ENDBRANCH  25  29
ENDBRANCH   2  23
TORSDOF 9
ENDMDL
MODEL 7
REMARK VINA RESULT:      -7.3      2.657     12.734
REMARK  Name = 
REMARK  11 active torsions:
REMARK  status: ('A' for Active; 'I' for Inactive)
REMARK    1  A    between atoms: C_1  and  N_2
REMARK    2  A    between atoms: C_4  and  N_5
REMARK    3  A    between atoms: C_6  and  C_8
REMARK    4  A    between atoms: C_10  and  N_11
REMARK    5  A    between atoms: C_12  and  C_14
REMARK    6  A    between atoms: C_16  and  N_17
REMARK    7  A    between atoms: N_21  and  C_22
REMARK    8  A    between atoms: C_26  and  C_27
REMARK    9  A    between atoms: N_29  and  C_30
REMARK   10  A    between atoms: C_30  and  C_31
REMARK   11  A    between atoms: C_31  and  C_32
REMARK                            x       y       z     vdW  Elec       q    Type
REMARK                         _______ _______ _______ _____ _____    ______ ____
ROOT
ATOM      1  N   UNL     1       1.343   7.211  21.088  0.00  0.00    +0.000 N 
ATOM      2  C   UNL     1       1.189   8.439  20.468  0.00  0.00    +0.000 C 
ATOM      3  O   UNL     1       1.576   8.724  19.339  0.00  0.00    +0.000 OA
ATOM      4  H   UNL     1       0.992   7.095  22.029  0.00  0.00    +0.000 HD
ENDROOT
BRANCH   1   8
ATOM      5  C   UNL     1       2.442   2.568  19.971  0.00  0.00    +0.000 C 
ATOM      6  N   UNL     1       2.513   4.015  19.990  0.00  0.00    +0.000 N 
ATOM      7  C   UNL     1       1.649   4.789  20.720  0.00  0.00    +0.000 A 
ATOM      8  C   UNL     1       1.958   6.110  20.520  0.00  0.00    +0.000 A 
ATOM      9  C   UNL     1       3.048   6.130  19.612  0.00  0.00    +0.000 A 
ATOM     10  C   UNL     1       3.388   4.819  19.280  0.00  0.00    +0.000 A 
BRANCH  10  11
ATOM     11  C   UNL     1       4.451   4.335  18.414  0.00  0.00    +0.000 C 
ATOM     12  O   UNL     1       4.309   3.411  17.617  0.00  0.00    +0.000 OA
ATOM     13  N   UNL     1       5.652   5.007  18.545  0.00  0.00    +0.000 N 
ATOM     14  H   UNL     1       5.698   5.801  19.168  0.00  0.00    +0.000 HD
BRANCH  13  15
ATOM     15  C   UNL     1       6.835   4.605  17.808  0.00  0.00    +0.000 C 
BRANCH  15  16
ATOM     16  C   UNL     1       7.239   5.571  16.698  0.00  0.00    +0.000 C 
BRANCH  16  17
ATOM     17  C   UNL     1       6.764   5.145  15.322  0.00  0.00    +0.000 C 
ATOM     18  N   UNL     1       5.598   4.613  15.146  0.00  0.00    +0.000 NA
ATOM     19  N   UNL     1       7.569   5.289  14.240  0.00  0.00    +0.000 N 
ATOM     20  H   UNL     1       5.102   4.498  16.036  0.00  0.00    +0.000 HD
ATOM     21  H   UNL     1       8.321   5.964  14.240  0.00  0.00    +0.000 HD
ATOM     22  H   UNL     1       7.098   5.161  13.350  0.00  0.00    +0.000 HD
ENDBRANCH  16  17
ENDBRANCH  15  16
ENDBRANCH  13  15
ENDBRANCH  10  11
ENDBRANCH   1   8
BRANCH   2  23
ATOM     23  C   UNL     1       0.519   9.450  21.268  0.00  0.00    +0.000 A 
ATOM     24  C   UNL     1       0.131  10.750  21.009  0.00  0.00    +0.000 A 
ATOM     25  C   UNL     1      -0.522  11.261  22.160  0.00  0.00    +0.000 A 
ATOM     26  C   UNL     1      -0.496  10.268  23.113  0.00  0.00    +0.000 A 
ATOM     27  N   UNL     1       0.139   9.183  22.567  0.00  0.00    +0.000 N 
ATOM     28  H   UNL     1       0.307   8.292  23.022  0.00  0.00    +0.000 HD
BRANCH  25  29
ATOM     29  N   UNL     1      -1.117  12.490  22.362  0.00  0.00    +0.000 N 
ATOM     30  C   UNL     1      -0.445  13.701  22.361  0.00  0.00    +0.000 C 
ATOM     31  O   UNL     1       0.775  13.816  22.304  0.00  0.00    +0.000 OA
ATOM     32  H   UNL     1      -2.112  12.483  22.523  0.00  0.00    +0.000 HD
BRANCH  30  33
ATOM     33  C   UNL     1      -1.321  14.862  22.439  0.00  0.00    +0.000 A 
ATOM     34  C   UNL     1      -2.065  15.326  23.517  0.00  0.00    +0.000 A 
ATOM     35  C   UNL     1      -2.814  16.446  23.104  0.00  0.00    +0.000 A 
ATOM     36  C   UNL     1      -2.498  16.679  21.787  0.00  0.00    +0.000 A 
ATOM     37  N   UNL     1      -1.624  15.701  21.380  0.00  0.00    +0.000 N 
ATOM     38  C   UNL     1      -1.122  15.573  20.026  0.00  0.00    +0.000 C 
BRANCH  35  39
ATOM     39  N   UNL     1      -3.717  17.202  23.815  0.00  0.00    +0.000 N 
ATOM     40  C   UNL     1      -4.261  16.835  25.012  0.00  0.00    +0.000 C 
ATOM     41  O   UNL     1      -5.082  17.516  25.614  0.00  0.00    +0.000 OA
ATOM     42  H   UNL     1      -4.040  18.080  23.429  0.00  0.00    +0.000 HD
ENDBRANCH  35  39
ENDBRANCH  30  33
ENDBRANCH  25  29
ENDBRANCH   2  23
TORSDOF 9
ENDMDL
MODEL 8
REMARK VINA RESULT:      -7.2      1.970      2.569
REMARK  Name = 
REMARK  11 active torsions:
REMARK  status: ('A' for Active; 'I' for Inactive)
REMARK    1  A    between atoms: C_1  and  N_2
REMARK    2  A    between atoms: C_4  and  N_5
REMARK    3  A    between atoms: C_6  and  C_8
REMARK    4  A    between atoms: C_10  and  N_11
REMARK    5  A    between atoms: C_12  and  C_14
REMARK    6  A    between atoms: C_16  and  N_17
REMARK    7  A    between atoms: N_21  and  C_22
REMARK    8  A    between atoms: C_26  and  C_27
REMARK    9  A    between atoms: N_29  and  C_30
REMARK   10  A    between atoms: C_30  and  C_31
REMARK   11  A    between atoms: C_31  and  C_32
REMARK                            x       y       z     vdW  Elec       q    Type
REMARK                         _______ _______ _______ _____ _____    ______ ____
ROOT
ATOM      1  N   UNL     1       0.147   9.897  20.381  0.00  0.00    +0.000 N 
ATOM      2  C   UNL     1       0.676   8.876  21.152  0.00  0.00    +0.000 C 
ATOM      3  O   UNL     1       0.524   8.742  22.362  0.00  0.00    +0.000 OA
ATOM      4  H   UNL     1       0.349   9.911  19.390  0.00  0.00    +0.000 HD
ENDROOT
BRANCH   1   8
ATOM      5  C   UNL     1      -1.725  13.310  23.357  0.00  0.00    +0.000 C 
ATOM      6  N   UNL     1      -1.547  12.480  22.184  0.00  0.00    +0.000 N 
ATOM      7  C   UNL     1      -0.567  11.525  22.094  0.00  0.00    +0.000 A 
ATOM      8  C   UNL     1      -0.644  10.924  20.863  0.00  0.00    +0.000 A 
ATOM      9  C   UNL     1      -1.708  11.562  20.175  0.00  0.00    +0.000 A 
ATOM     10  C   UNL     1      -2.266  12.537  21.002  0.00  0.00    +0.000 A 
BRANCH  10  11
ATOM     11  C   UNL     1      -3.390  13.423  20.750  0.00  0.00    +0.000 C 
ATOM     12  O   UNL     1      -3.276  14.636  20.594  0.00  0.00    +0.000 OA
ATOM     13  N   UNL     1      -4.618  12.793  20.687  0.00  0.00    +0.000 N 
ATOM     14  H   UNL     1      -4.651  11.785  20.758  0.00  0.00    +0.000 HD
BRANCH  13  15
ATOM     15  C   UNL     1      -5.851  13.539  20.515  0.00  0.00    +0.000 C 
BRANCH  15  16
ATOM     16  C   UNL     1      -6.837  12.901  19.540  0.00  0.00    +0.000 C 
BRANCH  16  17
ATOM     17  C   UNL     1      -6.388  12.969  18.094  0.00  0.00    +0.000 C 
ATOM     18  N   UNL     1      -5.220  12.549  17.730  0.00  0.00    +0.000 NA
ATOM     19  N   UNL     1      -7.198  13.500  17.144  0.00  0.00    +0.000 N 
ATOM     20  H   UNL     1      -4.672  12.226  18.534  0.00  0.00    +0.000 HD
ATOM     21  H   UNL     1      -8.198  13.541  17.281  0.00  0.00    +0.000 HD
ATOM     22  H   UNL     1      -6.895  13.324  16.192  0.00  0.00    +0.000 HD
ENDBRANCH  16  17
ENDBRANCH  15  16
ENDBRANCH  13  15
ENDBRANCH  10  11
ENDBRANCH   1   8
BRANCH   2  23
ATOM     23  C   UNL     1       1.486   7.914  20.425  0.00  0.00    +0.000 A 
ATOM     24  C   UNL     1       2.225   7.996  19.261  0.00  0.00    +0.000 A 
ATOM     25  C   UNL     1       2.847   6.742  19.036  0.00  0.00    +0.000 A 
ATOM     26  C   UNL     1       2.453   5.906  20.056  0.00  0.00    +0.000 A 
ATOM     27  N   UNL     1       1.628   6.621  20.885  0.00  0.00    +0.000 N 
ATOM     28  H   UNL     1       1.183   6.281  21.731  0.00  0.00    +0.000 HD
BRANCH  25  29
ATOM     29  N   UNL     1       3.712   6.355  18.031  0.00  0.00    +0.000 N 
ATOM     30  C   UNL     1       4.828   5.557  18.215  0.00  0.00    +0.000 C 
ATOM     31  O   UNL     1       5.252   5.200  19.309  0.00  0.00    +0.000 OA
ATOM     32  H   UNL     1       3.498   6.692  17.105  0.00  0.00    +0.000 HD
BRANCH  30  33
ATOM     33  C   UNL     1       5.483   5.164  16.974  0.00  0.00    +0.000 A 
ATOM     34  C   UNL     1       5.154   4.137  16.099  0.00  0.00    +0.000 A 
ATOM     35  C   UNL     1       6.113   4.093  15.068  0.00  0.00    +0.000 A 
ATOM     36  C   UNL     1       7.004   5.113  15.302  0.00  0.00    +0.000 A 
ATOM     37  N   UNL     1       6.641   5.735  16.471  0.00  0.00    +0.000 N 
ATOM     38  C   UNL     1       7.388   6.816  17.083  0.00  0.00    +0.000 C 
BRANCH  35  39
ATOM     39  N   UNL     1       6.217   3.222  14.008  0.00  0.00    +0.000 N 
ATOM     40  C   UNL     1       5.803   3.498  12.737  0.00  0.00    +0.000 C 
ATOM     41  O   UNL     1       5.884   2.695  11.815  0.00  0.00    +0.000 OA
ATOM     42  H   UNL     1       6.592   2.295  14.164  0.00  0.00    +0.000 HD
ENDBRANCH  35  39
ENDBRANCH  30  33
ENDBRANCH  25  29
ENDBRANCH   2  23
TORSDOF 9
ENDMDL
MODEL 9
REMARK VINA RESULT:      -7.2      1.325      1.409
REMARK  Name = 
REMARK  11 active torsions:
REMARK  status: ('A' for Active; 'I' for Inactive)
REMARK    1  A    between atoms: C_1  and  N_2
REMARK    2  A    between atoms: C_4  and  N_5
REMARK    3  A    between atoms: C_6  and  C_8
REMARK    4  A    between atoms: C_10  and  N_11
REMARK    5  A    between atoms: C_12  and  C_14
REMARK    6  A    between atoms: C_16  and  N_17
REMARK    7  A    between atoms: N_21  and  C_22
REMARK    8  A    between atoms: C_26  and  C_27
REMARK    9  A    between atoms: N_29  and  C_30
REMARK   10  A    between atoms: C_30  and  C_31
REMARK   11  A    between atoms: C_31  and  C_32
REMARK                            x       y       z     vdW  Elec       q    Type
REMARK                         _______ _______ _______ _____ _____    ______ ____
ROOT
ATOM      1  N   UNL     1       1.134  10.669  20.453  0.00  0.00    +0.000 N 
ATOM      2  C   UNL     1       0.695   9.912  19.381  0.00  0.00    +0.000 C 
ATOM      3  O   UNL     1      -0.332  10.110  18.739  0.00  0.00    +0.000 OA
ATOM      4  H   UNL     1       1.995  10.404  20.914  0.00  0.00    +0.000 HD
ENDROOT
BRANCH   1   8
ATOM      5  C   UNL     1       0.220  15.243  21.957  0.00  0.00    +0.000 C 
ATOM      6  N   UNL     1       0.013  13.836  21.679  0.00  0.00    +0.000 N 
ATOM      7  C   UNL     1       0.978  13.043  21.114  0.00  0.00    +0.000 A 
ATOM      8  C   UNL     1       0.477  11.775  20.963  0.00  0.00    +0.000 A 
ATOM      9  C   UNL     1      -0.858  11.814  21.442  0.00  0.00    +0.000 A 
ATOM     10  C   UNL     1      -1.145  13.106  21.883  0.00  0.00    +0.000 A 
BRANCH  10  11
ATOM     11  C   UNL     1      -2.365  13.623  22.480  0.00  0.00    +0.000 C 
ATOM     12  O   UNL     1      -3.051  14.504  21.968  0.00  0.00    +0.000 OA
ATOM     13  N   UNL     1      -2.713  13.036  23.683  0.00  0.00    +0.000 N 
ATOM     14  H   UNL     1      -2.151  12.271  24.030  0.00  0.00    +0.000 HD
BRANCH  13  15
ATOM     15  C   UNL     1      -3.861  13.485  24.447  0.00  0.00    +0.000 C 
BRANCH  15  16
ATOM     16  C   UNL     1      -4.919  12.409  24.678  0.00  0.00    +0.000 C 
BRANCH  16  17
ATOM     17  C   UNL     1      -6.304  12.812  24.213  0.00  0.00    +0.000 C 
ATOM     18  N   UNL     1      -6.716  14.035  24.302  0.00  0.00    +0.000 NA
ATOM     19  N   UNL     1      -7.161  11.886  23.714  0.00  0.00    +0.000 N 
ATOM     20  H   UNL     1      -6.013  14.634  24.747  0.00  0.00    +0.000 HD
ATOM     21  H   UNL     1      -6.817  11.020  23.324  0.00  0.00    +0.000 HD
ATOM     22  H   UNL     1      -7.977  12.278  23.255  0.00  0.00    +0.000 HD
ENDBRANCH  16  17
ENDBRANCH  15  16
ENDBRANCH  13  15
ENDBRANCH  10  11
ENDBRANCH   1   8
BRANCH   2  23
ATOM     23  C   UNL     1       1.548   8.790  19.032  0.00  0.00    +0.000 A 
ATOM     24  C   UNL     1       2.161   8.404  17.856  0.00  0.00    +0.000 A 
ATOM     25  C   UNL     1       2.913   7.228  18.107  0.00  0.00    +0.000 A 
ATOM     26  C   UNL     1       2.722   6.901  19.430  0.00  0.00    +0.000 A 
ATOM     27  N   UNL     1       1.893   7.846  19.977  0.00  0.00    +0.000 N 
ATOM     28  H   UNL     1       1.574   7.882  20.939  0.00  0.00    +0.000 HD
BRANCH  25  29
ATOM     29  N   UNL     1       3.723   6.502  17.256  0.00  0.00    +0.000 N 
ATOM     30  C   UNL     1       5.070   6.748  17.048  0.00  0.00    +0.000 C 
ATOM     31  O   UNL     1       5.675   7.714  17.501  0.00  0.00    +0.000 OA
ATOM     32  H   UNL     1       3.281   5.745  16.757  0.00  0.00    +0.000 HD
BRANCH  30  33
ATOM     33  C   UNL     1       5.733   5.745  16.226  0.00  0.00    +0.000 A 
ATOM     34  C   UNL     1       5.521   5.430  14.890  0.00  0.00    +0.000 A 
ATOM     35  C   UNL     1       6.350   4.345  14.541  0.00  0.00    +0.000 A 
ATOM     36  C   UNL     1       7.086   4.025  15.657  0.00  0.00    +0.000 A 
ATOM     37  N   UNL     1       6.686   4.849  16.681  0.00  0.00    +0.000 N 
ATOM     38  C   UNL     1       7.188   4.760  18.038  0.00  0.00    +0.000 C 
BRANCH  35  39
ATOM     39  N   UNL     1       6.450   3.672  13.346  0.00  0.00    +0.000 N 
ATOM     40  C   UNL     1       5.387   3.204  12.629  0.00  0.00    +0.000 C 
ATOM     41  O   UNL     1       5.504   2.586  11.578  0.00  0.00    +0.000 OA
ATOM     42  H   UNL     1       7.366   3.469  12.967  0.00  0.00    +0.000 HD
ENDBRANCH  35  39
ENDBRANCH  30  33
ENDBRANCH  25  29
ENDBRANCH   2  23
TORSDOF 9
ENDMDL
