MODEL 1
REMARK VINA RESULT:      -7.7      0.000      0.000
REMARK  Name = 
REMARK  12 active torsions:
REMARK  status: ('A' for Active; 'I' for Inactive)
REMARK    1  A    between atoms: C_1  and  C_2
REMARK    2  A    between atoms: C_2  and  C_3
REMARK    3  A    between atoms: C_3  and  C_4
REMARK    4  A    between atoms: C_4  and  C_5
REMARK    5  A    between atoms: C_5  and  C_6
REMARK    6  A    between atoms: C_8  and  O_9
REMARK    7  A    between atoms: C_10  and  C_11
REMARK    8  A    between atoms: C_13  and  C_14
REMARK    9  A    between atoms: C_17  and  C_18
REMARK   10  A    between atoms: C_18  and  C_19
REMARK   11  A    between atoms: C_18  and  C_20
REMARK   12  A    between atoms: C_21  and  O_22
REMARK                            x       y       z     vdW  Elec       q    Type
REMARK                         _______ _______ _______ _____ _____    ______ ____
ROOT
ATOM      1  C   UNL     1       6.122   4.286  14.245  0.00  0.00    +0.000 A 
ATOM      2  C   UNL     1       5.669   3.312  15.097  0.00  0.00    +0.000 A 
ATOM      3  C   UNL     1       5.163   3.630  16.355  0.00  0.00    +0.000 A 
ATOM      4  C   UNL     1       5.098   4.962  16.847  0.00  0.00    +0.000 A 
ATOM      5  C   UNL     1       5.581   5.937  15.943  0.00  0.00    +0.000 A 
ATOM      6  C   UNL     1       6.079   5.616  14.682  0.00  0.00    +0.000 A 
ENDROOT
BRANCH   4   7
ATOM      7  C   UNL     1       4.568   5.339  18.253  0.00  0.00    +0.000 C 
ATOM      8  C   UNL     1       4.921   4.331  19.372  0.00  0.00    +0.000 C 
ATOM      9  C   UNL     1       4.086   3.058  19.313  0.00  0.00    +0.000 C 
ATOM     10  C   UNL     1       4.343   2.108  20.477  0.00  0.00    +0.000 C 
ATOM     11  C   UNL     1       2.578   3.342  19.123  0.00  0.00    +0.000 C 
ATOM     12  C   UNL     1       2.183   4.486  18.165  0.00  0.00    +0.000 C 
ATOM     13  C   UNL     1       3.055   5.743  18.314  0.00  0.00    +0.000 C 
BRANCH  13  14
ATOM     14  C   UNL     1       2.625   6.526  19.613  0.00  0.00    +0.000 C 
ATOM     15  C   UNL     1       1.557   5.761  20.420  0.00  0.00    +0.000 C 
ATOM     16  C   UNL     1       2.073   7.929  19.344  0.00  0.00    +0.000 C 
ENDBRANCH  13  14
ENDBRANCH   4   7
BRANCH   3  17
ATOM     17  O   UNL     1       4.732   2.540  17.036  0.00  0.00    +0.000 OA
ATOM     18  H   UNL     1       5.473   2.009  17.371  0.00  0.00    +0.000 HD
ENDBRANCH   3  17
BRANCH   5  19
ATOM     19  O   UNL     1       5.635   7.287  16.206  0.00  0.00    +0.000 OA
ATOM     20  H   UNL     1       6.454   7.533  16.640  0.00  0.00    +0.000 HD
ENDBRANCH   5  19
BRANCH   1  21
ATOM     21  C   UNL     1       6.672   3.876  12.921  0.00  0.00    +0.000 C 
BRANCH  21  22
ATOM     22  C   UNL     1       5.666   2.996  12.175  0.00  0.00    +0.000 C 
BRANCH  22  23
ATOM     23  C   UNL     1       4.479   3.831  11.736  0.00  0.00    +0.000 C 
BRANCH  23  25
ATOM     24  C   UNL     1       3.024   3.952   9.719  0.00  0.00    +0.000 C 
ATOM     25  C   UNL     1       3.559   3.047  10.810  0.00  0.00    +0.000 C 
ENDBRANCH  23  25
ENDBRANCH  22  23
ENDBRANCH  21  22
ENDBRANCH   1  21
TORSDOF 8
ENDMDL
MODEL 2
REMARK VINA RESULT:      -7.7      2.862      7.922
REMARK  Name = 
REMARK  12 active torsions:
REMARK  status: ('A' for Active; 'I' for Inactive)
REMARK    1  A    between atoms: C_1  and  C_2
REMARK    2  A    between atoms: C_2  and  C_3
REMARK    3  A    between atoms: C_3  and  C_4
REMARK    4  A    between atoms: C_4  and  C_5
REMARK    5  A    between atoms: C_5  and  C_6
REMARK    6  A    between atoms: C_8  and  O_9
REMARK    7  A    between atoms: C_10  and  C_11
REMARK    8  A    between atoms: C_13  and  C_14
REMARK    9  A    between atoms: C_17  and  C_18
REMARK   10  A    between atoms: C_18  and  C_19
REMARK   11  A    between atoms: C_18  and  C_20
REMARK   12  A    between atoms: C_21  and  O_22
REMARK                            x       y       z     vdW  Elec       q    Type
REMARK                         _______ _______ _______ _____ _____    ______ ____
ROOT
ATOM      1  C   UNL     1       1.265   8.853  20.230  0.00  0.00    +0.000 A 
ATOM      2  C   UNL     1       1.548   7.615  20.751  0.00  0.00    +0.000 A 
ATOM      3  C   UNL     1       2.191   6.642  19.990  0.00  0.00    +0.000 A 
ATOM      4  C   UNL     1       2.578   6.849  18.638  0.00  0.00    +0.000 A 
ATOM      5  C   UNL     1       2.264   8.133  18.136  0.00  0.00    +0.000 A 
ATOM      6  C   UNL     1       1.627   9.108  18.902  0.00  0.00    +0.000 A 
ENDROOT
BRANCH   4   7
ATOM      7  C   UNL     1       3.268   5.773  17.762  0.00  0.00    +0.000 C 
ATOM      8  C   UNL     1       2.548   4.405  17.728  0.00  0.00    +0.000 C 
ATOM      9  C   UNL     1       2.739   3.598  19.006  0.00  0.00    +0.000 C 
ATOM     10  C   UNL     1       2.132   2.201  18.940  0.00  0.00    +0.000 C 
ATOM     11  C   UNL     1       4.211   3.565  19.477  0.00  0.00    +0.000 C 
ATOM     12  C   UNL     1       5.034   4.864  19.335  0.00  0.00    +0.000 C 
ATOM     13  C   UNL     1       4.806   5.596  18.004  0.00  0.00    +0.000 C 
BRANCH  13  14
ATOM     14  C   UNL     1       5.579   4.843  16.854  0.00  0.00    +0.000 C 
ATOM     15  C   UNL     1       7.073   4.658  17.190  0.00  0.00    +0.000 C 
ATOM     16  C   UNL     1       5.502   5.537  15.490  0.00  0.00    +0.000 C 
ENDBRANCH  13  14
ENDBRANCH   4   7
BRANCH   3  17
ATOM     17  O   UNL     1       2.416   5.500  20.685  0.00  0.00    +0.000 OA
ATOM     18  H   UNL     1       1.651   4.902  20.652  0.00  0.00    +0.000 HD
ENDBRANCH   3  17
BRANCH   5  19
ATOM     19  O   UNL     1       2.524   8.556  16.852  0.00  0.00    +0.000 OA
ATOM     20  H   UNL     1       2.789   7.829  16.285  0.00  0.00    +0.000 HD
ENDBRANCH   5  19
BRANCH   1  21
ATOM     21  C   UNL     1       0.554   9.842  21.091  0.00  0.00    +0.000 C 
BRANCH  21  22
ATOM     22  C   UNL     1       0.132   9.194  22.412  0.00  0.00    +0.000 C 
BRANCH  22  23
ATOM     23  C   UNL     1      -0.775  10.136  23.180  0.00  0.00    +0.000 C 
BRANCH  23  25
ATOM     24  C   UNL     1      -1.638  12.471  23.230  0.00  0.00    +0.000 C 
ATOM     25  C   UNL     1      -1.167  11.342  22.337  0.00  0.00    +0.000 C 
ENDBRANCH  23  25
ENDBRANCH  22  23
ENDBRANCH  21  22
ENDBRANCH   1  21
TORSDOF 8
ENDMDL
MODEL 3
REMARK VINA RESULT:      -7.6      3.335      6.947
REMARK  Name = 
REMARK  12 active torsions:
REMARK  status: ('A' for Active; 'I' for Inactive)
REMARK    1  A    between atoms: C_1  and  C_2
REMARK    2  A    between atoms: C_2  and  C_3
REMARK    3  A    between atoms: C_3  and  C_4
REMARK    4  A    between atoms: C_4  and  C_5
REMARK    5  A    between atoms: C_5  and  C_6
REMARK    6  A    between atoms: C_8  and  O_9
REMARK    7  A    between atoms: C_10  and  C_11
REMARK    8  A    between atoms: C_13  and  C_14
REMARK    9  A    between atoms: C_17  and  C_18
REMARK   10  A    between atoms: C_18  and  C_19
REMARK   11  A    between atoms: C_18  and  C_20
REMARK   12  A    between atoms: C_21  and  O_22
REMARK                            x       y       z     vdW  Elec       q    Type
REMARK                         _______ _______ _______ _____ _____    ______ ____
ROOT
ATOM      1  C   UNL     1       1.263   9.793  18.900  0.00  0.00    +0.000 A 
ATOM      2  C   UNL     1       2.029   9.150  17.961  0.00  0.00    +0.000 A 
ATOM      3  C   UNL     1       2.561   7.886  18.205  0.00  0.00    +0.000 A 
ATOM      4  C   UNL     1       2.367   7.190  19.431  0.00  0.00    +0.000 A 
ATOM      5  C   UNL     1       1.578   7.888  20.374  0.00  0.00    +0.000 A 
ATOM      6  C   UNL     1       1.041   9.149  20.124  0.00  0.00    +0.000 A 
ENDROOT
BRANCH   4   7
ATOM      7  C   UNL     1       2.972   5.798  19.738  0.00  0.00    +0.000 C 
ATOM      8  C   UNL     1       4.390   5.565  19.165  0.00  0.00    +0.000 C 
ATOM      9  C   UNL     1       4.393   5.320  17.661  0.00  0.00    +0.000 C 
ATOM     10  C   UNL     1       5.769   4.975  17.105  0.00  0.00    +0.000 C 
ATOM     11  C   UNL     1       3.320   4.298  17.221  0.00  0.00    +0.000 C 
ATOM     12  C   UNL     1       1.945   4.362  17.920  0.00  0.00    +0.000 C 
ATOM     13  C   UNL     1       2.035   4.578  19.438  0.00  0.00    +0.000 C 
BRANCH  13  14
ATOM     14  C   UNL     1       2.456   3.227  20.134  0.00  0.00    +0.000 C 
ATOM     15  C   UNL     1       1.748   2.010  19.504  0.00  0.00    +0.000 C 
ATOM     16  C   UNL     1       2.177   3.186  21.640  0.00  0.00    +0.000 C 
ENDBRANCH  13  14
ENDBRANCH   4   7
BRANCH   3  17
ATOM     17  O   UNL     1       3.258   7.399  17.150  0.00  0.00    +0.000 OA
ATOM     18  H   UNL     1       4.212   7.552  17.248  0.00  0.00    +0.000 HD
ENDBRANCH   3  17
BRANCH   5  19
ATOM     19  O   UNL     1       1.273   7.423  21.633  0.00  0.00    +0.000 OA
ATOM     20  H   UNL     1       1.037   8.137  22.229  0.00  0.00    +0.000 HD
ENDBRANCH   5  19
BRANCH   1  21
ATOM     21  C   UNL     1       0.742  11.155  18.583  0.00  0.00    +0.000 C 
BRANCH  21  22
ATOM     22  C   UNL     1      -0.789  11.159  18.608  0.00  0.00    +0.000 C 
BRANCH  22  23
ATOM     23  C   UNL     1      -1.323  10.183  17.578  0.00  0.00    +0.000 C 
BRANCH  23  25
ATOM     24  C   UNL     1      -3.607  10.603  16.683  0.00  0.00    +0.000 C 
ATOM     25  C   UNL     1      -2.810   9.922  17.776  0.00  0.00    +0.000 C 
ENDBRANCH  23  25
ENDBRANCH  22  23
ENDBRANCH  21  22
ENDBRANCH   1  21
TORSDOF 8
ENDMDL
MODEL 4
REMARK VINA RESULT:      -7.5      2.301      6.280
REMARK  Name = 
REMARK  12 active torsions:
REMARK  status: ('A' for Active; 'I' for Inactive)
REMARK    1  A    between atoms: C_1  and  C_2
REMARK    2  A    between atoms: C_2  and  C_3
REMARK    3  A    between atoms: C_3  and  C_4
REMARK    4  A    between atoms: C_4  and  C_5
REMARK    5  A    between atoms: C_5  and  C_6
REMARK    6  A    between atoms: C_8  and  O_9
REMARK    7  A    between atoms: C_10  and  C_11
REMARK    8  A    between atoms: C_13  and  C_14
REMARK    9  A    between atoms: C_17  and  C_18
REMARK   10  A    between atoms: C_18  and  C_19
REMARK   11  A    between atoms: C_18  and  C_20
REMARK   12  A    between atoms: C_21  and  O_22
REMARK                            x       y       z     vdW  Elec       q    Type
REMARK                         _______ _______ _______ _____ _____    ______ ____
ROOT
ATOM      1  C   UNL     1       1.841   3.893  18.224  0.00  0.00    +0.000 A 
ATOM      2  C   UNL     1       2.927   3.301  17.630  0.00  0.00    +0.000 A 
ATOM      3  C   UNL     1       4.026   4.052  17.222  0.00  0.00    +0.000 A 
ATOM      4  C   UNL     1       4.094   5.465  17.370  0.00  0.00    +0.000 A 
ATOM      5  C   UNL     1       2.955   6.038  17.980  0.00  0.00    +0.000 A 
ATOM      6  C   UNL     1       1.860   5.283  18.395  0.00  0.00    +0.000 A 
ENDROOT
BRANCH   4   7
ATOM      7  C   UNL     1       5.292   6.326  16.897  0.00  0.00    +0.000 C 
ATOM      8  C   UNL     1       5.672   6.148  15.408  0.00  0.00    +0.000 C 
ATOM      9  C   UNL     1       6.403   4.840  15.131  0.00  0.00    +0.000 C 
ATOM     10  C   UNL     1       6.884   4.706  13.691  0.00  0.00    +0.000 C 
ATOM     11  C   UNL     1       7.536   4.563  16.146  0.00  0.00    +0.000 C 
ATOM     12  C   UNL     1       7.272   4.922  17.624  0.00  0.00    +0.000 C 
ATOM     13  C   UNL     1       6.562   6.272  17.813  0.00  0.00    +0.000 C 
BRANCH  13  14
ATOM     14  C   UNL     1       7.595   7.442  17.593  0.00  0.00    +0.000 C 
ATOM     15  C   UNL     1       8.550   7.601  18.793  0.00  0.00    +0.000 C 
ATOM     16  C   UNL     1       6.948   8.808  17.342  0.00  0.00    +0.000 C 
ENDBRANCH  13  14
ENDBRANCH   4   7
BRANCH   3  17
ATOM     17  O   UNL     1       5.012   3.289  16.690  0.00  0.00    +0.000 OA
ATOM     18  H   UNL     1       5.025   2.398  17.074  0.00  0.00    +0.000 HD
ENDBRANCH   3  17
BRANCH   5  19
ATOM     19  O   UNL     1       2.786   7.385  18.210  0.00  0.00    +0.000 OA
ATOM     20  H   UNL     1       3.414   7.913  17.713  0.00  0.00    +0.000 HD
ENDBRANCH   5  19
BRANCH   1  21
ATOM     21  C   UNL     1       0.687   3.034  18.619  0.00  0.00    +0.000 C 
BRANCH  21  22
ATOM     22  C   UNL     1       1.057   2.164  19.824  0.00  0.00    +0.000 C 
BRANCH  22  23
ATOM     23  C   UNL     1       0.938   2.976  21.099  0.00  0.00    +0.000 C 
BRANCH  23  25
ATOM     24  C   UNL     1       3.337   2.310  21.078  0.00  0.00    +0.000 C 
ATOM     25  C   UNL     1       2.293   3.162  21.769  0.00  0.00    +0.000 C 
ENDBRANCH  23  25
ENDBRANCH  22  23
ENDBRANCH  21  22
ENDBRANCH   1  21
TORSDOF 8
ENDMDL
MODEL 5
REMARK VINA RESULT:      -7.4      3.141      6.798
REMARK  Name = 
REMARK  12 active torsions:
REMARK  status: ('A' for Active; 'I' for Inactive)
REMARK    1  A    between atoms: C_1  and  C_2
REMARK    2  A    between atoms: C_2  and  C_3
REMARK    3  A    between atoms: C_3  and  C_4
REMARK    4  A    between atoms: C_4  and  C_5
REMARK    5  A    between atoms: C_5  and  C_6
REMARK    6  A    between atoms: C_8  and  O_9
REMARK    7  A    between atoms: C_10  and  C_11
REMARK    8  A    between atoms: C_13  and  C_14
REMARK    9  A    between atoms: C_17  and  C_18
REMARK   10  A    between atoms: C_18  and  C_19
REMARK   11  A    between atoms: C_18  and  C_20
REMARK   12  A    between atoms: C_21  and  O_22
REMARK                            x       y       z     vdW  Elec       q    Type
REMARK                         _______ _______ _______ _____ _____    ______ ____
ROOT
ATOM      1  C   UNL     1       1.641   9.044  18.581  0.00  0.00    +0.000 A 
ATOM      2  C   UNL     1       2.562   8.582  17.675  0.00  0.00    +0.000 A 
ATOM      3  C   UNL     1       3.268   7.404  17.901  0.00  0.00    +0.000 A 
ATOM      4  C   UNL     1       3.103   6.617  19.074  0.00  0.00    +0.000 A 
ATOM      5  C   UNL     1       2.151   7.129  19.985  0.00  0.00    +0.000 A 
ATOM      6  C   UNL     1       1.440   8.305  19.753  0.00  0.00    +0.000 A 
ENDROOT
BRANCH   4   7
ATOM      7  C   UNL     1       3.898   5.319  19.362  0.00  0.00    +0.000 C 
ATOM      8  C   UNL     1       5.429   5.438  19.173  0.00  0.00    +0.000 C 
ATOM      9  C   UNL     1       5.848   5.463  17.709  0.00  0.00    +0.000 C 
ATOM     10  C   UNL     1       7.359   5.464  17.509  0.00  0.00    +0.000 C 
ATOM     11  C   UNL     1       5.157   4.362  16.871  0.00  0.00    +0.000 C 
ATOM     12  C   UNL     1       3.673   4.064  17.172  0.00  0.00    +0.000 C 
ATOM     13  C   UNL     1       3.344   4.025  18.673  0.00  0.00    +0.000 C 
BRANCH  13  14
ATOM     14  C   UNL     1       3.861   2.668  19.286  0.00  0.00    +0.000 C 
ATOM     15  C   UNL     1       3.445   1.453  18.432  0.00  0.00    +0.000 C 
ATOM     16  C   UNL     1       3.379   2.405  20.717  0.00  0.00    +0.000 C 
ENDBRANCH  13  14
ENDBRANCH   4   7
BRANCH   3  17
ATOM     17  O   UNL     1       4.105   7.092  16.881  0.00  0.00    +0.000 OA
ATOM     18  H   UNL     1       4.485   7.885  16.472  0.00  0.00    +0.000 HD
ENDBRANCH   3  17
BRANCH   5  19
ATOM     19  O   UNL     1       1.838   6.551  21.195  0.00  0.00    +0.000 OA
ATOM     20  H   UNL     1       1.712   7.208  21.882  0.00  0.00    +0.000 HD
ENDBRANCH   5  19
BRANCH   1  21
ATOM     21  C   UNL     1       0.934  10.325  18.289  0.00  0.00    +0.000 C 
BRANCH  21  22
ATOM     22  C   UNL     1      -0.548  10.212  18.653  0.00  0.00    +0.000 C 
BRANCH  22  23
ATOM     23  C   UNL     1      -1.371  10.001  17.396  0.00  0.00    +0.000 C 
BRANCH  23  25
ATOM     24  C   UNL     1      -3.399  11.301  18.027  0.00  0.00    +0.000 C 
ATOM     25  C   UNL     1      -2.858   9.922  17.711  0.00  0.00    +0.000 C 
ENDBRANCH  23  25
ENDBRANCH  22  23
ENDBRANCH  21  22
ENDBRANCH   1  21
TORSDOF 8
ENDMDL
MODEL 6
REMARK VINA RESULT:      -7.4      2.682      7.150
REMARK  Name = 
REMARK  12 active torsions:
REMARK  status: ('A' for Active; 'I' for Inactive)
REMARK    1  A    between atoms: C_1  and  C_2
REMARK    2  A    between atoms: C_2  and  C_3
REMARK    3  A    between atoms: C_3  and  C_4
REMARK    4  A    between atoms: C_4  and  C_5
REMARK    5  A    between atoms: C_5  and  C_6
REMARK    6  A    between atoms: C_8  and  O_9
REMARK    7  A    between atoms: C_10  and  C_11
REMARK    8  A    between atoms: C_13  and  C_14
REMARK    9  A    between atoms: C_17  and  C_18
REMARK   10  A    between atoms: C_18  and  C_19
REMARK   11  A    between atoms: C_18  and  C_20
REMARK   12  A    between atoms: C_21  and  O_22
REMARK                            x       y       z     vdW  Elec       q    Type
REMARK                         _______ _______ _______ _____ _____    ______ ____
ROOT
ATOM      1  C   UNL     1       1.384   8.368  20.472  0.00  0.00    +0.000 A 
ATOM      2  C   UNL     1       1.614   7.069  20.849  0.00  0.00    +0.000 A 
ATOM      3  C   UNL     1       2.249   6.170  19.996  0.00  0.00    +0.000 A 
ATOM      4  C   UNL     1       2.681   6.522  18.687  0.00  0.00    +0.000 A 
ATOM      5  C   UNL     1       2.421   7.865  18.334  0.00  0.00    +0.000 A 
ATOM      6  C   UNL     1       1.793   8.765  19.192  0.00  0.00    +0.000 A 
ENDROOT
BRANCH   4   7
ATOM      7  C   UNL     1       3.363   5.533  17.709  0.00  0.00    +0.000 C 
ATOM      8  C   UNL     1       2.727   4.124  17.661  0.00  0.00    +0.000 C 
ATOM      9  C   UNL     1       3.067   3.274  18.878  0.00  0.00    +0.000 C 
ATOM     10  C   UNL     1       2.542   1.846  18.788  0.00  0.00    +0.000 C 
ATOM     11  C   UNL     1       4.571   3.314  19.233  0.00  0.00    +0.000 C 
ATOM     12  C   UNL     1       5.300   4.668  19.095  0.00  0.00    +0.000 C 
ATOM     13  C   UNL     1       4.923   5.444  17.823  0.00  0.00    +0.000 C 
BRANCH  13  14
ATOM     14  C   UNL     1       5.647   4.795  16.582  0.00  0.00    +0.000 C 
ATOM     15  C   UNL     1       7.159   4.612  16.826  0.00  0.00    +0.000 C 
ATOM     16  C   UNL     1       5.490   5.589  15.281  0.00  0.00    +0.000 C 
ENDBRANCH  13  14
ENDBRANCH   4   7
BRANCH   3  17
ATOM     17  O   UNL     1       2.418   4.948  20.556  0.00  0.00    +0.000 OA
ATOM     18  H   UNL     1       2.657   5.011  21.495  0.00  0.00    +0.000 HD
ENDBRANCH   3  17
BRANCH   5  19
ATOM     19  O   UNL     1       2.732   8.427  17.115  0.00  0.00    +0.000 OA
ATOM     20  H   UNL     1       3.674   8.404  16.943  0.00  0.00    +0.000 HD
ENDBRANCH   5  19
BRANCH   1  21
ATOM     21  C   UNL     1       0.679   9.273  21.425  0.00  0.00    +0.000 C 
BRANCH  21  22
ATOM     22  C   UNL     1      -0.660   9.727  20.839  0.00  0.00    +0.000 C 
BRANCH  22  23
ATOM     23  C   UNL     1      -0.579  11.190  20.445  0.00  0.00    +0.000 C 
BRANCH  23  25
ATOM     24  C   UNL     1      -1.480  10.348  18.283  0.00  0.00    +0.000 C 
ATOM     25  C   UNL     1      -1.490  11.500  19.265  0.00  0.00    +0.000 C 
ENDBRANCH  23  25
ENDBRANCH  22  23
ENDBRANCH  21  22
ENDBRANCH   1  21
TORSDOF 8
ENDMDL
MODEL 7
REMARK VINA RESULT:      -7.4      2.878      8.097
REMARK  Name = 
REMARK  12 active torsions:
REMARK  status: ('A' for Active; 'I' for Inactive)
REMARK    1  A    between atoms: C_1  and  C_2
REMARK    2  A    between atoms: C_2  and  C_3
REMARK    3  A    between atoms: C_3  and  C_4
REMARK    4  A    between atoms: C_4  and  C_5
REMARK    5  A    between atoms: C_5  and  C_6
REMARK    6  A    between atoms: C_8  and  O_9
REMARK    7  A    between atoms: C_10  and  C_11
REMARK    8  A    between atoms: C_13  and  C_14
REMARK    9  A    between atoms: C_17  and  C_18
REMARK   10  A    between atoms: C_18  and  C_19
REMARK   11  A    between atoms: C_18  and  C_20
REMARK   12  A    between atoms: C_21  and  O_22
REMARK                            x       y       z     vdW  Elec       q    Type
REMARK                         _______ _______ _______ _____ _____    ______ ____
ROOT
ATOM      1  C   UNL     1       1.292   8.752  20.413  0.00  0.00    +0.000 A 
ATOM      2  C   UNL     1       1.614   9.070  19.118  0.00  0.00    +0.000 A 
ATOM      3  C   UNL     1       2.222   8.142  18.276  0.00  0.00    +0.000 A 
ATOM      4  C   UNL     1       2.564   6.827  18.695  0.00  0.00    +0.000 A 
ATOM      5  C   UNL     1       2.222   6.540  20.037  0.00  0.00    +0.000 A 
ATOM      6  C   UNL     1       1.607   7.467  20.875  0.00  0.00    +0.000 A 
ENDROOT
BRANCH   4   7
ATOM      7  C   UNL     1       3.267   5.787  17.787  0.00  0.00    +0.000 C 
ATOM      8  C   UNL     1       2.560   4.415  17.701  0.00  0.00    +0.000 C 
ATOM      9  C   UNL     1       2.750   3.566  18.952  0.00  0.00    +0.000 C 
ATOM     10  C   UNL     1       2.155   2.168  18.834  0.00  0.00    +0.000 C 
ATOM     11  C   UNL     1       4.220   3.529  19.430  0.00  0.00    +0.000 C 
ATOM     12  C   UNL     1       5.033   4.838  19.338  0.00  0.00    +0.000 C 
ATOM     13  C   UNL     1       4.806   5.614  18.031  0.00  0.00    +0.000 C 
BRANCH  13  14
ATOM     14  C   UNL     1       5.592   4.908  16.862  0.00  0.00    +0.000 C 
ATOM     15  C   UNL     1       7.090   4.745  17.190  0.00  0.00    +0.000 C 
ATOM     16  C   UNL     1       5.498   5.636  15.517  0.00  0.00    +0.000 C 
ENDBRANCH  13  14
ENDBRANCH   4   7
BRANCH   3  17
ATOM     17  O   UNL     1       2.431   8.627  17.028  0.00  0.00    +0.000 OA
ATOM     18  H   UNL     1       2.218   7.969  16.346  0.00  0.00    +0.000 HD
ENDBRANCH   3  17
BRANCH   5  19
ATOM     19  O   UNL     1       2.472   5.341  20.667  0.00  0.00    +0.000 OA
ATOM     20  H   UNL     1       3.377   5.052  20.536  0.00  0.00    +0.000 HD
ENDBRANCH   5  19
BRANCH   1  21
ATOM     21  C   UNL     1       0.662   9.799  21.269  0.00  0.00    +0.000 C 
BRANCH  21  22
ATOM     22  C   UNL     1      -0.106   9.152  22.425  0.00  0.00    +0.000 C 
BRANCH  22  23
ATOM     23  C   UNL     1      -0.864  10.215  23.197  0.00  0.00    +0.000 C 
BRANCH  23  25
ATOM     24  C   UNL     1      -1.450  12.634  23.196  0.00  0.00    +0.000 C 
ATOM     25  C   UNL     1      -1.163  11.428  22.326  0.00  0.00    +0.000 C 
ENDBRANCH  23  25
ENDBRANCH  22  23
ENDBRANCH  21  22
ENDBRANCH   1  21
TORSDOF 8
ENDMDL
MODEL 8
REMARK VINA RESULT:      -7.4      3.061      6.950
REMARK  Name = 
REMARK  12 active torsions:
REMARK  status: ('A' for Active; 'I' for Inactive)
REMARK    1  A    between atoms: C_1  and  C_2
REMARK    2  A    between atoms: C_2  and  C_3
REMARK    3  A    between atoms: C_3  and  C_4
REMARK    4  A    between atoms: C_4  and  C_5
REMARK    5  A    between atoms: C_5  and  C_6
REMARK    6  A    between atoms: C_8  and  O_9
REMARK    7  A    between atoms: C_10  and  C_11
REMARK    8  A    between atoms: C_13  and  C_14
REMARK    9  A    between atoms: C_17  and  C_18
REMARK   10  A    between atoms: C_18  and  C_19
REMARK   11  A    between atoms: C_18  and  C_20
REMARK   12  A    between atoms: C_21  and  O_22
REMARK                            x       y       z     vdW  Elec       q    Type
REMARK                         _______ _______ _______ _____ _____    ______ ____
ROOT
ATOM      1  C   UNL     1       1.388   9.742  18.806  0.00  0.00    +0.000 A 
ATOM      2  C   UNL     1       1.093   9.090  19.977  0.00  0.00    +0.000 A 
ATOM      3  C   UNL     1       1.616   7.829  20.253  0.00  0.00    +0.000 A 
ATOM      4  C   UNL     1       2.464   7.130  19.351  0.00  0.00    +0.000 A 
ATOM      5  C   UNL     1       2.740   7.832  18.155  0.00  0.00    +0.000 A 
ATOM      6  C   UNL     1       2.221   9.096  17.884  0.00  0.00    +0.000 A 
ENDROOT
BRANCH   4   7
ATOM      7  C   UNL     1       3.034   5.715  19.622  0.00  0.00    +0.000 C 
ATOM      8  C   UNL     1       4.270   5.339  18.772  0.00  0.00    +0.000 C 
ATOM      9  C   UNL     1       3.921   5.005  17.327  0.00  0.00    +0.000 C 
ATOM     10  C   UNL     1       5.113   4.521  16.510  0.00  0.00    +0.000 C 
ATOM     11  C   UNL     1       2.715   4.046  17.210  0.00  0.00    +0.000 C 
ATOM     12  C   UNL     1       1.538   4.258  18.187  0.00  0.00    +0.000 C 
ATOM     13  C   UNL     1       1.979   4.556  19.628  0.00  0.00    +0.000 C 
BRANCH  13  14
ATOM     14  C   UNL     1       2.459   3.221  20.314  0.00  0.00    +0.000 C 
ATOM     15  C   UNL     1       1.823   1.977  19.662  0.00  0.00    +0.000 C 
ATOM     16  C   UNL     1       2.163   3.148  21.816  0.00  0.00    +0.000 C 
ENDBRANCH  13  14
ENDBRANCH   4   7
BRANCH   3  17
ATOM     17  O   UNL     1       1.241   7.363  21.469  0.00  0.00    +0.000 OA
ATOM     18  H   UNL     1       0.526   7.894  21.854  0.00  0.00    +0.000 HD
ENDBRANCH   3  17
BRANCH   5  19
ATOM     19  O   UNL     1       3.519   7.348  17.127  0.00  0.00    +0.000 OA
ATOM     20  H   UNL     1       3.751   8.037  16.502  0.00  0.00    +0.000 HD
ENDBRANCH   5  19
BRANCH   1  21
ATOM     21  C   UNL     1       0.778  11.081  18.563  0.00  0.00    +0.000 C 
BRANCH  21  22
ATOM     22  C   UNL     1      -0.450  11.278  19.456  0.00  0.00    +0.000 C 
BRANCH  22  23
ATOM     23  C   UNL     1      -1.688  11.452  18.597  0.00  0.00    +0.000 C 
BRANCH  23  25
ATOM     24  C   UNL     1      -3.178   9.742  17.571  0.00  0.00    +0.000 C 
ATOM     25  C   UNL     1      -1.794  10.356  17.545  0.00  0.00    +0.000 C 
ENDBRANCH  23  25
ENDBRANCH  22  23
ENDBRANCH  21  22
ENDBRANCH   1  21
TORSDOF 8
ENDMDL
MODEL 9
REMARK VINA RESULT:      -7.3      2.867      7.369
REMARK  Name = 
REMARK  12 active torsions:
REMARK  status: ('A' for Active; 'I' for Inactive)
REMARK    1  A    between atoms: C_1  and  C_2
REMARK    2  A    between atoms: C_2  and  C_3
REMARK    3  A    between atoms: C_3  and  C_4
REMARK    4  A    between atoms: C_4  and  C_5
REMARK    5  A    between atoms: C_5  and  C_6
REMARK    6  A    between atoms: C_8  and  O_9
REMARK    7  A    between atoms: C_10  and  C_11
REMARK    8  A    between atoms: C_13  and  C_14
REMARK    9  A    between atoms: C_17  and  C_18
REMARK   10  A    between atoms: C_18  and  C_19
REMARK   11  A    between atoms: C_18  and  C_20
REMARK   12  A    between atoms: C_21  and  O_22
REMARK                            x       y       z     vdW  Elec       q    Type
REMARK                         _______ _______ _______ _____ _____    ______ ____
ROOT
ATOM      1  C   UNL     1       1.672   8.889  18.753  0.00  0.00    +0.000 A 
ATOM      2  C   UNL     1       2.587   8.568  17.783  0.00  0.00    +0.000 A 
ATOM      3  C   UNL     1       3.351   7.407  17.867  0.00  0.00    +0.000 A 
ATOM      4  C   UNL     1       3.255   6.495  18.954  0.00  0.00    +0.000 A 
ATOM      5  C   UNL     1       2.306   6.864  19.936  0.00  0.00    +0.000 A 
ATOM      6  C   UNL     1       1.537   8.022  19.845  0.00  0.00    +0.000 A 
ENDROOT
BRANCH   4   7
ATOM      7  C   UNL     1       4.115   5.213  19.085  0.00  0.00    +0.000 C 
ATOM      8  C   UNL     1       5.547   5.331  18.515  0.00  0.00    +0.000 C 
ATOM      9  C   UNL     1       5.588   5.296  16.992  0.00  0.00    +0.000 C 
ATOM     10  C   UNL     1       7.001   5.294  16.422  0.00  0.00    +0.000 C 
ATOM     11  C   UNL     1       4.726   4.158  16.398  0.00  0.00    +0.000 C 
ATOM     12  C   UNL     1       3.368   3.867  17.072  0.00  0.00    +0.000 C 
ATOM     13  C   UNL     1       3.424   3.890  18.608  0.00  0.00    +0.000 C 
BRANCH  13  14
ATOM     14  C   UNL     1       4.098   2.562  19.126  0.00  0.00    +0.000 C 
ATOM     15  C   UNL     1       3.516   1.313  18.433  0.00  0.00    +0.000 C 
ATOM     16  C   UNL     1       3.970   2.344  20.637  0.00  0.00    +0.000 C 
ENDBRANCH  13  14
ENDBRANCH   4   7
BRANCH   3  17
ATOM     17  O   UNL     1       4.172   7.243  16.801  0.00  0.00    +0.000 OA
ATOM     18  H   UNL     1       4.011   6.399  16.349  0.00  0.00    +0.000 HD
ENDBRANCH   3  17
BRANCH   5  19
ATOM     19  O   UNL     1       2.053   6.148  21.084  0.00  0.00    +0.000 OA
ATOM     20  H   UNL     1       1.712   5.274  20.891  0.00  0.00    +0.000 HD
ENDBRANCH   5  19
BRANCH   1  21
ATOM     21  C   UNL     1       0.901  10.158  18.614  0.00  0.00    +0.000 C 
BRANCH  21  22
ATOM     22  C   UNL     1      -0.199  10.234  19.677  0.00  0.00    +0.000 C 
BRANCH  22  23
ATOM     23  C   UNL     1       0.164  11.275  20.718  0.00  0.00    +0.000 C 
BRANCH  23  25
ATOM     24  C   UNL     1      -0.306   9.739  22.621  0.00  0.00    +0.000 C 
ATOM     25  C   UNL     1      -0.634  11.081  22.000  0.00  0.00    +0.000 C 
ENDBRANCH  23  25
ENDBRANCH  22  23
ENDBRANCH  21  22
ENDBRANCH   1  21
TORSDOF 8
ENDMDL
