MODEL 1
REMARK VINA RESULT:      -8.1      0.000      0.000
REMARK  Name = 
REMARK  6 active torsions:
REMARK  status: ('A' for Active; 'I' for Inactive)
REMARK    1  A    between atoms: C_1  and  C_2
REMARK    2  A    between atoms: C_4  and  C_5
REMARK    3  A    between atoms: C_7  and  C_8
REMARK    4  A    between atoms: C_8  and  O_9
REMARK    5  A    between atoms: C_8  and  C_10
REMARK    6  A    between atoms: C_12  and  C_13
REMARK                            x       y       z     vdW  Elec       q    Type
REMARK                         _______ _______ _______ _____ _____    ______ ____
ROOT
ATOM      1  C   UNL     1       3.346   4.451  19.176  0.00  0.00    +0.000 A 
ATOM      2  N   UNL     1       2.975   5.661  18.819  0.00  0.00    +0.000 NA
ATOM      3  C   UNL     1       2.259   6.165  19.880  0.00  0.00    +0.000 A 
ATOM      4  C   UNL     1       2.117   5.207  20.862  0.00  0.00    +0.000 A 
ATOM      5  N   UNL     1       2.762   4.109  20.377  0.00  0.00    +0.000 N 
ATOM      6  H   UNL     1       2.876   3.213  20.829  0.00  0.00    +0.000 HD
ENDROOT
BRANCH   3   7
ATOM      7  C   UNL     1       1.764   7.521  19.939  0.00  0.00    +0.000 A 
ATOM      8  C   UNL     1       1.850   8.336  18.796  0.00  0.00    +0.000 A 
ATOM      9  C   UNL     1       1.363   9.640  18.828  0.00  0.00    +0.000 A 
ATOM     10  C   UNL     1       0.804  10.136  19.998  0.00  0.00    +0.000 A 
ATOM     11  F   UNL     1       0.334  11.388  20.027  0.00  0.00    +0.000 F 
ATOM     12  C   UNL     1       0.730   9.353  21.148  0.00  0.00    +0.000 A 
ATOM     13  C   UNL     1       1.212   8.048  21.116  0.00  0.00    +0.000 A 
ENDBRANCH   3   7
BRANCH   1  14
ATOM     14  C   UNL     1       4.336   3.548  18.492  0.00  0.00    +0.000 C 
BRANCH  14  21
ATOM     15  C   UNL     1       7.687   7.196  17.439  0.00  0.00    +0.000 C 
ATOM     16  C   UNL     1       6.904   6.000  16.983  0.00  0.00    +0.000 A 
ATOM     17  C   UNL     1       6.968   5.541  15.667  0.00  0.00    +0.000 A 
ATOM     18  C   UNL     1       6.201   4.440  15.259  0.00  0.00    +0.000 A 
ATOM     19  C   UNL     1       6.262   3.952  13.842  0.00  0.00    +0.000 C 
ATOM     20  C   UNL     1       5.360   3.804  16.188  0.00  0.00    +0.000 A 
ATOM     21  C   UNL     1       5.264   4.260  17.515  0.00  0.00    +0.000 A 
ATOM     22  C   UNL     1       6.067   5.349  17.897  0.00  0.00    +0.000 A 
ENDBRANCH  14  21
BRANCH  14  23
ATOM     23  O   UNL     1       5.112   2.933  19.529  0.00  0.00    +0.000 OA
ATOM     24  H   UNL     1       6.022   2.871  19.189  0.00  0.00    +0.000 HD
ENDBRANCH  14  23
ENDBRANCH   1  14
TORSDOF 4
ENDMDL
MODEL 2
REMARK VINA RESULT:      -8.1      0.043      1.840
REMARK  Name = 
REMARK  6 active torsions:
REMARK  status: ('A' for Active; 'I' for Inactive)
REMARK    1  A    between atoms: C_1  and  C_2
REMARK    2  A    between atoms: C_4  and  C_5
REMARK    3  A    between atoms: C_7  and  C_8
REMARK    4  A    between atoms: C_8  and  O_9
REMARK    5  A    between atoms: C_8  and  C_10
REMARK    6  A    between atoms: C_12  and  C_13
REMARK                            x       y       z     vdW  Elec       q    Type
REMARK                         _______ _______ _______ _____ _____    ______ ____
ROOT
ATOM      1  C   UNL     1       3.362   4.467  19.181  0.00  0.00    +0.000 A 
ATOM      2  N   UNL     1       3.008   5.682  18.824  0.00  0.00    +0.000 NA
ATOM      3  C   UNL     1       2.269   6.181  19.871  0.00  0.00    +0.000 A 
ATOM      4  C   UNL     1       2.095   5.216  20.841  0.00  0.00    +0.000 A 
ATOM      5  N   UNL     1       2.746   4.118  20.363  0.00  0.00    +0.000 N 
ATOM      6  H   UNL     1       2.843   3.218  20.810  0.00  0.00    +0.000 HD
ENDROOT
BRANCH   3   7
ATOM      7  C   UNL     1       1.780   7.540  19.928  0.00  0.00    +0.000 A 
ATOM      8  C   UNL     1       1.871   8.353  18.784  0.00  0.00    +0.000 A 
ATOM      9  C   UNL     1       1.391   9.660  18.816  0.00  0.00    +0.000 A 
ATOM     10  C   UNL     1       0.834  10.160  19.985  0.00  0.00    +0.000 A 
ATOM     11  F   UNL     1       0.370  11.415  20.013  0.00  0.00    +0.000 F 
ATOM     12  C   UNL     1       0.755   9.378  21.135  0.00  0.00    +0.000 A 
ATOM     13  C   UNL     1       1.231   8.071  21.104  0.00  0.00    +0.000 A 
ENDBRANCH   3   7
BRANCH   1  14
ATOM     14  C   UNL     1       4.364   3.563  18.514  0.00  0.00    +0.000 C 
BRANCH  14  21
ATOM     15  C   UNL     1       6.282   3.966  13.844  0.00  0.00    +0.000 C 
ATOM     16  C   UNL     1       6.191   4.494  15.245  0.00  0.00    +0.000 A 
ATOM     17  C   UNL     1       6.945   5.590  15.666  0.00  0.00    +0.000 A 
ATOM     18  C   UNL     1       6.864   6.044  16.990  0.00  0.00    +0.000 A 
ATOM     19  C   UNL     1       7.682   7.216  17.446  0.00  0.00    +0.000 C 
ATOM     20  C   UNL     1       6.019   5.379  17.896  0.00  0.00    +0.000 A 
ATOM     21  C   UNL     1       5.264   4.261  17.501  0.00  0.00    +0.000 A 
ATOM     22  C   UNL     1       5.348   3.851  16.159  0.00  0.00    +0.000 A 
ENDBRANCH  14  21
BRANCH  14  23
ATOM     23  O   UNL     1       5.168   3.001  19.561  0.00  0.00    +0.000 OA
ATOM     24  H   UNL     1       4.652   2.268  19.938  0.00  0.00    +0.000 HD
ENDBRANCH  14  23
ENDBRANCH   1  14
TORSDOF 4
ENDMDL
MODEL 3
REMARK VINA RESULT:      -8.1      0.047      1.034
REMARK  Name = 
REMARK  6 active torsions:
REMARK  status: ('A' for Active; 'I' for Inactive)
REMARK    1  A    between atoms: C_1  and  C_2
REMARK    2  A    between atoms: C_4  and  C_5
REMARK    3  A    between atoms: C_7  and  C_8
REMARK    4  A    between atoms: C_8  and  O_9
REMARK    5  A    between atoms: C_8  and  C_10
REMARK    6  A    between atoms: C_12  and  C_13
REMARK                            x       y       z     vdW  Elec       q    Type
REMARK                         _______ _______ _______ _____ _____    ______ ____
ROOT
ATOM      1  C   UNL     1       3.347   4.464  19.168  0.00  0.00    +0.000 A 
ATOM      2  N   UNL     1       2.979   5.675  18.810  0.00  0.00    +0.000 NA
ATOM      3  C   UNL     1       2.258   6.178  19.868  0.00  0.00    +0.000 A 
ATOM      4  C   UNL     1       2.110   5.219  20.848  0.00  0.00    +0.000 A 
ATOM      5  N   UNL     1       2.756   4.121  20.365  0.00  0.00    +0.000 N 
ATOM      6  H   UNL     1       2.867   3.225  20.816  0.00  0.00    +0.000 HD
ENDROOT
BRANCH   3   7
ATOM      7  C   UNL     1       1.764   7.535  19.925  0.00  0.00    +0.000 A 
ATOM      8  C   UNL     1       1.209   8.016  21.125  0.00  0.00    +0.000 A 
ATOM      9  C   UNL     1       0.743   9.325  21.204  0.00  0.00    +0.000 A 
ATOM     10  C   UNL     1       0.818  10.151  20.090  0.00  0.00    +0.000 A 
ATOM     11  F   UNL     1       0.373  11.410  20.168  0.00  0.00    +0.000 F 
ATOM     12  C   UNL     1       1.344   9.686  18.886  0.00  0.00    +0.000 A 
ATOM     13  C   UNL     1       1.814   8.380  18.806  0.00  0.00    +0.000 A 
ENDBRANCH   3   7
BRANCH   1  14
ATOM     14  C   UNL     1       4.339   3.561  18.487  0.00  0.00    +0.000 C 
BRANCH  14  21
ATOM     15  C   UNL     1       7.693   7.206  17.430  0.00  0.00    +0.000 C 
ATOM     16  C   UNL     1       6.909   6.010  16.975  0.00  0.00    +0.000 A 
ATOM     17  C   UNL     1       6.971   5.550  15.659  0.00  0.00    +0.000 A 
ATOM     18  C   UNL     1       6.203   4.449  15.253  0.00  0.00    +0.000 A 
ATOM     19  C   UNL     1       6.263   3.960  13.836  0.00  0.00    +0.000 C 
ATOM     20  C   UNL     1       5.362   3.815  16.183  0.00  0.00    +0.000 A 
ATOM     21  C   UNL     1       5.268   4.271  17.509  0.00  0.00    +0.000 A 
ATOM     22  C   UNL     1       6.072   5.359  17.890  0.00  0.00    +0.000 A 
ENDBRANCH  14  21
BRANCH  14  23
ATOM     23  O   UNL     1       5.116   2.950  19.527  0.00  0.00    +0.000 OA
ATOM     24  H   UNL     1       5.951   2.669  19.116  0.00  0.00    +0.000 HD
ENDBRANCH  14  23
ENDBRANCH   1  14
TORSDOF 4
ENDMDL
MODEL 4
REMARK VINA RESULT:      -8.0      0.055      2.110
REMARK  Name = 
REMARK  6 active torsions:
REMARK  status: ('A' for Active; 'I' for Inactive)
REMARK    1  A    between atoms: C_1  and  C_2
REMARK    2  A    between atoms: C_4  and  C_5
REMARK    3  A    between atoms: C_7  and  C_8
REMARK    4  A    between atoms: C_8  and  O_9
REMARK    5  A    between atoms: C_8  and  C_10
REMARK    6  A    between atoms: C_12  and  C_13
REMARK                            x       y       z     vdW  Elec       q    Type
REMARK                         _______ _______ _______ _____ _____    ______ ____
ROOT
ATOM      1  C   UNL     1       3.366   4.473  19.190  0.00  0.00    +0.000 A 
ATOM      2  N   UNL     1       3.008   5.684  18.825  0.00  0.00    +0.000 NA
ATOM      3  C   UNL     1       2.267   6.188  19.868  0.00  0.00    +0.000 A 
ATOM      4  C   UNL     1       2.097   5.230  20.845  0.00  0.00    +0.000 A 
ATOM      5  N   UNL     1       2.750   4.131  20.375  0.00  0.00    +0.000 N 
ATOM      6  H   UNL     1       2.850   3.234  20.828  0.00  0.00    +0.000 HD
ENDROOT
BRANCH   3   7
ATOM      7  C   UNL     1       1.775   7.547  19.916  0.00  0.00    +0.000 A 
ATOM      8  C   UNL     1       1.233   8.041  21.115  0.00  0.00    +0.000 A 
ATOM      9  C   UNL     1       0.769   9.352  21.185  0.00  0.00    +0.000 A 
ATOM     10  C   UNL     1       0.832  10.165  20.061  0.00  0.00    +0.000 A 
ATOM     11  F   UNL     1       0.389  11.425  20.130  0.00  0.00    +0.000 F 
ATOM     12  C   UNL     1       1.345   9.687  18.857  0.00  0.00    +0.000 A 
ATOM     13  C   UNL     1       1.813   8.379  18.787  0.00  0.00    +0.000 A 
ENDBRANCH   3   7
BRANCH   1  14
ATOM     14  C   UNL     1       4.370   3.567  18.529  0.00  0.00    +0.000 C 
BRANCH  14  21
ATOM     15  C   UNL     1       6.264   3.960  13.849  0.00  0.00    +0.000 C 
ATOM     16  C   UNL     1       6.183   4.490  15.251  0.00  0.00    +0.000 A 
ATOM     17  C   UNL     1       6.945   5.582  15.667  0.00  0.00    +0.000 A 
ATOM     18  C   UNL     1       6.873   6.036  16.991  0.00  0.00    +0.000 A 
ATOM     19  C   UNL     1       7.699   7.205  17.443  0.00  0.00    +0.000 C 
ATOM     20  C   UNL     1       6.030   5.376  17.902  0.00  0.00    +0.000 A 
ATOM     21  C   UNL     1       5.267   4.261  17.512  0.00  0.00    +0.000 A 
ATOM     22  C   UNL     1       5.342   3.850  16.169  0.00  0.00    +0.000 A 
ENDBRANCH  14  21
BRANCH  14  23
ATOM     23  O   UNL     1       5.176   3.016  19.580  0.00  0.00    +0.000 OA
ATOM     24  H   UNL     1       4.785   2.152  19.800  0.00  0.00    +0.000 HD
ENDBRANCH  14  23
ENDBRANCH   1  14
TORSDOF 4
ENDMDL
MODEL 5
REMARK VINA RESULT:      -8.0      1.698      2.982
REMARK  Name = 
REMARK  6 active torsions:
REMARK  status: ('A' for Active; 'I' for Inactive)
REMARK    1  A    between atoms: C_1  and  C_2
REMARK    2  A    between atoms: C_4  and  C_5
REMARK    3  A    between atoms: C_7  and  C_8
REMARK    4  A    between atoms: C_8  and  O_9
REMARK    5  A    between atoms: C_8  and  C_10
REMARK    6  A    between atoms: C_12  and  C_13
REMARK                            x       y       z     vdW  Elec       q    Type
REMARK                         _______ _______ _______ _____ _____    ______ ____
ROOT
ATOM      1  C   UNL     1       2.615   6.597  18.706  0.00  0.00    +0.000 A 
ATOM      2  N   UNL     1       2.100   6.989  19.851  0.00  0.00    +0.000 NA
ATOM      3  C   UNL     1       1.679   8.282  19.651  0.00  0.00    +0.000 A 
ATOM      4  C   UNL     1       2.027   8.712  18.388  0.00  0.00    +0.000 A 
ATOM      5  N   UNL     1       2.670   7.653  17.822  0.00  0.00    +0.000 N 
ATOM      6  H   UNL     1       3.060   7.595  16.892  0.00  0.00    +0.000 HD
ENDROOT
BRANCH   3   7
ATOM      7  C   UNL     1       0.949   9.046  20.637  0.00  0.00    +0.000 A 
ATOM      8  C   UNL     1       0.146  10.122  20.219  0.00  0.00    +0.000 A 
ATOM      9  C   UNL     1      -0.577  10.860  21.153  0.00  0.00    +0.000 A 
ATOM     10  C   UNL     1      -0.492  10.535  22.501  0.00  0.00    +0.000 A 
ATOM     11  F   UNL     1      -1.190  11.242  23.397  0.00  0.00    +0.000 F 
ATOM     12  C   UNL     1       0.315   9.487  22.937  0.00  0.00    +0.000 A 
ATOM     13  C   UNL     1       1.035   8.747  22.005  0.00  0.00    +0.000 A 
ENDBRANCH   3   7
BRANCH   1  14
ATOM     14  C   UNL     1       3.014   5.204  18.301  0.00  0.00    +0.000 C 
BRANCH  14  21
ATOM     15  C   UNL     1       6.333   3.971  14.679  0.00  0.00    +0.000 C 
ATOM     16  C   UNL     1       6.075   4.517  16.053  0.00  0.00    +0.000 A 
ATOM     17  C   UNL     1       7.117   4.879  16.906  0.00  0.00    +0.000 A 
ATOM     18  C   UNL     1       6.848   5.356  18.197  0.00  0.00    +0.000 A 
ATOM     19  C   UNL     1       7.968   5.738  19.119  0.00  0.00    +0.000 C 
ATOM     20  C   UNL     1       5.514   5.460  18.629  0.00  0.00    +0.000 A 
ATOM     21  C   UNL     1       4.447   5.083  17.794  0.00  0.00    +0.000 A 
ATOM     22  C   UNL     1       4.752   4.636  16.497  0.00  0.00    +0.000 A 
ENDBRANCH  14  21
BRANCH  14  23
ATOM     23  O   UNL     1       2.845   4.377  19.460  0.00  0.00    +0.000 OA
ATOM     24  H   UNL     1       2.496   4.955  20.160  0.00  0.00    +0.000 HD
ENDBRANCH  14  23
ENDBRANCH   1  14
TORSDOF 4
ENDMDL
MODEL 6
REMARK VINA RESULT:      -8.0      1.757      2.586
REMARK  Name = 
REMARK  6 active torsions:
REMARK  status: ('A' for Active; 'I' for Inactive)
REMARK    1  A    between atoms: C_1  and  C_2
REMARK    2  A    between atoms: C_4  and  C_5
REMARK    3  A    between atoms: C_7  and  C_8
REMARK    4  A    between atoms: C_8  and  O_9
REMARK    5  A    between atoms: C_8  and  C_10
REMARK    6  A    between atoms: C_12  and  C_13
REMARK                            x       y       z     vdW  Elec       q    Type
REMARK                         _______ _______ _______ _____ _____    ______ ____
ROOT
ATOM      1  C   UNL     1       2.617   6.734  18.544  0.00  0.00    +0.000 A 
ATOM      2  N   UNL     1       2.092   7.106  19.691  0.00  0.00    +0.000 NA
ATOM      3  C   UNL     1       1.682   8.407  19.513  0.00  0.00    +0.000 A 
ATOM      4  C   UNL     1       2.047   8.860  18.263  0.00  0.00    +0.000 A 
ATOM      5  N   UNL     1       2.689   7.808  17.682  0.00  0.00    +0.000 N 
ATOM      6  H   UNL     1       3.088   7.766  16.756  0.00  0.00    +0.000 HD
ENDROOT
BRANCH   3   7
ATOM      7  C   UNL     1       0.947   9.156  20.507  0.00  0.00    +0.000 A 
ATOM      8  C   UNL     1       0.939   8.708  21.840  0.00  0.00    +0.000 A 
ATOM      9  C   UNL     1       0.250   9.426  22.814  0.00  0.00    +0.000 A 
ATOM     10  C   UNL     1      -0.439  10.579  22.461  0.00  0.00    +0.000 A 
ATOM     11  F   UNL     1      -1.098  11.269  23.399  0.00  0.00    +0.000 F 
ATOM     12  C   UNL     1      -0.461  11.026  21.142  0.00  0.00    +0.000 A 
ATOM     13  C   UNL     1       0.230  10.313  20.168  0.00  0.00    +0.000 A 
ENDBRANCH   3   7
BRANCH   1  14
ATOM     14  C   UNL     1       3.011   5.347  18.115  0.00  0.00    +0.000 C 
BRANCH  14  21
ATOM     15  C   UNL     1       7.941   5.796  19.180  0.00  0.00    +0.000 C 
ATOM     16  C   UNL     1       6.868   5.389  18.214  0.00  0.00    +0.000 A 
ATOM     17  C   UNL     1       7.171   4.920  16.935  0.00  0.00    +0.000 A 
ATOM     18  C   UNL     1       6.147   4.576  16.042  0.00  0.00    +0.000 A 
ATOM     19  C   UNL     1       6.472   4.080  14.663  0.00  0.00    +0.000 C 
ATOM     20  C   UNL     1       4.807   4.715  16.443  0.00  0.00    +0.000 A 
ATOM     21  C   UNL     1       4.475   5.204  17.719  0.00  0.00    +0.000 A 
ATOM     22  C   UNL     1       5.527   5.512  18.599  0.00  0.00    +0.000 A 
ENDBRANCH  14  21
BRANCH  14  23
ATOM     23  O   UNL     1       2.727   4.480  19.222  0.00  0.00    +0.000 OA
ATOM     24  H   UNL     1       2.069   3.838  18.906  0.00  0.00    +0.000 HD
ENDBRANCH  14  23
ENDBRANCH   1  14
TORSDOF 4
ENDMDL
MODEL 7
REMARK VINA RESULT:      -8.0      1.704      2.414
REMARK  Name = 
REMARK  6 active torsions:
REMARK  status: ('A' for Active; 'I' for Inactive)
REMARK    1  A    between atoms: C_1  and  C_2
REMARK    2  A    between atoms: C_4  and  C_5
REMARK    3  A    between atoms: C_7  and  C_8
REMARK    4  A    between atoms: C_8  and  O_9
REMARK    5  A    between atoms: C_8  and  C_10
REMARK    6  A    between atoms: C_12  and  C_13
REMARK                            x       y       z     vdW  Elec       q    Type
REMARK                         _______ _______ _______ _____ _____    ______ ____
ROOT
ATOM      1  C   UNL     1       2.627   6.633  18.729  0.00  0.00    +0.000 A 
ATOM      2  N   UNL     1       2.143   7.052  19.877  0.00  0.00    +0.000 NA
ATOM      3  C   UNL     1       1.683   8.328  19.649  0.00  0.00    +0.000 A 
ATOM      4  C   UNL     1       1.976   8.722  18.360  0.00  0.00    +0.000 A 
ATOM      5  N   UNL     1       2.624   7.659  17.808  0.00  0.00    +0.000 N 
ATOM      6  H   UNL     1       2.982   7.578  16.867  0.00  0.00    +0.000 HD
ENDROOT
BRANCH   3   7
ATOM      7  C   UNL     1       0.971   9.109  20.635  0.00  0.00    +0.000 A 
ATOM      8  C   UNL     1       0.304  10.281  20.235  0.00  0.00    +0.000 A 
ATOM      9  C   UNL     1      -0.401  11.038  21.167  0.00  0.00    +0.000 A 
ATOM     10  C   UNL     1      -0.433  10.636  22.496  0.00  0.00    +0.000 A 
ATOM     11  F   UNL     1      -1.113  11.362  23.390  0.00  0.00    +0.000 F 
ATOM     12  C   UNL     1       0.240   9.490  22.916  0.00  0.00    +0.000 A 
ATOM     13  C   UNL     1       0.941   8.731  21.986  0.00  0.00    +0.000 A 
ENDBRANCH   3   7
BRANCH   1  14
ATOM     14  C   UNL     1       3.045   5.236  18.357  0.00  0.00    +0.000 C 
BRANCH  14  21
ATOM     15  C   UNL     1       8.001   5.762  19.257  0.00  0.00    +0.000 C 
ATOM     16  C   UNL     1       6.902   5.335  18.329  0.00  0.00    +0.000 A 
ATOM     17  C   UNL     1       7.170   4.864  17.043  0.00  0.00    +0.000 A 
ATOM     18  C   UNL     1       6.122   4.501  16.185  0.00  0.00    +0.000 A 
ATOM     19  C   UNL     1       6.409   4.004  14.799  0.00  0.00    +0.000 C 
ATOM     20  C   UNL     1       4.794   4.623  16.629  0.00  0.00    +0.000 A 
ATOM     21  C   UNL     1       4.498   5.113  17.913  0.00  0.00    +0.000 A 
ATOM     22  C   UNL     1       5.573   5.441  18.757  0.00  0.00    +0.000 A 
ENDBRANCH  14  21
BRANCH  14  23
ATOM     23  O   UNL     1       2.828   4.422  19.517  0.00  0.00    +0.000 OA
ATOM     24  H   UNL     1       2.625   5.033  20.246  0.00  0.00    +0.000 HD
ENDBRANCH  14  23
ENDBRANCH   1  14
TORSDOF 4
ENDMDL
MODEL 8
REMARK VINA RESULT:      -7.8      3.642      5.805
REMARK  Name = 
REMARK  6 active torsions:
REMARK  status: ('A' for Active; 'I' for Inactive)
REMARK    1  A    between atoms: C_1  and  C_2
REMARK    2  A    between atoms: C_4  and  C_5
REMARK    3  A    between atoms: C_7  and  C_8
REMARK    4  A    between atoms: C_8  and  O_9
REMARK    5  A    between atoms: C_8  and  C_10
REMARK    6  A    between atoms: C_12  and  C_13
REMARK                            x       y       z     vdW  Elec       q    Type
REMARK                         _______ _______ _______ _____ _____    ______ ____
ROOT
ATOM      1  C   UNL     1       6.047   4.779  15.005  0.00  0.00    +0.000 A 
ATOM      2  N   UNL     1       5.274   4.059  15.787  0.00  0.00    +0.000 NA
ATOM      3  C   UNL     1       4.539   4.959  16.523  0.00  0.00    +0.000 A 
ATOM      4  C   UNL     1       4.940   6.249  16.245  0.00  0.00    +0.000 A 
ATOM      5  N   UNL     1       5.935   6.116  15.324  0.00  0.00    +0.000 N 
ATOM      6  H   UNL     1       6.462   6.852  14.878  0.00  0.00    +0.000 HD
ENDROOT
BRANCH   3   7
ATOM      7  C   UNL     1       3.481   4.575  17.430  0.00  0.00    +0.000 A 
ATOM      8  C   UNL     1       3.142   5.430  18.494  0.00  0.00    +0.000 A 
ATOM      9  C   UNL     1       2.115   5.084  19.368  0.00  0.00    +0.000 A 
ATOM     10  C   UNL     1       1.435   3.887  19.192  0.00  0.00    +0.000 A 
ATOM     11  F   UNL     1       0.446   3.557  20.030  0.00  0.00    +0.000 F 
ATOM     12  C   UNL     1       1.770   3.016  18.157  0.00  0.00    +0.000 A 
ATOM     13  C   UNL     1       2.794   3.361  17.280  0.00  0.00    +0.000 A 
ENDBRANCH   3   7
BRANCH   1  14
ATOM     14  C   UNL     1       6.881   4.310  13.844  0.00  0.00    +0.000 C 
BRANCH  14  21
ATOM     15  C   UNL     1       3.116   4.050  10.466  0.00  0.00    +0.000 C 
ATOM     16  C   UNL     1       4.302   3.404  11.120  0.00  0.00    +0.000 A 
ATOM     17  C   UNL     1       4.691   2.101  10.809  0.00  0.00    +0.000 A 
ATOM     18  C   UNL     1       5.785   1.511  11.458  0.00  0.00    +0.000 A 
ATOM     19  C   UNL     1       6.199   0.106  11.132  0.00  0.00    +0.000 C 
ATOM     20  C   UNL     1       6.485   2.243  12.433  0.00  0.00    +0.000 A 
ATOM     21  C   UNL     1       6.101   3.551  12.777  0.00  0.00    +0.000 A 
ATOM     22  C   UNL     1       5.018   4.121  12.087  0.00  0.00    +0.000 A 
ENDBRANCH  14  21
BRANCH  14  23
ATOM     23  O   UNL     1       7.469   5.483  13.263  0.00  0.00    +0.000 OA
ATOM     24  H   UNL     1       7.109   5.552  12.362  0.00  0.00    +0.000 HD
ENDBRANCH  14  23
ENDBRANCH   1  14
TORSDOF 4
ENDMDL
MODEL 9
REMARK VINA RESULT:      -7.7      1.857      2.957
REMARK  Name = 
REMARK  6 active torsions:
REMARK  status: ('A' for Active; 'I' for Inactive)
REMARK    1  A    between atoms: C_1  and  C_2
REMARK    2  A    between atoms: C_4  and  C_5
REMARK    3  A    between atoms: C_7  and  C_8
REMARK    4  A    between atoms: C_8  and  O_9
REMARK    5  A    between atoms: C_8  and  C_10
REMARK    6  A    between atoms: C_12  and  C_13
REMARK                            x       y       z     vdW  Elec       q    Type
REMARK                         _______ _______ _______ _____ _____    ______ ____
ROOT
ATOM      1  C   UNL     1       4.627   4.412  16.867  0.00  0.00    +0.000 A 
ATOM      2  N   UNL     1       4.391   5.665  17.188  0.00  0.00    +0.000 NA
ATOM      3  C   UNL     1       3.151   5.674  17.784  0.00  0.00    +0.000 A 
ATOM      4  C   UNL     1       2.588   4.416  17.742  0.00  0.00    +0.000 A 
ATOM      5  N   UNL     1       3.511   3.640  17.108  0.00  0.00    +0.000 N 
ATOM      6  H   UNL     1       3.450   2.652  16.905  0.00  0.00    +0.000 HD
ENDROOT
BRANCH   3   7
ATOM      7  C   UNL     1       2.563   6.849  18.386  0.00  0.00    +0.000 A 
ATOM      8  C   UNL     1       2.241   6.833  19.755  0.00  0.00    +0.000 A 
ATOM      9  C   UNL     1       1.688   7.960  20.356  0.00  0.00    +0.000 A 
ATOM     10  C   UNL     1       1.445   9.096  19.595  0.00  0.00    +0.000 A 
ATOM     11  F   UNL     1       0.917  10.180  20.174  0.00  0.00    +0.000 F 
ATOM     12  C   UNL     1       1.736   9.124  18.232  0.00  0.00    +0.000 A 
ATOM     13  C   UNL     1       2.292   8.000  17.631  0.00  0.00    +0.000 A 
ENDBRANCH   3   7
BRANCH   1  14
ATOM     14  C   UNL     1       5.924   3.806  16.402  0.00  0.00    +0.000 C 
BRANCH  14  21
ATOM     15  C   UNL     1       8.712   5.938  12.751  0.00  0.00    +0.000 C 
ATOM     16  C   UNL     1       7.577   5.037  13.140  0.00  0.00    +0.000 A 
ATOM     17  C   UNL     1       6.759   4.434  12.184  0.00  0.00    +0.000 A 
ATOM     18  C   UNL     1       5.685   3.623  12.576  0.00  0.00    +0.000 A 
ATOM     19  C   UNL     1       4.799   2.981  11.549  0.00  0.00    +0.000 C 
ATOM     20  C   UNL     1       5.433   3.426  13.945  0.00  0.00    +0.000 A 
ATOM     21  C   UNL     1       6.232   4.038  14.928  0.00  0.00    +0.000 A 
ATOM     22  C   UNL     1       7.317   4.822  14.499  0.00  0.00    +0.000 A 
ENDBRANCH  14  21
BRANCH  14  23
ATOM     23  O   UNL     1       6.959   4.389  17.205  0.00  0.00    +0.000 OA
ATOM     24  H   UNL     1       6.541   5.107  17.711  0.00  0.00    +0.000 HD
ENDBRANCH  14  23
ENDBRANCH   1  14
TORSDOF 4
ENDMDL
