MODEL 1
REMARK VINA RESULT:      -7.2      0.000      0.000
REMARK  Name = 
REMARK  4 active torsions:
REMARK  status: ('A' for Active; 'I' for Inactive)
REMARK    1  A    between atoms: C_1  and  C_2
REMARK    2  A    between atoms: C_8  and  N_9
REMARK    3  A    between atoms: C_15  and  C_16
REMARK    4  A    between atoms: C_16  and  N_17
REMARK                            x       y       z     vdW  Elec       q    Type
REMARK                         _______ _______ _______ _____ _____    ______ ____
ROOT
ATOM      1  N   UNL     1       2.339   7.054  18.931  0.00  0.00    +0.000 N 
ATOM      2  C   UNL     1       1.880   7.259  20.216  0.00  0.00    +0.000 C 
ATOM      3  O   UNL     1       1.714   6.374  21.052  0.00  0.00    +0.000 OA
ATOM      4  N   UNL     1       1.681   8.608  20.529  0.00  0.00    +0.000 N 
ATOM      5  C   UNL     1       1.425   8.949  21.928  0.00  0.00    +0.000 C 
ATOM      6  C   UNL     1      -0.069   9.146  22.163  0.00  0.00    +0.000 C 
ATOM      7  C   UNL     1      -0.651  10.229  21.231  0.00  0.00    +0.000 C 
ATOM      8  C   UNL     1      -0.291   9.880  19.770  0.00  0.00    +0.000 C 
ATOM      9  C   UNL     1       1.202   9.599  19.564  0.00  0.00    +0.000 C 
ATOM     10  H   UNL     1       2.794   7.861  18.541  0.00  0.00    +0.000 HD
ENDROOT
BRANCH   1  18
ATOM     11  C   UNL     1       4.794   6.741  17.465  0.00  0.00    +0.000 C 
ATOM     12  C   UNL     1       3.788   5.622  17.572  0.00  0.00    +0.000 A 
ATOM     13  C   UNL     1       4.019   4.368  16.967  0.00  0.00    +0.000 A 
ATOM     14 CL   UNL     1       5.467   4.010  16.087  0.00  0.00    +0.000 Cl
ATOM     15  C   UNL     1       3.079   3.338  17.056  0.00  0.00    +0.000 A 
ATOM     16  C   UNL     1       1.887   3.543  17.736  0.00  0.00    +0.000 A 
ATOM     17  C   UNL     1       1.638   4.773  18.343  0.00  0.00    +0.000 A 
ATOM     18  C   UNL     1       2.579   5.811  18.291  0.00  0.00    +0.000 A 
ENDBRANCH   1  18
BRANCH   7  19
ATOM     19  C   UNL     1      -0.199  11.674  21.587  0.00  0.00    +0.000 C 
BRANCH  19  20
ATOM     20  N   UNL     1      -0.766  12.199  22.836  0.00  0.00    +0.000 NA
ATOM     21  C   UNL     1      -2.162  11.785  23.099  0.00  0.00    +0.000 C 
ATOM     22  C   UNL     1      -3.231  12.571  22.322  0.00  0.00    +0.000 C 
ATOM     23  O   UNL     1      -3.097  13.981  22.529  0.00  0.00    +0.000 OA
ATOM     24  C   UNL     1      -1.796  14.417  22.127  0.00  0.00    +0.000 C 
ATOM     25  C   UNL     1      -0.693  13.678  22.906  0.00  0.00    +0.000 C 
ENDBRANCH  19  20
ENDBRANCH   7  19
TORSDOF 3
ENDMDL
MODEL 2
REMARK VINA RESULT:      -7.2      0.639      1.226
REMARK  Name = 
REMARK  4 active torsions:
REMARK  status: ('A' for Active; 'I' for Inactive)
REMARK    1  A    between atoms: C_1  and  C_2
REMARK    2  A    between atoms: C_8  and  N_9
REMARK    3  A    between atoms: C_15  and  C_16
REMARK    4  A    between atoms: C_16  and  N_17
REMARK                            x       y       z     vdW  Elec       q    Type
REMARK                         _______ _______ _______ _____ _____    ______ ____
ROOT
ATOM      1  N   UNL     1       2.451   7.051  18.804  0.00  0.00    +0.000 N 
ATOM      2  C   UNL     1       1.873   7.275  20.037  0.00  0.00    +0.000 C 
ATOM      3  O   UNL     1       1.593   6.398  20.850  0.00  0.00    +0.000 OA
ATOM      4  N   UNL     1       1.691   8.631  20.330  0.00  0.00    +0.000 N 
ATOM      5  C   UNL     1       1.310   8.983  21.697  0.00  0.00    +0.000 C 
ATOM      6  C   UNL     1      -0.192   9.233  21.782  0.00  0.00    +0.000 C 
ATOM      7  C   UNL     1      -0.641  10.334  20.798  0.00  0.00    +0.000 C 
ATOM      8  C   UNL     1      -0.148   9.969  19.380  0.00  0.00    +0.000 C 
ATOM      9  C   UNL     1       1.347   9.636  19.324  0.00  0.00    +0.000 C 
ATOM     10  H   UNL     1       2.971   7.841  18.462  0.00  0.00    +0.000 HD
ENDROOT
BRANCH   1  18
ATOM     11  C   UNL     1       4.922   6.737  17.366  0.00  0.00    +0.000 C 
ATOM     12  C   UNL     1       3.927   5.610  17.485  0.00  0.00    +0.000 A 
ATOM     13  C   UNL     1       4.177   4.347  16.906  0.00  0.00    +0.000 A 
ATOM     14 CL   UNL     1       5.636   3.988  16.046  0.00  0.00    +0.000 Cl
ATOM     15  C   UNL     1       3.246   3.309  17.005  0.00  0.00    +0.000 A 
ATOM     16  C   UNL     1       2.046   3.514  17.670  0.00  0.00    +0.000 A 
ATOM     17  C   UNL     1       1.779   4.752  18.252  0.00  0.00    +0.000 A 
ATOM     18  C   UNL     1       2.710   5.799  18.190  0.00  0.00    +0.000 A 
ENDBRANCH   1  18
BRANCH   7  19
ATOM     19  C   UNL     1      -0.175  11.763  21.199  0.00  0.00    +0.000 C 
BRANCH  19  20
ATOM     20  N   UNL     1      -1.225  12.788  21.127  0.00  0.00    +0.000 NA
ATOM     21  C   UNL     1      -0.905  14.047  21.835  0.00  0.00    +0.000 C 
ATOM     22  C   UNL     1      -1.097  14.003  23.360  0.00  0.00    +0.000 C 
ATOM     23  O   UNL     1      -2.419  13.576  23.707  0.00  0.00    +0.000 OA
ATOM     24  C   UNL     1      -2.680  12.283  23.154  0.00  0.00    +0.000 C 
ATOM     25  C   UNL     1      -2.530  12.289  21.623  0.00  0.00    +0.000 C 
ENDBRANCH  19  20
ENDBRANCH   7  19
TORSDOF 3
ENDMDL
MODEL 3
REMARK VINA RESULT:      -7.0      1.179      1.672
REMARK  Name = 
REMARK  4 active torsions:
REMARK  status: ('A' for Active; 'I' for Inactive)
REMARK    1  A    between atoms: C_1  and  C_2
REMARK    2  A    between atoms: C_8  and  N_9
REMARK    3  A    between atoms: C_15  and  C_16
REMARK    4  A    between atoms: C_16  and  N_17
REMARK                            x       y       z     vdW  Elec       q    Type
REMARK                         _______ _______ _______ _____ _____    ______ ____
ROOT
ATOM      1  N   UNL     1       2.565   7.255  18.364  0.00  0.00    +0.000 N 
ATOM      2  C   UNL     1       1.939   7.597  19.545  0.00  0.00    +0.000 C 
ATOM      3  O   UNL     1       1.687   6.814  20.458  0.00  0.00    +0.000 OA
ATOM      4  N   UNL     1       1.669   8.965  19.659  0.00  0.00    +0.000 N 
ATOM      5  C   UNL     1       1.227   9.462  20.961  0.00  0.00    +0.000 C 
ATOM      6  C   UNL     1      -0.289   9.627  20.980  0.00  0.00    +0.000 C 
ATOM      7  C   UNL     1      -0.772  10.565  19.854  0.00  0.00    +0.000 C 
ATOM      8  C   UNL     1      -0.217  10.056  18.506  0.00  0.00    +0.000 C 
ATOM      9  C   UNL     1       1.297   9.811  18.526  0.00  0.00    +0.000 C 
ATOM     10  H   UNL     1       3.048   8.027  17.936  0.00  0.00    +0.000 HD
ENDROOT
BRANCH   1  18
ATOM     11  C   UNL     1       5.164   6.883  17.189  0.00  0.00    +0.000 C 
ATOM     12  C   UNL     1       4.197   5.737  17.349  0.00  0.00    +0.000 A 
ATOM     13  C   UNL     1       4.535   4.429  16.941  0.00  0.00    +0.000 A 
ATOM     14 CL   UNL     1       6.076   4.035  16.256  0.00  0.00    +0.000 Cl
ATOM     15  C   UNL     1       3.631   3.372  17.077  0.00  0.00    +0.000 A 
ATOM     16  C   UNL     1       2.370   3.601  17.609  0.00  0.00    +0.000 A 
ATOM     17  C   UNL     1       2.015   4.885  18.021  0.00  0.00    +0.000 A 
ATOM     18  C   UNL     1       2.916   5.955  17.921  0.00  0.00    +0.000 A 
ENDBRANCH   1  18
BRANCH   7  19
ATOM     19  C   UNL     1      -0.404  12.059  20.080  0.00  0.00    +0.000 C 
BRANCH  19  20
ATOM     20  N   UNL     1      -1.461  13.010  19.708  0.00  0.00    +0.000 NA
ATOM     21  C   UNL     1      -1.264  14.381  20.228  0.00  0.00    +0.000 C 
ATOM     22  C   UNL     1      -1.649  14.578  21.705  0.00  0.00    +0.000 C 
ATOM     23  O   UNL     1      -2.993  14.154  21.955  0.00  0.00    +0.000 OA
ATOM     24  C   UNL     1      -3.150  12.777  21.600  0.00  0.00    +0.000 C 
ATOM     25  C   UNL     1      -2.805  12.539  20.119  0.00  0.00    +0.000 C 
ENDBRANCH  19  20
ENDBRANCH   7  19
TORSDOF 3
ENDMDL
MODEL 4
REMARK VINA RESULT:      -6.9      1.774      2.146
REMARK  Name = 
REMARK  4 active torsions:
REMARK  status: ('A' for Active; 'I' for Inactive)
REMARK    1  A    between atoms: C_1  and  C_2
REMARK    2  A    between atoms: C_8  and  N_9
REMARK    3  A    between atoms: C_15  and  C_16
REMARK    4  A    between atoms: C_16  and  N_17
REMARK                            x       y       z     vdW  Elec       q    Type
REMARK                         _______ _______ _______ _____ _____    ______ ____
ROOT
ATOM      1  N   UNL     1       2.690   7.131  18.371  0.00  0.00    +0.000 N 
ATOM      2  C   UNL     1       2.022   7.411  19.545  0.00  0.00    +0.000 C 
ATOM      3  O   UNL     1       1.735   6.582  20.405  0.00  0.00    +0.000 OA
ATOM      4  N   UNL     1       1.752   8.773  19.722  0.00  0.00    +0.000 N 
ATOM      5  C   UNL     1       1.263   9.202  21.032  0.00  0.00    +0.000 C 
ATOM      6  C   UNL     1      -0.252   9.372  21.005  0.00  0.00    +0.000 C 
ATOM      7  C   UNL     1      -0.691  10.371  19.914  0.00  0.00    +0.000 C 
ATOM      8  C   UNL     1      -0.088   9.932  18.561  0.00  0.00    +0.000 C 
ATOM      9  C   UNL     1       1.422   9.680  18.623  0.00  0.00    +0.000 C 
ATOM     10  H   UNL     1       3.191   7.922  18.003  0.00  0.00    +0.000 HD
ENDROOT
BRANCH   1  18
ATOM     11  C   UNL     1       5.305   6.828  17.211  0.00  0.00    +0.000 C 
ATOM     12  C   UNL     1       4.343   5.671  17.306  0.00  0.00    +0.000 A 
ATOM     13  C   UNL     1       4.694   4.385  16.841  0.00  0.00    +0.000 A 
ATOM     14 CL   UNL     1       6.245   4.033  16.157  0.00  0.00    +0.000 Cl
ATOM     15  C   UNL     1       3.794   3.318  16.917  0.00  0.00    +0.000 A 
ATOM     16  C   UNL     1       2.526   3.515  17.444  0.00  0.00    +0.000 A 
ATOM     17  C   UNL     1       2.158   4.776  17.911  0.00  0.00    +0.000 A 
ATOM     18  C   UNL     1       3.054   5.855  17.872  0.00  0.00    +0.000 A 
ENDBRANCH   1  18
BRANCH   7  19
ATOM     19  C   UNL     1      -0.328  11.849  20.232  0.00  0.00    +0.000 C 
BRANCH  19  20
ATOM     20  N   UNL     1      -1.123  12.843  19.498  0.00  0.00    +0.000 NA
ATOM     21  C   UNL     1      -0.362  13.619  18.495  0.00  0.00    +0.000 C 
ATOM     22  C   UNL     1       0.487  14.767  19.068  0.00  0.00    +0.000 C 
ATOM     23  O   UNL     1      -0.305  15.654  19.866  0.00  0.00    +0.000 OA
ATOM     24  C   UNL     1      -0.922  14.934  20.938  0.00  0.00    +0.000 C 
ATOM     25  C   UNL     1      -1.808  13.793  20.407  0.00  0.00    +0.000 C 
ENDBRANCH  19  20
ENDBRANCH   7  19
TORSDOF 3
ENDMDL
MODEL 5
REMARK VINA RESULT:      -6.8      1.295      1.463
REMARK  Name = 
REMARK  4 active torsions:
REMARK  status: ('A' for Active; 'I' for Inactive)
REMARK    1  A    between atoms: C_1  and  C_2
REMARK    2  A    between atoms: C_8  and  N_9
REMARK    3  A    between atoms: C_15  and  C_16
REMARK    4  A    between atoms: C_16  and  N_17
REMARK                            x       y       z     vdW  Elec       q    Type
REMARK                         _______ _______ _______ _____ _____    ______ ____
ROOT
ATOM      1  N   UNL     1       2.649   7.243  18.214  0.00  0.00    +0.000 N 
ATOM      2  C   UNL     1       2.009   7.605  19.382  0.00  0.00    +0.000 C 
ATOM      3  O   UNL     1       1.784   6.848  20.323  0.00  0.00    +0.000 OA
ATOM      4  N   UNL     1       1.692   8.966  19.445  0.00  0.00    +0.000 N 
ATOM      5  C   UNL     1       1.230   9.495  20.728  0.00  0.00    +0.000 C 
ATOM      6  C   UNL     1      -0.291   9.607  20.741  0.00  0.00    +0.000 C 
ATOM      7  C   UNL     1      -0.805  10.485  19.581  0.00  0.00    +0.000 C 
ATOM      8  C   UNL     1      -0.230   9.946  18.252  0.00  0.00    +0.000 C 
ATOM      9  C   UNL     1       1.291   9.756  18.282  0.00  0.00    +0.000 C 
ATOM     10  H   UNL     1       3.105   8.014  17.758  0.00  0.00    +0.000 HD
ENDROOT
BRANCH   1  18
ATOM     11  C   UNL     1       5.290   6.906  17.126  0.00  0.00    +0.000 C 
ATOM     12  C   UNL     1       4.348   5.740  17.291  0.00  0.00    +0.000 A 
ATOM     13  C   UNL     1       4.732   4.430  16.931  0.00  0.00    +0.000 A 
ATOM     14 CL   UNL     1       6.302   4.059  16.302  0.00  0.00    +0.000 Cl
ATOM     15  C   UNL     1       3.851   3.354  17.072  0.00  0.00    +0.000 A 
ATOM     16  C   UNL     1       2.570   3.565  17.560  0.00  0.00    +0.000 A 
ATOM     17  C   UNL     1       2.170   4.850  17.924  0.00  0.00    +0.000 A 
ATOM     18  C   UNL     1       3.046   5.940  17.819  0.00  0.00    +0.000 A 
ENDBRANCH   1  18
BRANCH   7  19
ATOM     19  C   UNL     1      -0.490  11.998  19.752  0.00  0.00    +0.000 C 
BRANCH  19  20
ATOM     20  N   UNL     1      -0.689  12.512  21.114  0.00  0.00    +0.000 NA
ATOM     21  C   UNL     1      -2.038  13.061  21.372  0.00  0.00    +0.000 C 
ATOM     22  C   UNL     1      -2.275  14.483  20.835  0.00  0.00    +0.000 C 
ATOM     23  O   UNL     1      -1.282  15.395  21.315  0.00  0.00    +0.000 OA
ATOM     24  C   UNL     1       0.023  14.950  20.931  0.00  0.00    +0.000 C 
ATOM     25  C   UNL     1       0.315  13.541  21.476  0.00  0.00    +0.000 C 
ENDBRANCH  19  20
ENDBRANCH   7  19
TORSDOF 3
ENDMDL
MODEL 6
REMARK VINA RESULT:      -6.6      3.534      9.079
REMARK  Name = 
REMARK  4 active torsions:
REMARK  status: ('A' for Active; 'I' for Inactive)
REMARK    1  A    between atoms: C_1  and  C_2
REMARK    2  A    between atoms: C_8  and  N_9
REMARK    3  A    between atoms: C_15  and  C_16
REMARK    4  A    between atoms: C_16  and  N_17
REMARK                            x       y       z     vdW  Elec       q    Type
REMARK                         _______ _______ _______ _____ _____    ______ ____
ROOT
ATOM      1  N   UNL     1       1.106   9.275  19.520  0.00  0.00    +0.000 N 
ATOM      2  C   UNL     1       1.610   8.105  20.049  0.00  0.00    +0.000 C 
ATOM      3  O   UNL     1       1.680   7.849  21.249  0.00  0.00    +0.000 OA
ATOM      4  N   UNL     1       1.982   7.169  19.078  0.00  0.00    +0.000 N 
ATOM      5  C   UNL     1       2.304   5.816  19.530  0.00  0.00    +0.000 C 
ATOM      6  C   UNL     1       3.815   5.633  19.629  0.00  0.00    +0.000 C 
ATOM      7  C   UNL     1       4.512   5.931  18.285  0.00  0.00    +0.000 C 
ATOM      8  C   UNL     1       4.083   7.333  17.798  0.00  0.00    +0.000 C 
ATOM      9  C   UNL     1       2.563   7.532  17.786  0.00  0.00    +0.000 C 
ATOM     10  H   UNL     1       0.747   9.164  18.587  0.00  0.00    +0.000 HD
ENDROOT
BRANCH   1  18
ATOM     11  C   UNL     1       1.980  11.834  18.539  0.00  0.00    +0.000 C 
ATOM     12  C   UNL     1       1.104  11.712  19.761  0.00  0.00    +0.000 A 
ATOM     13  C   UNL     1       0.665  12.854  20.465  0.00  0.00    +0.000 A 
ATOM     14 CL   UNL     1       1.071  14.464  19.976  0.00  0.00    +0.000 Cl
ATOM     15  C   UNL     1      -0.135  12.737  21.605  0.00  0.00    +0.000 A 
ATOM     16  C   UNL     1      -0.500  11.483  22.072  0.00  0.00    +0.000 A 
ATOM     17  C   UNL     1      -0.080  10.341  21.391  0.00  0.00    +0.000 A 
ATOM     18  C   UNL     1       0.700  10.435  20.228  0.00  0.00    +0.000 A 
ENDBRANCH   1  18
BRANCH   7  19
ATOM     19  C   UNL     1       4.250   4.857  17.191  0.00  0.00    +0.000 C 
BRANCH  19  20
ATOM     20  N   UNL     1       5.424   4.046  16.841  0.00  0.00    +0.000 NA
ATOM     21  C   UNL     1       6.704   4.553  17.382  0.00  0.00    +0.000 C 
ATOM     22  C   UNL     1       7.322   5.726  16.602  0.00  0.00    +0.000 C 
ATOM     23  O   UNL     1       7.476   5.407  15.215  0.00  0.00    +0.000 OA
ATOM     24  C   UNL     1       6.209   5.066  14.644  0.00  0.00    +0.000 C 
ATOM     25  C   UNL     1       5.569   3.873  15.376  0.00  0.00    +0.000 C 
ENDBRANCH  19  20
ENDBRANCH   7  19
TORSDOF 3
ENDMDL
MODEL 7
REMARK VINA RESULT:      -6.6      1.824      2.512
REMARK  Name = 
REMARK  4 active torsions:
REMARK  status: ('A' for Active; 'I' for Inactive)
REMARK    1  A    between atoms: C_1  and  C_2
REMARK    2  A    between atoms: C_8  and  N_9
REMARK    3  A    between atoms: C_15  and  C_16
REMARK    4  A    between atoms: C_16  and  N_17
REMARK                            x       y       z     vdW  Elec       q    Type
REMARK                         _______ _______ _______ _____ _____    ______ ____
ROOT
ATOM      1  N   UNL     1       2.000   7.649  18.964  0.00  0.00    +0.000 N 
ATOM      2  C   UNL     1       1.689   8.901  18.474  0.00  0.00    +0.000 C 
ATOM      3  O   UNL     1       2.185   9.406  17.470  0.00  0.00    +0.000 OA
ATOM      4  N   UNL     1       0.675   9.545  19.192  0.00  0.00    +0.000 N 
ATOM      5  C   UNL     1       0.110  10.766  18.619  0.00  0.00    +0.000 C 
ATOM      6  C   UNL     1       0.728  11.997  19.274  0.00  0.00    +0.000 C 
ATOM      7  C   UNL     1       0.534  11.982  20.805  0.00  0.00    +0.000 C 
ATOM      8  C   UNL     1       1.067  10.644  21.364  0.00  0.00    +0.000 C 
ATOM      9  C   UNL     1       0.504   9.416  20.639  0.00  0.00    +0.000 C 
ATOM     10  H   UNL     1       1.255   7.239  19.500  0.00  0.00    +0.000 HD
ENDROOT
BRANCH   1  18
ATOM     11  C   UNL     1       2.327   5.131  20.314  0.00  0.00    +0.000 C 
ATOM     12  C   UNL     1       3.191   5.517  19.139  0.00  0.00    +0.000 A 
ATOM     13  C   UNL     1       4.188   4.648  18.645  0.00  0.00    +0.000 A 
ATOM     14 CL   UNL     1       4.479   3.082  19.322  0.00  0.00    +0.000 Cl
ATOM     15  C   UNL     1       4.996   5.015  17.565  0.00  0.00    +0.000 A 
ATOM     16  C   UNL     1       4.835   6.257  16.968  0.00  0.00    +0.000 A 
ATOM     17  C   UNL     1       3.855   7.131  17.438  0.00  0.00    +0.000 A 
ATOM     18  C   UNL     1       3.014   6.772  18.502  0.00  0.00    +0.000 A 
ENDBRANCH   1  18
BRANCH   7  19
ATOM     19  C   UNL     1      -0.933  12.229  21.256  0.00  0.00    +0.000 C 
BRANCH  19  20
ATOM     20  N   UNL     1      -1.106  12.394  22.705  0.00  0.00    +0.000 NA
ATOM     21  C   UNL     1      -2.328  11.767  23.254  0.00  0.00    +0.000 C 
ATOM     22  C   UNL     1      -3.623  12.569  23.041  0.00  0.00    +0.000 C 
ATOM     23  O   UNL     1      -3.499  13.905  23.541  0.00  0.00    +0.000 OA
ATOM     24  C   UNL     1      -2.410  14.573  22.897  0.00  0.00    +0.000 C 
ATOM     25  C   UNL     1      -1.085  13.819  23.113  0.00  0.00    +0.000 C 
ENDBRANCH  19  20
ENDBRANCH   7  19
TORSDOF 3
ENDMDL
MODEL 8
REMARK VINA RESULT:      -6.6      4.024      8.666
REMARK  Name = 
REMARK  4 active torsions:
REMARK  status: ('A' for Active; 'I' for Inactive)
REMARK    1  A    between atoms: C_1  and  C_2
REMARK    2  A    between atoms: C_8  and  N_9
REMARK    3  A    between atoms: C_15  and  C_16
REMARK    4  A    between atoms: C_16  and  N_17
REMARK                            x       y       z     vdW  Elec       q    Type
REMARK                         _______ _______ _______ _____ _____    ______ ____
ROOT
ATOM      1  N   UNL     1       0.991   9.252  19.085  0.00  0.00    +0.000 N 
ATOM      2  C   UNL     1       1.977   8.813  18.225  0.00  0.00    +0.000 C 
ATOM      3  O   UNL     1       2.203   9.289  17.116  0.00  0.00    +0.000 OA
ATOM      4  N   UNL     1       2.774   7.797  18.763  0.00  0.00    +0.000 N 
ATOM      5  C   UNL     1       3.986   7.429  18.032  0.00  0.00    +0.000 C 
ATOM      6  C   UNL     1       3.745   6.173  17.200  0.00  0.00    +0.000 C 
ATOM      7  C   UNL     1       3.267   4.996  18.076  0.00  0.00    +0.000 C 
ATOM      8  C   UNL     1       2.037   5.448  18.894  0.00  0.00    +0.000 C 
ATOM      9  C   UNL     1       2.264   6.758  19.657  0.00  0.00    +0.000 C 
ATOM     10  H   UNL     1       1.196   9.061  20.051  0.00  0.00    +0.000 HD
ENDROOT
BRANCH   1  18
ATOM     11  C   UNL     1       1.065  11.713  20.573  0.00  0.00    +0.000 C 
ATOM     12  C   UNL     1       0.006  11.449  19.531  0.00  0.00    +0.000 A 
ATOM     13  C   UNL     1      -0.984  12.409  19.233  0.00  0.00    +0.000 A 
ATOM     14 CL   UNL     1      -1.049  13.955  20.011  0.00  0.00    +0.000 Cl
ATOM     15  C   UNL     1      -1.972  12.156  18.277  0.00  0.00    +0.000 A 
ATOM     16  C   UNL     1      -2.000  10.939  17.612  0.00  0.00    +0.000 A 
ATOM     17  C   UNL     1      -1.029   9.977  17.889  0.00  0.00    +0.000 A 
ATOM     18  C   UNL     1      -0.012  10.220  18.823  0.00  0.00    +0.000 A 
ENDBRANCH   1  18
BRANCH   7  19
ATOM     19  C   UNL     1       4.371   4.414  19.004  0.00  0.00    +0.000 C 
BRANCH  19  20
ATOM     20  N   UNL     1       4.386   2.947  19.086  0.00  0.00    +0.000 NA
ATOM     21  C   UNL     1       3.676   2.263  17.983  0.00  0.00    +0.000 C 
ATOM     22  C   UNL     1       2.144   2.222  18.122  0.00  0.00    +0.000 C 
ATOM     23  O   UNL     1       1.749   1.658  19.377  0.00  0.00    +0.000 OA
ATOM     24  C   UNL     1       2.307   2.414  20.456  0.00  0.00    +0.000 C 
ATOM     25  C   UNL     1       3.844   2.453  20.374  0.00  0.00    +0.000 C 
ENDBRANCH  19  20
ENDBRANCH   7  19
TORSDOF 3
ENDMDL
MODEL 9
REMARK VINA RESULT:      -6.5      2.555      3.011
REMARK  Name = 
REMARK  4 active torsions:
REMARK  status: ('A' for Active; 'I' for Inactive)
REMARK    1  A    between atoms: C_1  and  C_2
REMARK    2  A    between atoms: C_8  and  N_9
REMARK    3  A    between atoms: C_15  and  C_16
REMARK    4  A    between atoms: C_16  and  N_17
REMARK                            x       y       z     vdW  Elec       q    Type
REMARK                         _______ _______ _______ _____ _____    ______ ____
ROOT
ATOM      1  N   UNL     1       2.224   6.758  19.712  0.00  0.00    +0.000 N 
ATOM      2  C   UNL     1       1.482   7.647  20.463  0.00  0.00    +0.000 C 
ATOM      3  O   UNL     1       0.867   7.358  21.486  0.00  0.00    +0.000 OA
ATOM      4  N   UNL     1       1.546   8.963  19.994  0.00  0.00    +0.000 N 
ATOM      5  C   UNL     1       0.993  10.014  20.847  0.00  0.00    +0.000 C 
ATOM      6  C   UNL     1      -0.406  10.399  20.379  0.00  0.00    +0.000 C 
ATOM      7  C   UNL     1      -0.406  10.850  18.903  0.00  0.00    +0.000 C 
ATOM      8  C   UNL     1       0.260   9.752  18.044  0.00  0.00    +0.000 C 
ATOM      9  C   UNL     1       1.629   9.312  18.576  0.00  0.00    +0.000 C 
ATOM     10  H   UNL     1       2.960   7.202  19.189  0.00  0.00    +0.000 HD
ENDROOT
BRANCH   1  18
ATOM     11  C   UNL     1       3.279   5.195  17.540  0.00  0.00    +0.000 C 
ATOM     12  C   UNL     1       2.848   4.558  18.837  0.00  0.00    +0.000 A 
ATOM     13  C   UNL     1       2.960   3.166  19.043  0.00  0.00    +0.000 A 
ATOM     14 CL   UNL     1       3.614   2.096  17.849  0.00  0.00    +0.000 Cl
ATOM     15  C   UNL     1       2.547   2.577  20.241  0.00  0.00    +0.000 A 
ATOM     16  C   UNL     1       2.003   3.360  21.249  0.00  0.00    +0.000 A 
ATOM     17  C   UNL     1       1.885   4.737  21.068  0.00  0.00    +0.000 A 
ATOM     18  C   UNL     1       2.319   5.354  19.886  0.00  0.00    +0.000 A 
ENDBRANCH   1  18
BRANCH   7  19
ATOM     19  C   UNL     1       0.272  12.229  18.667  0.00  0.00    +0.000 C 
BRANCH  19  20
ATOM     20  N   UNL     1       0.213  13.141  19.818  0.00  0.00    +0.000 NA
ATOM     21  C   UNL     1      -0.710  14.285  19.648  0.00  0.00    +0.000 C 
ATOM     22  C   UNL     1      -0.160  15.444  18.799  0.00  0.00    +0.000 C 
ATOM     23  O   UNL     1       1.098  15.907  19.300  0.00  0.00    +0.000 OA
ATOM     24  C   UNL     1       2.046  14.836  19.318  0.00  0.00    +0.000 C 
ATOM     25  C   UNL     1       1.550  13.665  20.186  0.00  0.00    +0.000 C 
ENDBRANCH  19  20
ENDBRANCH   7  19
TORSDOF 3
ENDMDL
