MODEL 1
REMARK VINA RESULT:      -6.8      0.000      0.000
REMARK  Name = 
REMARK  2 active torsions:
REMARK  status: ('A' for Active; 'I' for Inactive)
REMARK    1  A    between atoms: C_1  and  N_2
REMARK    2  A    between atoms: N_11  and  C_12
REMARK                            x       y       z     vdW  Elec       q    Type
REMARK                         _______ _______ _______ _____ _____    ______ ____
ROOT
ATOM      1  C   UNL     1       2.858   8.513  17.568  0.00  0.00    +0.000 C 
ATOM      2  N   UNL     1       2.322   7.873  18.771  0.00  0.00    +0.000 N 
ATOM      3  C   UNL     1       1.554   8.480  19.715  0.00  0.00    +0.000 A 
ATOM      4  C   UNL     1       1.082   9.804  19.746  0.00  0.00    +0.000 A 
ATOM      5  C   UNL     1       0.284  10.202  20.834  0.00  0.00    +0.000 A 
ATOM      6  C   UNL     1      -0.023   9.295  21.868  0.00  0.00    +0.000 A 
ATOM      7  C   UNL     1       0.460   7.977  21.825  0.00  0.00    +0.000 A 
ATOM      8  C   UNL     1       1.242   7.606  20.729  0.00  0.00    +0.000 A 
ATOM      9  C   UNL     1       1.832   6.409  20.405  0.00  0.00    +0.000 A 
ATOM     10  C   UNL     1       1.834   5.206  21.087  0.00  0.00    +0.000 A 
ATOM     11  N   UNL     1       2.484   4.128  20.552  0.00  0.00    +0.000 N 
ATOM     12  C   UNL     1       2.468   2.870  21.317  0.00  0.00    +0.000 C 
ATOM     13  C   UNL     1       3.131   4.227  19.327  0.00  0.00    +0.000 A 
ATOM     14  C   UNL     1       3.780   3.106  18.756  0.00  0.00    +0.000 A 
ATOM     15  C   UNL     1       4.421   3.195  17.524  0.00  0.00    +0.000 A 
ATOM     16  C   UNL     1       4.443   4.398  16.833  0.00  0.00    +0.000 A 
ATOM     17  C   UNL     1       3.823   5.526  17.363  0.00  0.00    +0.000 A 
ATOM     18  C   UNL     1       3.152   5.473  18.607  0.00  0.00    +0.000 A 
ATOM     19  C   UNL     1       2.479   6.578  19.197  0.00  0.00    +0.000 A 
ENDROOT
TORSDOF 0
ENDMDL
MODEL 2
REMARK VINA RESULT:      -6.8      3.727      4.926
REMARK  Name = 
REMARK  2 active torsions:
REMARK  status: ('A' for Active; 'I' for Inactive)
REMARK    1  A    between atoms: C_1  and  N_2
REMARK    2  A    between atoms: N_11  and  C_12
REMARK                            x       y       z     vdW  Elec       q    Type
REMARK                         _______ _______ _______ _____ _____    ______ ____
ROOT
ATOM      1  C   UNL     1       2.368   2.746  16.503  0.00  0.00    +0.000 C 
ATOM      2  N   UNL     1       3.035   3.331  17.667  0.00  0.00    +0.000 N 
ATOM      3  C   UNL     1       2.555   3.325  18.940  0.00  0.00    +0.000 A 
ATOM      4  C   UNL     1       1.369   2.751  19.430  0.00  0.00    +0.000 A 
ATOM      5  C   UNL     1       1.090   2.866  20.803  0.00  0.00    +0.000 A 
ATOM      6  C   UNL     1       1.977   3.548  21.660  0.00  0.00    +0.000 A 
ATOM      7  C   UNL     1       3.155   4.120  21.155  0.00  0.00    +0.000 A 
ATOM      8  C   UNL     1       3.412   3.984  19.790  0.00  0.00    +0.000 A 
ATOM      9  C   UNL     1       4.467   4.413  19.022  0.00  0.00    +0.000 A 
ATOM     10  C   UNL     1       5.595   5.127  19.382  0.00  0.00    +0.000 A 
ATOM     11  N   UNL     1       6.534   5.428  18.433  0.00  0.00    +0.000 N 
ATOM     12  C   UNL     1       7.714   6.199  18.859  0.00  0.00    +0.000 C 
ATOM     13  C   UNL     1       6.371   5.014  17.117  0.00  0.00    +0.000 A 
ATOM     14  C   UNL     1       7.354   5.298  16.140  0.00  0.00    +0.000 A 
ATOM     15  C   UNL     1       7.202   4.877  14.822  0.00  0.00    +0.000 A 
ATOM     16  C   UNL     1       6.070   4.173  14.440  0.00  0.00    +0.000 A 
ATOM     17  C   UNL     1       5.075   3.879  15.369  0.00  0.00    +0.000 A 
ATOM     18  C   UNL     1       5.198   4.280  16.720  0.00  0.00    +0.000 A 
ATOM     19  C   UNL     1       4.235   3.996  17.726  0.00  0.00    +0.000 A 
ENDROOT
TORSDOF 0
ENDMDL
MODEL 3
REMARK VINA RESULT:      -6.7      1.199      5.182
REMARK  Name = 
REMARK  2 active torsions:
REMARK  status: ('A' for Active; 'I' for Inactive)
REMARK    1  A    between atoms: C_1  and  N_2
REMARK    2  A    between atoms: N_11  and  C_12
REMARK                            x       y       z     vdW  Elec       q    Type
REMARK                         _______ _______ _______ _____ _____    ______ ____
ROOT
ATOM      1  C   UNL     1       3.885   6.137  17.420  0.00  0.00    +0.000 C 
ATOM      2  N   UNL     1       3.163   5.951  18.679  0.00  0.00    +0.000 N 
ATOM      3  C   UNL     1       3.150   4.811  19.423  0.00  0.00    +0.000 A 
ATOM      4  C   UNL     1       3.823   3.600  19.188  0.00  0.00    +0.000 A 
ATOM      5  C   UNL     1       3.662   2.556  20.116  0.00  0.00    +0.000 A 
ATOM      6  C   UNL     1       2.838   2.724  21.247  0.00  0.00    +0.000 A 
ATOM      7  C   UNL     1       2.168   3.938  21.466  0.00  0.00    +0.000 A 
ATOM      8  C   UNL     1       2.352   4.961  20.533  0.00  0.00    +0.000 A 
ATOM      9  C   UNL     1       1.854   6.239  20.485  0.00  0.00    +0.000 A 
ATOM     10  C   UNL     1       0.999   6.893  21.354  0.00  0.00    +0.000 A 
ATOM     11  N   UNL     1       0.651   8.193  21.106  0.00  0.00    +0.000 N 
ATOM     12  C   UNL     1      -0.269   8.846  22.052  0.00  0.00    +0.000 C 
ATOM     13  C   UNL     1       1.155   8.864  19.999  0.00  0.00    +0.000 A 
ATOM     14  C   UNL     1       0.820  10.217  19.757  0.00  0.00    +0.000 A 
ATOM     15  C   UNL     1       1.330  10.899  18.655  0.00  0.00    +0.000 A 
ATOM     16  C   UNL     1       2.176  10.254  17.765  0.00  0.00    +0.000 A 
ATOM     17  C   UNL     1       2.524   8.921  17.964  0.00  0.00    +0.000 A 
ATOM     18  C   UNL     1       2.036   8.197  19.076  0.00  0.00    +0.000 A 
ATOM     19  C   UNL     1       2.367   6.843  19.354  0.00  0.00    +0.000 A 
ENDROOT
TORSDOF 0
ENDMDL
MODEL 4
REMARK VINA RESULT:      -6.7      1.075      6.151
REMARK  Name = 
REMARK  2 active torsions:
REMARK  status: ('A' for Active; 'I' for Inactive)
REMARK    1  A    between atoms: C_1  and  N_2
REMARK    2  A    between atoms: N_11  and  C_12
REMARK                            x       y       z     vdW  Elec       q    Type
REMARK                         _______ _______ _______ _____ _____    ______ ____
ROOT
ATOM      1  C   UNL     1       2.125   4.976  20.927  0.00  0.00    +0.000 C 
ATOM      2  N   UNL     1       2.551   5.784  19.784  0.00  0.00    +0.000 N 
ATOM      3  C   UNL     1       3.361   5.363  18.774  0.00  0.00    +0.000 A 
ATOM      4  C   UNL     1       3.933   4.094  18.577  0.00  0.00    +0.000 A 
ATOM      5  C   UNL     1       4.734   3.893  17.440  0.00  0.00    +0.000 A 
ATOM      6  C   UNL     1       4.961   4.943  16.528  0.00  0.00    +0.000 A 
ATOM      7  C   UNL     1       4.387   6.206  16.741  0.00  0.00    +0.000 A 
ATOM      8  C   UNL     1       3.588   6.377  17.873  0.00  0.00    +0.000 A 
ATOM      9  C   UNL     1       2.893   7.468  18.333  0.00  0.00    +0.000 A 
ATOM     10  C   UNL     1       2.789   8.742  17.805  0.00  0.00    +0.000 A 
ATOM     11  N   UNL     1       2.011   9.673  18.437  0.00  0.00    +0.000 N 
ATOM     12  C   UNL     1       1.938  11.019  17.846  0.00  0.00    +0.000 C 
ATOM     13  C   UNL     1       1.317   9.348  19.596  0.00  0.00    +0.000 A 
ATOM     14  C   UNL     1       0.488  10.300  20.236  0.00  0.00    +0.000 A 
ATOM     15  C   UNL     1      -0.218   9.978  21.392  0.00  0.00    +0.000 A 
ATOM     16  C   UNL     1      -0.114   8.710  21.944  0.00  0.00    +0.000 A 
ATOM     17  C   UNL     1       0.697   7.747  21.349  0.00  0.00    +0.000 A 
ATOM     18  C   UNL     1       1.422   8.031  20.169  0.00  0.00    +0.000 A 
ATOM     19  C   UNL     1       2.249   7.092  19.495  0.00  0.00    +0.000 A 
ENDROOT
TORSDOF 0
ENDMDL
MODEL 5
REMARK VINA RESULT:      -6.4      1.201      1.894
REMARK  Name = 
REMARK  2 active torsions:
REMARK  status: ('A' for Active; 'I' for Inactive)
REMARK    1  A    between atoms: C_1  and  N_2
REMARK    2  A    between atoms: N_11  and  C_12
REMARK                            x       y       z     vdW  Elec       q    Type
REMARK                         _______ _______ _______ _____ _____    ______ ____
ROOT
ATOM      1  C   UNL     1       1.976  10.510  18.296  0.00  0.00    +0.000 C 
ATOM      2  N   UNL     1       1.529   9.634  19.380  0.00  0.00    +0.000 N 
ATOM      3  C   UNL     1       0.726  10.003  20.415  0.00  0.00    +0.000 A 
ATOM      4  C   UNL     1       0.131  11.252  20.664  0.00  0.00    +0.000 A 
ATOM      5  C   UNL     1      -0.678  11.389  21.806  0.00  0.00    +0.000 A 
ATOM      6  C   UNL     1      -0.876  10.301  22.679  0.00  0.00    +0.000 A 
ATOM      7  C   UNL     1      -0.271   9.061  22.419  0.00  0.00    +0.000 A 
ATOM      8  C   UNL     1       0.520   8.949  21.274  0.00  0.00    +0.000 A 
ATOM      9  C   UNL     1       1.214   7.884  20.756  0.00  0.00    +0.000 A 
ATOM     10  C   UNL     1       1.345   6.592  21.233  0.00  0.00    +0.000 A 
ATOM     11  N   UNL     1       2.083   5.684  20.525  0.00  0.00    +0.000 N 
ATOM     12  C   UNL     1       2.203   4.323  21.074  0.00  0.00    +0.000 C 
ATOM     13  C   UNL     1       2.693   6.042  19.329  0.00  0.00    +0.000 A 
ATOM     14  C   UNL     1       3.433   5.097  18.580  0.00  0.00    +0.000 A 
ATOM     15  C   UNL     1       4.038   5.446  17.376  0.00  0.00    +0.000 A 
ATOM     16  C   UNL     1       3.930   6.741  16.891  0.00  0.00    +0.000 A 
ATOM     17  C   UNL     1       3.217   7.703  17.601  0.00  0.00    +0.000 A 
ATOM     18  C   UNL     1       2.580   7.385  18.823  0.00  0.00    +0.000 A 
ATOM     19  C   UNL     1       1.817   8.308  19.589  0.00  0.00    +0.000 A 
ENDROOT
TORSDOF 0
ENDMDL
MODEL 6
REMARK VINA RESULT:      -6.4      1.870      5.946
REMARK  Name = 
REMARK  2 active torsions:
REMARK  status: ('A' for Active; 'I' for Inactive)
REMARK    1  A    between atoms: C_1  and  N_2
REMARK    2  A    between atoms: N_11  and  C_12
REMARK                            x       y       z     vdW  Elec       q    Type
REMARK                         _______ _______ _______ _____ _____    ______ ____
ROOT
ATOM      1  C   UNL     1       4.439   1.715  17.316  0.00  0.00    +0.000 C 
ATOM      2  N   UNL     1       4.393   3.175  17.221  0.00  0.00    +0.000 N 
ATOM      3  C   UNL     1       5.053   3.929  16.299  0.00  0.00    +0.000 A 
ATOM      4  C   UNL     1       5.877   3.504  15.243  0.00  0.00    +0.000 A 
ATOM      5  C   UNL     1       6.445   4.480  14.406  0.00  0.00    +0.000 A 
ATOM      6  C   UNL     1       6.198   5.850  14.632  0.00  0.00    +0.000 A 
ATOM      7  C   UNL     1       5.376   6.259  15.694  0.00  0.00    +0.000 A 
ATOM      8  C   UNL     1       4.818   5.268  16.504  0.00  0.00    +0.000 A 
ATOM      9  C   UNL     1       3.978   5.354  17.587  0.00  0.00    +0.000 A 
ATOM     10  C   UNL     1       3.442   6.467  18.210  0.00  0.00    +0.000 A 
ATOM     11  N   UNL     1       2.602   6.304  19.277  0.00  0.00    +0.000 N 
ATOM     12  C   UNL     1       2.063   7.516  19.915  0.00  0.00    +0.000 C 
ATOM     13  C   UNL     1       2.275   5.034  19.734  0.00  0.00    +0.000 A 
ATOM     14  C   UNL     1       1.382   4.861  20.819  0.00  0.00    +0.000 A 
ATOM     15  C   UNL     1       1.041   3.590  21.275  0.00  0.00    +0.000 A 
ATOM     16  C   UNL     1       1.581   2.464  20.673  0.00  0.00    +0.000 A 
ATOM     17  C   UNL     1       2.468   2.591  19.607  0.00  0.00    +0.000 A 
ATOM     18  C   UNL     1       2.832   3.863  19.108  0.00  0.00    +0.000 A 
ATOM     19  C   UNL     1       3.712   4.067  18.010  0.00  0.00    +0.000 A 
ENDROOT
TORSDOF 0
ENDMDL
MODEL 7
REMARK VINA RESULT:      -6.3      1.962      5.730
REMARK  Name = 
REMARK  2 active torsions:
REMARK  status: ('A' for Active; 'I' for Inactive)
REMARK    1  A    between atoms: C_1  and  N_2
REMARK    2  A    between atoms: N_11  and  C_12
REMARK                            x       y       z     vdW  Elec       q    Type
REMARK                         _______ _______ _______ _____ _____    ______ ____
ROOT
ATOM      1  C   UNL     1       4.669   7.701  17.125  0.00  0.00    +0.000 C 
ATOM      2  N   UNL     1       4.579   6.250  16.953  0.00  0.00    +0.000 N 
ATOM      3  C   UNL     1       5.257   5.519  16.027  0.00  0.00    +0.000 A 
ATOM      4  C   UNL     1       6.193   5.957  15.075  0.00  0.00    +0.000 A 
ATOM      5  C   UNL     1       6.777   5.002  14.225  0.00  0.00    +0.000 A 
ATOM      6  C   UNL     1       6.422   3.641  14.324  0.00  0.00    +0.000 A 
ATOM      7  C   UNL     1       5.482   3.220  15.277  0.00  0.00    +0.000 A 
ATOM      8  C   UNL     1       4.924   4.188  16.115  0.00  0.00    +0.000 A 
ATOM      9  C   UNL     1       4.009   4.082  17.134  0.00  0.00    +0.000 A 
ATOM     10  C   UNL     1       3.353   2.969  17.627  0.00  0.00    +0.000 A 
ATOM     11  N   UNL     1       2.487   3.107  18.677  0.00  0.00    +0.000 N 
ATOM     12  C   UNL     1       1.804   1.897  19.163  0.00  0.00    +0.000 C 
ATOM     13  C   UNL     1       2.269   4.349  19.258  0.00  0.00    +0.000 A 
ATOM     14  C   UNL     1       1.396   4.490  20.363  0.00  0.00    +0.000 A 
ATOM     15  C   UNL     1       1.181   5.731  20.957  0.00  0.00    +0.000 A 
ATOM     16  C   UNL     1       1.818   6.860  20.465  0.00  0.00    +0.000 A 
ATOM     17  C   UNL     1       2.679   6.766  19.375  0.00  0.00    +0.000 A 
ATOM     18  C   UNL     1       2.932   5.522  18.751  0.00  0.00    +0.000 A 
ATOM     19  C   UNL     1       3.815   5.347  17.651  0.00  0.00    +0.000 A 
ENDROOT
TORSDOF 0
ENDMDL
MODEL 8
REMARK VINA RESULT:      -6.3      2.810      4.828
REMARK  Name = 
REMARK  2 active torsions:
REMARK  status: ('A' for Active; 'I' for Inactive)
REMARK    1  A    between atoms: C_1  and  N_2
REMARK    2  A    between atoms: N_11  and  C_12
REMARK                            x       y       z     vdW  Elec       q    Type
REMARK                         _______ _______ _______ _____ _____    ______ ____
ROOT
ATOM      1  C   UNL     1       2.641   2.624  16.489  0.00  0.00    +0.000 C 
ATOM      2  N   UNL     1       3.133   3.700  17.350  0.00  0.00    +0.000 N 
ATOM      3  C   UNL     1       2.576   4.086  18.531  0.00  0.00    +0.000 A 
ATOM      4  C   UNL     1       1.461   3.547  19.195  0.00  0.00    +0.000 A 
ATOM      5  C   UNL     1       1.078   4.114  20.423  0.00  0.00    +0.000 A 
ATOM      6  C   UNL     1       1.792   5.201  20.965  0.00  0.00    +0.000 A 
ATOM      7  C   UNL     1       2.901   5.732  20.287  0.00  0.00    +0.000 A 
ATOM      8  C   UNL     1       3.266   5.145  19.074  0.00  0.00    +0.000 A 
ATOM      9  C   UNL     1       4.291   5.427  18.206  0.00  0.00    +0.000 A 
ATOM     10  C   UNL     1       5.272   6.399  18.276  0.00  0.00    +0.000 A 
ATOM     11  N   UNL     1       6.216   6.478  17.288  0.00  0.00    +0.000 N 
ATOM     12  C   UNL     1       7.235   7.535  17.398  0.00  0.00    +0.000 C 
ATOM     13  C   UNL     1       6.204   5.586  16.224  0.00  0.00    +0.000 A 
ATOM     14  C   UNL     1       7.196   5.646  15.216  0.00  0.00    +0.000 A 
ATOM     15  C   UNL     1       7.197   4.748  14.152  0.00  0.00    +0.000 A 
ATOM     16  C   UNL     1       6.212   3.776  14.058  0.00  0.00    +0.000 A 
ATOM     17  C   UNL     1       5.214   3.687  15.025  0.00  0.00    +0.000 A 
ATOM     18  C   UNL     1       5.185   4.574  16.126  0.00  0.00    +0.000 A 
ATOM     19  C   UNL     1       4.211   4.528  17.161  0.00  0.00    +0.000 A 
ENDROOT
TORSDOF 0
ENDMDL
MODEL 9
REMARK VINA RESULT:      -6.2      1.271      3.246
REMARK  Name = 
REMARK  2 active torsions:
REMARK  status: ('A' for Active; 'I' for Inactive)
REMARK    1  A    between atoms: C_1  and  N_2
REMARK    2  A    between atoms: N_11  and  C_12
REMARK                            x       y       z     vdW  Elec       q    Type
REMARK                         _______ _______ _______ _____ _____    ______ ____
ROOT
ATOM      1  C   UNL     1       0.683   7.474  21.682  0.00  0.00    +0.000 C 
ATOM      2  N   UNL     1       1.411   7.649  20.424  0.00  0.00    +0.000 N 
ATOM      3  C   UNL     1       1.475   8.799  19.700  0.00  0.00    +0.000 A 
ATOM      4  C   UNL     1       0.908  10.052  19.989  0.00  0.00    +0.000 A 
ATOM      5  C   UNL     1       1.124  11.106  19.084  0.00  0.00    +0.000 A 
ATOM      6  C   UNL     1       1.883  10.903  17.914  0.00  0.00    +0.000 A 
ATOM      7  C   UNL     1       2.438   9.644  17.637  0.00  0.00    +0.000 A 
ATOM      8  C   UNL     1       2.216   8.617  18.556  0.00  0.00    +0.000 A 
ATOM      9  C   UNL     1       2.634   7.309  18.569  0.00  0.00    +0.000 A 
ATOM     10  C   UNL     1       3.401   6.613  17.652  0.00  0.00    +0.000 A 
ATOM     11  N   UNL     1       3.712   5.302  17.890  0.00  0.00    +0.000 N 
ATOM     12  C   UNL     1       4.521   4.597  16.882  0.00  0.00    +0.000 C 
ATOM     13  C   UNL     1       3.275   4.668  19.046  0.00  0.00    +0.000 A 
ATOM     14  C   UNL     1       3.620   3.321  19.309  0.00  0.00    +0.000 A 
ATOM     15  C   UNL     1       3.195   2.682  20.472  0.00  0.00    +0.000 A 
ATOM     16  C   UNL     1       2.413   3.361  21.394  0.00  0.00    +0.000 A 
ATOM     17  C   UNL     1       2.046   4.685  21.170  0.00  0.00    +0.000 A 
ATOM     18  C   UNL     1       2.466   5.371  20.007  0.00  0.00    +0.000 A 
ATOM     19  C   UNL     1       2.149   6.728  19.723  0.00  0.00    +0.000 A 
ENDROOT
TORSDOF 0
ENDMDL
