MODEL 1
REMARK VINA RESULT:      -8.7      0.000      0.000
REMARK  Name = 
REMARK  3 active torsions:
REMARK  status: ('A' for Active; 'I' for Inactive)
REMARK    1  A    between atoms: N_6  and  C_7
REMARK    2  A    between atoms: C_9  and  C_10
REMARK    3  A    between atoms: C_16  and  C_17
REMARK                            x       y       z     vdW  Elec       q    Type
REMARK                         _______ _______ _______ _____ _____    ______ ____
ROOT
ATOM      1  C   UNL     1       1.247   9.220  18.916  0.00  0.00    +0.000 C 
ATOM      2  O   UNL     1       0.821   9.844  17.943  0.00  0.00    +0.000 OA
ATOM      3  N   UNL     1       0.924   9.594  20.211  0.00  0.00    +0.000 N 
ATOM      4  C   UNL     1       1.168   8.898  21.465  0.00  0.00    +0.000 C 
ATOM      5  C   UNL     1      -0.043   9.229  22.312  0.00  0.00    +0.000 C 
ATOM      6  C   UNL     1      -0.396  10.652  21.899  0.00  0.00    +0.000 C 
ATOM      7  C   UNL     1       0.085  10.774  20.442  0.00  0.00    +0.000 C 
ENDROOT
BRANCH   7   8
ATOM      8  C   UNL     1       0.886  12.041  20.242  0.00  0.00    +0.000 A 
ATOM      9  N   UNL     1       1.887  12.426  21.013  0.00  0.00    +0.000 NA
ATOM     10  C   UNL     1       2.394  13.635  20.567  0.00  0.00    +0.000 A 
ATOM     11  C   UNL     1       3.467  14.346  21.141  0.00  0.00    +0.000 A 
ATOM     12  C   UNL     1       3.880  15.560  20.582  0.00  0.00    +0.000 A 
ATOM     13  C   UNL     1       3.237  16.072  19.459  0.00  0.00    +0.000 A 
ATOM     14  C   UNL     1       2.167  15.389  18.874  0.00  0.00    +0.000 A 
ATOM     15  C   UNL     1       1.759  14.172  19.446  0.00  0.00    +0.000 A 
ATOM     16  S   UNL     1       0.484  13.121  18.967  0.00  0.00    +0.000 S 
ENDBRANCH   7   8
BRANCH   1  19
ATOM     17  C   UNL     1       2.662   5.647  18.981  0.00  0.00    +0.000 A 
ATOM     18  C   UNL     1       1.887   6.787  19.274  0.00  0.00    +0.000 A 
ATOM     19  C   UNL     1       2.083   8.015  18.637  0.00  0.00    +0.000 A 
ATOM     20  C   UNL     1       3.154   8.144  17.748  0.00  0.00    +0.000 A 
ATOM     21  C   UNL     1       3.954   7.041  17.451  0.00  0.00    +0.000 A 
ATOM     22  C   UNL     1       3.698   5.794  18.037  0.00  0.00    +0.000 A 
ATOM     23 CL   UNL     1       4.654   4.489  17.424  0.00  0.00    +0.000 Cl
BRANCH  17  29
ATOM     24  O   UNL     1       1.319   3.154  17.992  0.00  0.00    +0.000 OA
ATOM     25  C   UNL     1       1.606   3.377  19.160  0.00  0.00    +0.000 C 
ATOM     26  C   UNL     1       1.117   2.532  20.312  0.00  0.00    +0.000 C 
ATOM     27  C   UNL     1       2.050   2.920  21.438  0.00  0.00    +0.000 C 
ATOM     28  C   UNL     1       2.399   4.363  21.128  0.00  0.00    +0.000 C 
ATOM     29  N   UNL     1       2.373   4.435  19.689  0.00  0.00    +0.000 N 
ENDBRANCH  17  29
ENDBRANCH   1  19
TORSDOF 3
ENDMDL
MODEL 2
REMARK VINA RESULT:      -8.3      2.693      4.276
REMARK  Name = 
REMARK  3 active torsions:
REMARK  status: ('A' for Active; 'I' for Inactive)
REMARK    1  A    between atoms: N_6  and  C_7
REMARK    2  A    between atoms: C_9  and  C_10
REMARK    3  A    between atoms: C_16  and  C_17
REMARK                            x       y       z     vdW  Elec       q    Type
REMARK                         _______ _______ _______ _____ _____    ______ ____
ROOT
ATOM      1  C   UNL     1       1.165   9.499  19.548  0.00  0.00    +0.000 C 
ATOM      2  O   UNL     1       0.464   9.346  20.549  0.00  0.00    +0.000 OA
ATOM      3  N   UNL     1       1.306  10.740  18.948  0.00  0.00    +0.000 N 
ATOM      4  C   UNL     1       2.213  11.163  17.891  0.00  0.00    +0.000 C 
ATOM      5  C   UNL     1       2.557  12.593  18.249  0.00  0.00    +0.000 C 
ATOM      6  C   UNL     1       1.273  13.129  18.871  0.00  0.00    +0.000 C 
ATOM      7  C   UNL     1       0.587  11.898  19.489  0.00  0.00    +0.000 C 
ENDROOT
BRANCH   7   8
ATOM      8  C   UNL     1      -0.874  11.842  19.100  0.00  0.00    +0.000 A 
ATOM      9  N   UNL     1      -1.322  11.453  17.921  0.00  0.00    +0.000 NA
ATOM     10  C   UNL     1      -2.705  11.535  17.886  0.00  0.00    +0.000 A 
ATOM     11  C   UNL     1      -3.528  11.198  16.793  0.00  0.00    +0.000 A 
ATOM     12  C   UNL     1      -4.917  11.325  16.898  0.00  0.00    +0.000 A 
ATOM     13  C   UNL     1      -5.493  11.783  18.079  0.00  0.00    +0.000 A 
ATOM     14  C   UNL     1      -4.699  12.129  19.176  0.00  0.00    +0.000 A 
ATOM     15  C   UNL     1      -3.305  12.000  19.057  0.00  0.00    +0.000 A 
ATOM     16  S   UNL     1      -2.080  12.353  20.213  0.00  0.00    +0.000 S 
ENDBRANCH   7   8
BRANCH   1  19
ATOM     17  C   UNL     1       2.446   5.901  19.110  0.00  0.00    +0.000 A 
ATOM     18  C   UNL     1       1.778   7.034  19.618  0.00  0.00    +0.000 A 
ATOM     19  C   UNL     1       1.894   8.300  19.039  0.00  0.00    +0.000 A 
ATOM     20  C   UNL     1       2.787   8.470  17.976  0.00  0.00    +0.000 A 
ATOM     21  C   UNL     1       3.480   7.374  17.462  0.00  0.00    +0.000 A 
ATOM     22  C   UNL     1       3.294   6.094  18.002  0.00  0.00    +0.000 A 
ATOM     23 CL   UNL     1       4.075   4.816  17.136  0.00  0.00    +0.000 Cl
BRANCH  17  29
ATOM     24  O   UNL     1       1.104   3.413  18.106  0.00  0.00    +0.000 OA
ATOM     25  C   UNL     1       1.477   3.591  19.258  0.00  0.00    +0.000 C 
ATOM     26  C   UNL     1       1.107   2.676  20.402  0.00  0.00    +0.000 C 
ATOM     27  C   UNL     1       2.116   3.042  21.468  0.00  0.00    +0.000 C 
ATOM     28  C   UNL     1       2.394   4.509  21.205  0.00  0.00    +0.000 C 
ATOM     29  N   UNL     1       2.251   4.648  19.777  0.00  0.00    +0.000 N 
ENDBRANCH  17  29
ENDBRANCH   1  19
TORSDOF 3
ENDMDL
MODEL 3
REMARK VINA RESULT:      -8.3      1.117      1.126
REMARK  Name = 
REMARK  3 active torsions:
REMARK  status: ('A' for Active; 'I' for Inactive)
REMARK    1  A    between atoms: N_6  and  C_7
REMARK    2  A    between atoms: C_9  and  C_10
REMARK    3  A    between atoms: C_16  and  C_17
REMARK                            x       y       z     vdW  Elec       q    Type
REMARK                         _______ _______ _______ _____ _____    ______ ____
ROOT
ATOM      1  C   UNL     1       1.247   8.867  18.478  0.00  0.00    +0.000 C 
ATOM      2  O   UNL     1       0.671   9.310  17.484  0.00  0.00    +0.000 OA
ATOM      3  N   UNL     1       0.963   9.343  19.749  0.00  0.00    +0.000 N 
ATOM      4  C   UNL     1       1.387   8.838  21.046  0.00  0.00    +0.000 C 
ATOM      5  C   UNL     1       0.202   9.100  21.950  0.00  0.00    +0.000 C 
ATOM      6  C   UNL     1      -0.378  10.405  21.419  0.00  0.00    +0.000 C 
ATOM      7  C   UNL     1      -0.019  10.419  19.922  0.00  0.00    +0.000 C 
ENDROOT
BRANCH   7   8
ATOM      8  C   UNL     1       0.578  11.749  19.523  0.00  0.00    +0.000 A 
ATOM      9  N   UNL     1       1.811  11.917  19.081  0.00  0.00    +0.000 NA
ATOM     10  C   UNL     1       2.045  13.257  18.821  0.00  0.00    +0.000 A 
ATOM     11  C   UNL     1       3.248  13.809  18.334  0.00  0.00    +0.000 A 
ATOM     12  C   UNL     1       3.345  15.186  18.111  0.00  0.00    +0.000 A 
ATOM     13  C   UNL     1       2.260  16.018  18.367  0.00  0.00    +0.000 A 
ATOM     14  C   UNL     1       1.059  15.498  18.857  0.00  0.00    +0.000 A 
ATOM     15  C   UNL     1       0.973  14.113  19.079  0.00  0.00    +0.000 A 
ATOM     16  S   UNL     1      -0.349  13.190  19.679  0.00  0.00    +0.000 S 
ENDBRANCH   7   8
BRANCH   1  19
ATOM     17  C   UNL     1       2.982   5.439  18.570  0.00  0.00    +0.000 A 
ATOM     18  C   UNL     1       2.068   6.485  18.807  0.00  0.00    +0.000 A 
ATOM     19  C   UNL     1       2.226   7.761  18.261  0.00  0.00    +0.000 A 
ATOM     20  C   UNL     1       3.387   8.039  17.534  0.00  0.00    +0.000 A 
ATOM     21  C   UNL     1       4.322   7.032  17.297  0.00  0.00    +0.000 A 
ATOM     22  C   UNL     1       4.114   5.734  17.785  0.00  0.00    +0.000 A 
ATOM     23 CL   UNL     1       5.264   4.559  17.248  0.00  0.00    +0.000 Cl
BRANCH  17  29
ATOM     24  O   UNL     1       2.087   2.882  17.282  0.00  0.00    +0.000 OA
ATOM     25  C   UNL     1       2.166   3.067  18.489  0.00  0.00    +0.000 C 
ATOM     26  C   UNL     1       1.600   2.113  19.515  0.00  0.00    +0.000 C 
ATOM     27  C   UNL     1       2.301   2.530  20.789  0.00  0.00    +0.000 C 
ATOM     28  C   UNL     1       2.533   4.016  20.596  0.00  0.00    +0.000 C 
ATOM     29  N   UNL     1       2.721   4.165  19.175  0.00  0.00    +0.000 N 
ENDBRANCH  17  29
ENDBRANCH   1  19
TORSDOF 3
ENDMDL
MODEL 4
REMARK VINA RESULT:      -8.2      1.065      1.330
REMARK  Name = 
REMARK  3 active torsions:
REMARK  status: ('A' for Active; 'I' for Inactive)
REMARK    1  A    between atoms: N_6  and  C_7
REMARK    2  A    between atoms: C_9  and  C_10
REMARK    3  A    between atoms: C_16  and  C_17
REMARK                            x       y       z     vdW  Elec       q    Type
REMARK                         _______ _______ _______ _____ _____    ______ ____
ROOT
ATOM      1  C   UNL     1       1.782   9.016  18.273  0.00  0.00    +0.000 C 
ATOM      2  O   UNL     1       1.654   9.639  17.218  0.00  0.00    +0.000 OA
ATOM      3  N   UNL     1       1.179   9.447  19.444  0.00  0.00    +0.000 N 
ATOM      4  C   UNL     1       1.056   8.772  20.727  0.00  0.00    +0.000 C 
ATOM      5  C   UNL     1      -0.299   9.206  21.245  0.00  0.00    +0.000 C 
ATOM      6  C   UNL     1      -0.437  10.637  20.741  0.00  0.00    +0.000 C 
ATOM      7  C   UNL     1       0.394  10.686  19.447  0.00  0.00    +0.000 C 
ENDROOT
BRANCH   7   8
ATOM      8  C   UNL     1       1.309  11.890  19.438  0.00  0.00    +0.000 A 
ATOM      9  N   UNL     1       1.841  12.422  18.353  0.00  0.00    +0.000 NA
ATOM     10  C   UNL     1       2.640  13.501  18.694  0.00  0.00    +0.000 A 
ATOM     11  C   UNL     1       3.364  14.312  17.797  0.00  0.00    +0.000 A 
ATOM     12  C   UNL     1       4.130  15.377  18.281  0.00  0.00    +0.000 A 
ATOM     13  C   UNL     1       4.183  15.643  19.645  0.00  0.00    +0.000 A 
ATOM     14  C   UNL     1       3.480  14.850  20.556  0.00  0.00    +0.000 A 
ATOM     15  C   UNL     1       2.715  13.781  20.059  0.00  0.00    +0.000 A 
ATOM     16  S   UNL     1       1.762  12.636  20.920  0.00  0.00    +0.000 S 
ENDBRANCH   7   8
BRANCH   1  19
ATOM     17  C   UNL     1       2.947   5.397  18.843  0.00  0.00    +0.000 A 
ATOM     18  C   UNL     1       2.210   6.597  18.922  0.00  0.00    +0.000 A 
ATOM     19  C   UNL     1       2.573   7.750  18.223  0.00  0.00    +0.000 A 
ATOM     20  C   UNL     1       3.768   7.745  17.498  0.00  0.00    +0.000 A 
ATOM     21  C   UNL     1       4.532   6.581  17.415  0.00  0.00    +0.000 A 
ATOM     22  C   UNL     1       4.116   5.406  18.057  0.00  0.00    +0.000 A 
ATOM     23 CL   UNL     1       5.067   4.005  17.703  0.00  0.00    +0.000 Cl
BRANCH  17  29
ATOM     24  O   UNL     1       1.609   2.894  17.870  0.00  0.00    +0.000 OA
ATOM     25  C   UNL     1       1.737   3.208  19.046  0.00  0.00    +0.000 C 
ATOM     26  C   UNL     1       1.032   2.496  20.177  0.00  0.00    +0.000 C 
ATOM     27  C   UNL     1       1.814   2.938  21.395  0.00  0.00    +0.000 C 
ATOM     28  C   UNL     1       2.292   4.328  21.024  0.00  0.00    +0.000 C 
ATOM     29  N   UNL     1       2.482   4.270  19.596  0.00  0.00    +0.000 N 
ENDBRANCH  17  29
ENDBRANCH   1  19
TORSDOF 3
ENDMDL
MODEL 5
REMARK VINA RESULT:      -8.2      1.123      1.541
REMARK  Name = 
REMARK  3 active torsions:
REMARK  status: ('A' for Active; 'I' for Inactive)
REMARK    1  A    between atoms: N_6  and  C_7
REMARK    2  A    between atoms: C_9  and  C_10
REMARK    3  A    between atoms: C_16  and  C_17
REMARK                            x       y       z     vdW  Elec       q    Type
REMARK                         _______ _______ _______ _____ _____    ______ ____
ROOT
ATOM      1  C   UNL     1       0.647   9.622  19.100  0.00  0.00    +0.000 C 
ATOM      2  O   UNL     1      -0.038  10.082  18.185  0.00  0.00    +0.000 OA
ATOM      3  N   UNL     1       0.515  10.082  20.401  0.00  0.00    +0.000 N 
ATOM      4  C   UNL     1       1.084   9.556  21.632  0.00  0.00    +0.000 C 
ATOM      5  C   UNL     1       0.014   9.810  22.673  0.00  0.00    +0.000 C 
ATOM      6  C   UNL     1      -0.616  11.125  22.230  0.00  0.00    +0.000 C 
ATOM      7  C   UNL     1      -0.434  11.159  20.702  0.00  0.00    +0.000 C 
ENDROOT
BRANCH   7   8
ATOM      8  C   UNL     1       0.122  12.493  20.254  0.00  0.00    +0.000 A 
ATOM      9  N   UNL     1      -0.578  13.430  19.641  0.00  0.00    +0.000 NA
ATOM     10  C   UNL     1       0.231  14.517  19.355  0.00  0.00    +0.000 A 
ATOM     11  C   UNL     1      -0.173  15.703  18.710  0.00  0.00    +0.000 A 
ATOM     12  C   UNL     1       0.753  16.729  18.488  0.00  0.00    +0.000 A 
ATOM     13  C   UNL     1       2.073  16.585  18.902  0.00  0.00    +0.000 A 
ATOM     14  C   UNL     1       2.501  15.417  19.539  0.00  0.00    +0.000 A 
ATOM     15  C   UNL     1       1.563  14.392  19.754  0.00  0.00    +0.000 A 
ATOM     16  S   UNL     1       1.786  12.854  20.490  0.00  0.00    +0.000 S 
ENDBRANCH   7   8
BRANCH   1  19
ATOM     17  C   UNL     1       2.375   6.192  18.961  0.00  0.00    +0.000 A 
ATOM     18  C   UNL     1       1.501   7.240  19.317  0.00  0.00    +0.000 A 
ATOM     19  C   UNL     1       1.587   8.515  18.755  0.00  0.00    +0.000 A 
ATOM     20  C   UNL     1       2.642   8.792  17.881  0.00  0.00    +0.000 A 
ATOM     21  C   UNL     1       3.537   7.784  17.522  0.00  0.00    +0.000 A 
ATOM     22  C   UNL     1       3.393   6.486  18.033  0.00  0.00    +0.000 A 
ATOM     23 CL   UNL     1       4.461   5.310  17.349  0.00  0.00    +0.000 Cl
BRANCH  17  29
ATOM     24  O   UNL     1       1.238   3.659  17.826  0.00  0.00    +0.000 OA
ATOM     25  C   UNL     1       1.515   3.834  19.004  0.00  0.00    +0.000 C 
ATOM     26  C   UNL     1       1.109   2.883  20.105  0.00  0.00    +0.000 C 
ATOM     27  C   UNL     1       2.016   3.280  21.249  0.00  0.00    +0.000 C 
ATOM     28  C   UNL     1       2.238   4.763  21.027  0.00  0.00    +0.000 C 
ATOM     29  N   UNL     1       2.195   4.919  19.594  0.00  0.00    +0.000 N 
ENDBRANCH  17  29
ENDBRANCH   1  19
TORSDOF 3
ENDMDL
MODEL 6
REMARK VINA RESULT:      -8.1      1.123      1.286
REMARK  Name = 
REMARK  3 active torsions:
REMARK  status: ('A' for Active; 'I' for Inactive)
REMARK    1  A    between atoms: N_6  and  C_7
REMARK    2  A    between atoms: C_9  and  C_10
REMARK    3  A    between atoms: C_16  and  C_17
REMARK                            x       y       z     vdW  Elec       q    Type
REMARK                         _______ _______ _______ _____ _____    ______ ____
ROOT
ATOM      1  C   UNL     1       1.335   8.969  18.611  0.00  0.00    +0.000 C 
ATOM      2  O   UNL     1       0.839   9.615  17.687  0.00  0.00    +0.000 OA
ATOM      3  N   UNL     1       1.025   9.246  19.933  0.00  0.00    +0.000 N 
ATOM      4  C   UNL     1       1.352   8.499  21.139  0.00  0.00    +0.000 C 
ATOM      5  C   UNL     1       0.146   8.696  22.033  0.00  0.00    +0.000 C 
ATOM      6  C   UNL     1      -0.316  10.111  21.712  0.00  0.00    +0.000 C 
ATOM      7  C   UNL     1       0.113  10.349  20.253  0.00  0.00    +0.000 C 
ENDROOT
BRANCH   7   8
ATOM      8  C   UNL     1       0.819  11.678  20.108  0.00  0.00    +0.000 A 
ATOM      9  N   UNL     1       1.804  12.094  20.883  0.00  0.00    +0.000 NA
ATOM     10  C   UNL     1       2.216  13.358  20.492  0.00  0.00    +0.000 A 
ATOM     11  C   UNL     1       3.246  14.114  21.087  0.00  0.00    +0.000 A 
ATOM     12  C   UNL     1       3.562  15.381  20.585  0.00  0.00    +0.000 A 
ATOM     13  C   UNL     1       2.865  15.901  19.499  0.00  0.00    +0.000 A 
ATOM     14  C   UNL     1       1.835  15.174  18.895  0.00  0.00    +0.000 A 
ATOM     15  C   UNL     1       1.524  13.903  19.410  0.00  0.00    +0.000 A 
ATOM     16  S   UNL     1       0.319  12.790  18.895  0.00  0.00    +0.000 S 
ENDBRANCH   7   8
BRANCH   1  19
ATOM     17  C   UNL     1       2.844   5.456  18.216  0.00  0.00    +0.000 A 
ATOM     18  C   UNL     1       1.996   6.515  18.596  0.00  0.00    +0.000 A 
ATOM     19  C   UNL     1       2.244   7.843  18.242  0.00  0.00    +0.000 A 
ATOM     20  C   UNL     1       3.433   8.146  17.571  0.00  0.00    +0.000 A 
ATOM     21  C   UNL     1       4.305   7.124  17.198  0.00  0.00    +0.000 A 
ATOM     22  C   UNL     1       4.006   5.786  17.490  0.00  0.00    +0.000 A 
ATOM     23 CL   UNL     1       5.087   4.627  16.796  0.00  0.00    +0.000 Cl
BRANCH  17  29
ATOM     24  O   UNL     1       4.461   3.467  19.775  0.00  0.00    +0.000 OA
ATOM     25  C   UNL     1       3.389   3.228  19.236  0.00  0.00    +0.000 C 
ATOM     26  C   UNL     1       2.832   1.833  19.077  0.00  0.00    +0.000 C 
ATOM     27  C   UNL     1       1.371   2.085  18.773  0.00  0.00    +0.000 C 
ATOM     28  C   UNL     1       1.384   3.415  18.045  0.00  0.00    +0.000 C 
ATOM     29  N   UNL     1       2.492   4.129  18.628  0.00  0.00    +0.000 N 
ENDBRANCH  17  29
ENDBRANCH   1  19
TORSDOF 3
ENDMDL
MODEL 7
REMARK VINA RESULT:      -8.0      2.707      4.261
REMARK  Name = 
REMARK  3 active torsions:
REMARK  status: ('A' for Active; 'I' for Inactive)
REMARK    1  A    between atoms: N_6  and  C_7
REMARK    2  A    between atoms: C_9  and  C_10
REMARK    3  A    between atoms: C_16  and  C_17
REMARK                            x       y       z     vdW  Elec       q    Type
REMARK                         _______ _______ _______ _____ _____    ______ ____
ROOT
ATOM      1  C   UNL     1       1.103   9.404  19.578  0.00  0.00    +0.000 C 
ATOM      2  O   UNL     1       0.407   9.235  20.580  0.00  0.00    +0.000 OA
ATOM      3  N   UNL     1       1.216  10.648  18.978  0.00  0.00    +0.000 N 
ATOM      4  C   UNL     1       2.112  11.091  17.920  0.00  0.00    +0.000 C 
ATOM      5  C   UNL     1       2.423  12.529  18.276  0.00  0.00    +0.000 C 
ATOM      6  C   UNL     1       1.128  13.036  18.900  0.00  0.00    +0.000 C 
ATOM      7  C   UNL     1       0.471  11.790  19.519  0.00  0.00    +0.000 C 
ENDROOT
BRANCH   7   8
ATOM      8  C   UNL     1      -0.988  11.700  19.132  0.00  0.00    +0.000 A 
ATOM      9  N   UNL     1      -1.979  12.260  19.801  0.00  0.00    +0.000 NA
ATOM     10  C   UNL     1      -3.189  11.973  19.190  0.00  0.00    +0.000 A 
ATOM     11  C   UNL     1      -4.459  12.406  19.622  0.00  0.00    +0.000 A 
ATOM     12  C   UNL     1      -5.602  12.044  18.902  0.00  0.00    +0.000 A 
ATOM     13  C   UNL     1      -5.495  11.259  17.760  0.00  0.00    +0.000 A 
ATOM     14  C   UNL     1      -4.248  10.812  17.313  0.00  0.00    +0.000 A 
ATOM     15  C   UNL     1      -3.106  11.179  18.045  0.00  0.00    +0.000 A 
ATOM     16  S   UNL     1      -1.458  10.780  17.757  0.00  0.00    +0.000 S 
ENDBRANCH   7   8
BRANCH   1  19
ATOM     17  C   UNL     1       2.439   5.830  19.116  0.00  0.00    +0.000 A 
ATOM     18  C   UNL     1       1.744   6.946  19.625  0.00  0.00    +0.000 A 
ATOM     19  C   UNL     1       1.859   8.222  19.068  0.00  0.00    +0.000 A 
ATOM     20  C   UNL     1       2.775   8.419  18.030  0.00  0.00    +0.000 A 
ATOM     21  C   UNL     1       3.493   7.340  17.516  0.00  0.00    +0.000 A 
ATOM     22  C   UNL     1       3.310   6.049  18.032  0.00  0.00    +0.000 A 
ATOM     23 CL   UNL     1       4.128   4.794  17.166  0.00  0.00    +0.000 Cl
BRANCH  17  29
ATOM     24  O   UNL     1       1.127   3.350  18.053  0.00  0.00    +0.000 OA
ATOM     25  C   UNL     1       1.484   3.510  19.212  0.00  0.00    +0.000 C 
ATOM     26  C   UNL     1       1.105   2.574  20.336  0.00  0.00    +0.000 C 
ATOM     27  C   UNL     1       2.096   2.929  21.422  0.00  0.00    +0.000 C 
ATOM     28  C   UNL     1       2.368   4.402  21.186  0.00  0.00    +0.000 C 
ATOM     29  N   UNL     1       2.243   4.563  19.760  0.00  0.00    +0.000 N 
ENDBRANCH  17  29
ENDBRANCH   1  19
TORSDOF 3
ENDMDL
MODEL 8
REMARK VINA RESULT:      -8.0      1.862      3.031
REMARK  Name = 
REMARK  3 active torsions:
REMARK  status: ('A' for Active; 'I' for Inactive)
REMARK    1  A    between atoms: N_6  and  C_7
REMARK    2  A    between atoms: C_9  and  C_10
REMARK    3  A    between atoms: C_16  and  C_17
REMARK                            x       y       z     vdW  Elec       q    Type
REMARK                         _______ _______ _______ _____ _____    ______ ____
ROOT
ATOM      1  C   UNL     1       1.240   8.813  19.695  0.00  0.00    +0.000 C 
ATOM      2  O   UNL     1       0.929   9.261  18.590  0.00  0.00    +0.000 OA
ATOM      3  N   UNL     1       0.919   9.486  20.863  0.00  0.00    +0.000 N 
ATOM      4  C   UNL     1       1.029   9.048  22.247  0.00  0.00    +0.000 C 
ATOM      5  C   UNL     1      -0.162   9.683  22.932  0.00  0.00    +0.000 C 
ATOM      6  C   UNL     1      -0.323  11.018  22.214  0.00  0.00    +0.000 C 
ATOM      7  C   UNL     1       0.222  10.774  20.795  0.00  0.00    +0.000 C 
ENDROOT
BRANCH   7   8
ATOM      8  C   UNL     1       1.179  11.872  20.390  0.00  0.00    +0.000 A 
ATOM      9  N   UNL     1       2.011  12.486  21.212  0.00  0.00    +0.000 NA
ATOM     10  C   UNL     1       2.734  13.448  20.527  0.00  0.00    +0.000 A 
ATOM     11  C   UNL     1       3.715  14.296  21.079  0.00  0.00    +0.000 A 
ATOM     12  C   UNL     1       4.374  15.225  20.266  0.00  0.00    +0.000 A 
ATOM     13  C   UNL     1       4.067  15.318  18.913  0.00  0.00    +0.000 A 
ATOM     14  C   UNL     1       3.093  14.493  18.342  0.00  0.00    +0.000 A 
ATOM     15  C   UNL     1       2.436  13.566  19.169  0.00  0.00    +0.000 A 
ATOM     16  S   UNL     1       1.201  12.438  18.766  0.00  0.00    +0.000 S 
ENDBRANCH   7   8
BRANCH   1  19
ATOM     17  C   UNL     1       3.706   5.953  18.981  0.00  0.00    +0.000 A 
ATOM     18  C   UNL     1       3.040   7.194  18.924  0.00  0.00    +0.000 A 
ATOM     19  C   UNL     1       1.932   7.491  19.722  0.00  0.00    +0.000 A 
ATOM     20  C   UNL     1       1.403   6.483  20.534  0.00  0.00    +0.000 A 
ATOM     21  C   UNL     1       2.025   5.237  20.598  0.00  0.00    +0.000 A 
ATOM     22  C   UNL     1       3.183   4.977  19.852  0.00  0.00    +0.000 A 
ATOM     23 CL   UNL     1       3.941   3.457  20.184  0.00  0.00    +0.000 Cl
BRANCH  17  29
ATOM     24  O   UNL     1       6.564   5.413  19.714  0.00  0.00    +0.000 OA
ATOM     25  C   UNL     1       6.166   5.650  18.582  0.00  0.00    +0.000 C 
ATOM     26  C   UNL     1       7.086   5.937  17.419  0.00  0.00    +0.000 C 
ATOM     27  C   UNL     1       6.189   5.734  16.218  0.00  0.00    +0.000 C 
ATOM     28  C   UNL     1       4.817   6.126  16.730  0.00  0.00    +0.000 C 
ATOM     29  N   UNL     1       4.837   5.755  18.123  0.00  0.00    +0.000 N 
ENDBRANCH  17  29
ENDBRANCH   1  19
TORSDOF 3
ENDMDL
MODEL 9
REMARK VINA RESULT:      -7.9      1.693      1.851
REMARK  Name = 
REMARK  3 active torsions:
REMARK  status: ('A' for Active; 'I' for Inactive)
REMARK    1  A    between atoms: N_6  and  C_7
REMARK    2  A    between atoms: C_9  and  C_10
REMARK    3  A    between atoms: C_16  and  C_17
REMARK                            x       y       z     vdW  Elec       q    Type
REMARK                         _______ _______ _______ _____ _____    ______ ____
ROOT
ATOM      1  C   UNL     1       1.381   8.680  18.336  0.00  0.00    +0.000 C 
ATOM      2  O   UNL     1       0.718   9.119  17.396  0.00  0.00    +0.000 OA
ATOM      3  N   UNL     1       1.136   9.079  19.641  0.00  0.00    +0.000 N 
ATOM      4  C   UNL     1       1.671   8.554  20.888  0.00  0.00    +0.000 C 
ATOM      5  C   UNL     1       0.523   8.686  21.867  0.00  0.00    +0.000 C 
ATOM      6  C   UNL     1      -0.181   9.964  21.429  0.00  0.00    +0.000 C 
ATOM      7  C   UNL     1       0.089  10.068  19.917  0.00  0.00    +0.000 C 
ENDROOT
BRANCH   7   8
ATOM      8  C   UNL     1       0.562  11.456  19.548  0.00  0.00    +0.000 A 
ATOM      9  N   UNL     1       1.781  11.749  19.131  0.00  0.00    +0.000 NA
ATOM     10  C   UNL     1       1.889  13.109  18.895  0.00  0.00    +0.000 A 
ATOM     11  C   UNL     1       3.041  13.781  18.439  0.00  0.00    +0.000 A 
ATOM     12  C   UNL     1       3.009  15.165  18.237  0.00  0.00    +0.000 A 
ATOM     13  C   UNL     1       1.844  15.885  18.484  0.00  0.00    +0.000 A 
ATOM     14  C   UNL     1       0.690  15.243  18.942  0.00  0.00    +0.000 A 
ATOM     15  C   UNL     1       0.735  13.853  19.144  0.00  0.00    +0.000 A 
ATOM     16  S   UNL     1      -0.502  12.798  19.705  0.00  0.00    +0.000 S 
ENDBRANCH   7   8
BRANCH   1  19
ATOM     17  C   UNL     1       3.273   5.351  18.000  0.00  0.00    +0.000 A 
ATOM     18  C   UNL     1       2.295   6.309  18.336  0.00  0.00    +0.000 A 
ATOM     19  C   UNL     1       2.425   7.662  18.016  0.00  0.00    +0.000 A 
ATOM     20  C   UNL     1       3.617   8.099  17.429  0.00  0.00    +0.000 A 
ATOM     21  C   UNL     1       4.613   7.180  17.102  0.00  0.00    +0.000 A 
ATOM     22  C   UNL     1       4.438   5.813  17.357  0.00  0.00    +0.000 A 
ATOM     23 CL   UNL     1       5.677   4.786  16.723  0.00  0.00    +0.000 Cl
BRANCH  17  29
ATOM     24  O   UNL     1       4.980   3.514  19.647  0.00  0.00    +0.000 OA
ATOM     25  C   UNL     1       3.979   3.174  19.032  0.00  0.00    +0.000 C 
ATOM     26  C   UNL     1       3.585   1.731  18.818  0.00  0.00    +0.000 C 
ATOM     27  C   UNL     1       2.130   1.834  18.415  0.00  0.00    +0.000 C 
ATOM     28  C   UNL     1       2.052   3.171  17.704  0.00  0.00    +0.000 C 
ATOM     29  N   UNL     1       3.036   3.987  18.371  0.00  0.00    +0.000 N 
ENDBRANCH  17  29
ENDBRANCH   1  19
TORSDOF 3
ENDMDL
