MODEL 1
REMARK VINA RESULT:      -6.5      0.000      0.000
REMARK  Name = 
REMARK  10 active torsions:
REMARK  status: ('A' for Active; 'I' for Inactive)
REMARK    1  A    between atoms: C_1  and  C_2
REMARK    2  A    between atoms: C_2  and  C_3
REMARK    3  A    between atoms: C_3  and  N_4
REMARK    4  A    between atoms: N_4  and  C_5
REMARK    5  A    between atoms: N_4  and  C_10
REMARK    6  A    between atoms: C_5  and  C_6
REMARK    7  A    between atoms: C_6  and  C_7
REMARK    8  A    between atoms: C_10  and  C_11
REMARK    9  A    between atoms: N_14  and  C_15
REMARK   10  A    between atoms: C_25  and  C_26
REMARK                            x       y       z     vdW  Elec       q    Type
REMARK                         _______ _______ _______ _____ _____    ______ ____
ROOT
ATOM      1  C   UNL     1       1.771   8.402  19.345  0.00  0.00    +0.000 A 
ATOM      2  S   UNL     1       2.118   9.294  17.918  0.00  0.00    +0.000 S 
ATOM      3  C   UNL     1       1.335  10.673  18.579  0.00  0.00    +0.000 A 
ATOM      4  N   UNL     1       1.351  11.849  17.906  0.00  0.00    +0.000 N 
ATOM      5  N   UNL     1       0.757  10.462  19.737  0.00  0.00    +0.000 NA
ATOM      6  C   UNL     1       1.027   9.176  20.222  0.00  0.00    +0.000 A 
ATOM      7  H   UNL     1       1.173  11.792  16.908  0.00  0.00    +0.000 HD
ENDROOT
BRANCH   4   8
ATOM      8  C   UNL     1       1.048  13.112  18.474  0.00  0.00    +0.000 A 
ATOM      9  C   UNL     1       2.030  14.052  18.863  0.00  0.00    +0.000 A 
ATOM     10 CL   UNL     1       3.713  13.889  18.457  0.00  0.00    +0.000 Cl
ATOM     11  C   UNL     1       1.677  15.255  19.489  0.00  0.00    +0.000 A 
ATOM     12  C   UNL     1       0.338  15.550  19.708  0.00  0.00    +0.000 A 
ATOM     13 CL   UNL     1      -0.089  17.041  20.455  0.00  0.00    +0.000 Cl
ATOM     14  C   UNL     1      -0.658  14.674  19.301  0.00  0.00    +0.000 A 
ATOM     15  C   UNL     1      -0.301  13.465  18.696  0.00  0.00    +0.000 A 
ATOM     16 CL   UNL     1      -1.583  12.406  18.196  0.00  0.00    +0.000 Cl
ENDBRANCH   4   8
BRANCH   6  17
ATOM     17  C   UNL     1       0.525   8.790  21.588  0.00  0.00    +0.000 C 
ATOM     18  F   UNL     1      -0.214   9.755  22.195  0.00  0.00    +0.000 F 
ATOM     19  F   UNL     1      -0.280   7.693  21.528  0.00  0.00    +0.000 F 
ATOM     20  F   UNL     1       1.542   8.479  22.435  0.00  0.00    +0.000 F 
ENDBRANCH   6  17
BRANCH   1  21
ATOM     21  C   UNL     1       2.274   6.997  19.500  0.00  0.00    +0.000 C 
BRANCH  21  22
ATOM     22  N   UNL     1       2.586   6.345  18.207  0.00  0.00    +0.000 NA
BRANCH  22  23
ATOM     23  C   UNL     1       4.050   6.350  17.972  0.00  0.00    +0.000 C 
BRANCH  23  25
ATOM     24  C   UNL     1       5.942   5.191  19.243  0.00  0.00    +0.000 C 
ATOM     25  C   UNL     1       4.802   5.041  18.248  0.00  0.00    +0.000 C 
ENDBRANCH  23  25
ENDBRANCH  22  23
BRANCH  22  26
ATOM     26  C   UNL     1       2.046   4.964  18.185  0.00  0.00    +0.000 C 
BRANCH  26  27
ATOM     27  C   UNL     1       1.284   4.542  19.460  0.00  0.00    +0.000 C 
BRANCH  27  28
ATOM     28  C   UNL     1       1.982   3.429  20.198  0.00  0.00    +0.000 C 
ATOM     29  C   UNL     1       2.416   3.681  21.621  0.00  0.00    +0.000 C 
ATOM     30  C   UNL     1       1.314   2.702  21.337  0.00  0.00    +0.000 C 
ENDBRANCH  27  28
ENDBRANCH  26  27
ENDBRANCH  22  26
ENDBRANCH  21  22
ENDBRANCH   1  21
TORSDOF 9
ENDMDL
MODEL 2
REMARK VINA RESULT:      -6.5      0.940      1.370
REMARK  Name = 
REMARK  10 active torsions:
REMARK  status: ('A' for Active; 'I' for Inactive)
REMARK    1  A    between atoms: C_1  and  C_2
REMARK    2  A    between atoms: C_2  and  C_3
REMARK    3  A    between atoms: C_3  and  N_4
REMARK    4  A    between atoms: N_4  and  C_5
REMARK    5  A    between atoms: N_4  and  C_10
REMARK    6  A    between atoms: C_5  and  C_6
REMARK    7  A    between atoms: C_6  and  C_7
REMARK    8  A    between atoms: C_10  and  C_11
REMARK    9  A    between atoms: N_14  and  C_15
REMARK   10  A    between atoms: C_25  and  C_26
REMARK                            x       y       z     vdW  Elec       q    Type
REMARK                         _______ _______ _______ _____ _____    ______ ____
ROOT
ATOM      1  C   UNL     1       1.991   8.193  19.261  0.00  0.00    +0.000 A 
ATOM      2  S   UNL     1       2.136   9.188  17.868  0.00  0.00    +0.000 S 
ATOM      3  C   UNL     1       1.266  10.440  18.660  0.00  0.00    +0.000 A 
ATOM      4  N   UNL     1       1.111  11.643  18.057  0.00  0.00    +0.000 N 
ATOM      5  N   UNL     1       0.802  10.110  19.842  0.00  0.00    +0.000 NA
ATOM      6  C   UNL     1       1.238   8.838  20.231  0.00  0.00    +0.000 A 
ATOM      7  H   UNL     1       0.865  11.618  17.072  0.00  0.00    +0.000 HD
ENDROOT
BRANCH   4   8
ATOM      8  C   UNL     1       0.722  12.836  18.716  0.00  0.00    +0.000 A 
ATOM      9  C   UNL     1       1.639  13.805  19.187  0.00  0.00    +0.000 A 
ATOM     10 CL   UNL     1       3.330  13.784  18.789  0.00  0.00    +0.000 Cl
ATOM     11  C   UNL     1       1.203  14.931  19.900  0.00  0.00    +0.000 A 
ATOM     12  C   UNL     1      -0.153  15.121  20.125  0.00  0.00    +0.000 A 
ATOM     13 CL   UNL     1      -0.682  16.519  20.980  0.00  0.00    +0.000 Cl
ATOM     14  C   UNL     1      -1.087  14.217  19.641  0.00  0.00    +0.000 A 
ATOM     15  C   UNL     1      -0.648  13.083  18.949  0.00  0.00    +0.000 A 
ATOM     16 CL   UNL     1      -1.855  11.985  18.355  0.00  0.00    +0.000 Cl
ENDBRANCH   4   8
BRANCH   6  17
ATOM     17  C   UNL     1       0.883   8.332  21.604  0.00  0.00    +0.000 C 
ATOM     18  F   UNL     1       1.154   7.014  21.792  0.00  0.00    +0.000 F 
ATOM     19  F   UNL     1       1.580   8.992  22.570  0.00  0.00    +0.000 F 
ATOM     20  F   UNL     1      -0.435   8.508  21.887  0.00  0.00    +0.000 F 
ENDBRANCH   6  17
BRANCH   1  21
ATOM     21  C   UNL     1       2.647   6.844  19.300  0.00  0.00    +0.000 C 
BRANCH  21  22
ATOM     22  N   UNL     1       2.790   6.229  17.960  0.00  0.00    +0.000 NA
BRANCH  22  23
ATOM     23  C   UNL     1       4.209   5.886  17.704  0.00  0.00    +0.000 C 
BRANCH  23  25
ATOM     24  C   UNL     1       5.352   5.650  15.429  0.00  0.00    +0.000 C 
ATOM     25  C   UNL     1       4.895   6.596  16.528  0.00  0.00    +0.000 C 
ENDBRANCH  23  25
ENDBRANCH  22  23
BRANCH  22  26
ATOM     26  C   UNL     1       1.922   5.031  17.851  0.00  0.00    +0.000 C 
BRANCH  26  27
ATOM     27  C   UNL     1       2.564   3.715  18.340  0.00  0.00    +0.000 C 
BRANCH  27  28
ATOM     28  C   UNL     1       1.668   2.964  19.291  0.00  0.00    +0.000 C 
ATOM     29  C   UNL     1       2.145   2.760  20.708  0.00  0.00    +0.000 C 
ATOM     30  C   UNL     1       0.976   3.661  20.434  0.00  0.00    +0.000 C 
ENDBRANCH  27  28
ENDBRANCH  26  27
ENDBRANCH  22  26
ENDBRANCH  21  22
ENDBRANCH   1  21
TORSDOF 9
ENDMDL
MODEL 3
REMARK VINA RESULT:      -6.4      0.965      1.404
REMARK  Name = 
REMARK  10 active torsions:
REMARK  status: ('A' for Active; 'I' for Inactive)
REMARK    1  A    between atoms: C_1  and  C_2
REMARK    2  A    between atoms: C_2  and  C_3
REMARK    3  A    between atoms: C_3  and  N_4
REMARK    4  A    between atoms: N_4  and  C_5
REMARK    5  A    between atoms: N_4  and  C_10
REMARK    6  A    between atoms: C_5  and  C_6
REMARK    7  A    between atoms: C_6  and  C_7
REMARK    8  A    between atoms: C_10  and  C_11
REMARK    9  A    between atoms: N_14  and  C_15
REMARK   10  A    between atoms: C_25  and  C_26
REMARK                            x       y       z     vdW  Elec       q    Type
REMARK                         _______ _______ _______ _____ _____    ______ ____
ROOT
ATOM      1  C   UNL     1       1.858   8.357  19.347  0.00  0.00    +0.000 A 
ATOM      2  S   UNL     1       2.227   9.258  17.931  0.00  0.00    +0.000 S 
ATOM      3  C   UNL     1       1.418  10.627  18.579  0.00  0.00    +0.000 A 
ATOM      4  N   UNL     1       1.437  11.805  17.911  0.00  0.00    +0.000 N 
ATOM      5  N   UNL     1       0.818  10.407  19.725  0.00  0.00    +0.000 NA
ATOM      6  C   UNL     1       1.089   9.122  20.211  0.00  0.00    +0.000 A 
ATOM      7  H   UNL     1       1.280  11.750  16.909  0.00  0.00    +0.000 HD
ENDROOT
BRANCH   4   8
ATOM      8  C   UNL     1       1.111  13.064  18.476  0.00  0.00    +0.000 A 
ATOM      9  C   UNL     1       2.077  14.010  18.890  0.00  0.00    +0.000 A 
ATOM     10 CL   UNL     1       3.768  13.864  18.520  0.00  0.00    +0.000 Cl
ATOM     11  C   UNL     1       1.699  15.209  19.512  0.00  0.00    +0.000 A 
ATOM     12  C   UNL     1       0.354  15.492  19.702  0.00  0.00    +0.000 A 
ATOM     13 CL   UNL     1      -0.103  16.976  20.445  0.00  0.00    +0.000 Cl
ATOM     14  C   UNL     1      -0.626  14.608  19.271  0.00  0.00    +0.000 A 
ATOM     15  C   UNL     1      -0.246  13.404  18.670  0.00  0.00    +0.000 A 
ATOM     16 CL   UNL     1      -1.507  12.336  18.138  0.00  0.00    +0.000 Cl
ENDBRANCH   4   8
BRANCH   6  17
ATOM     17  C   UNL     1       0.563   8.727  21.565  0.00  0.00    +0.000 C 
ATOM     18  F   UNL     1       1.529   8.583  22.510  0.00  0.00    +0.000 F 
ATOM     19  F   UNL     1      -0.294   9.664  22.056  0.00  0.00    +0.000 F 
ATOM     20  F   UNL     1      -0.125   7.556  21.523  0.00  0.00    +0.000 F 
ENDBRANCH   6  17
BRANCH   1  21
ATOM     21  C   UNL     1       2.371   6.957  19.509  0.00  0.00    +0.000 C 
BRANCH  21  22
ATOM     22  N   UNL     1       2.709   6.310  18.220  0.00  0.00    +0.000 NA
BRANCH  22  23
ATOM     23  C   UNL     1       4.164   6.034  18.152  0.00  0.00    +0.000 C 
BRANCH  23  25
ATOM     24  C   UNL     1       6.454   6.798  17.311  0.00  0.00    +0.000 C 
ATOM     25  C   UNL     1       4.957   6.751  17.051  0.00  0.00    +0.000 C 
ENDBRANCH  23  25
ENDBRANCH  22  23
BRANCH  22  26
ATOM     26  C   UNL     1       1.920   5.064  18.049  0.00  0.00    +0.000 C 
BRANCH  26  27
ATOM     27  C   UNL     1       2.686   3.893  17.398  0.00  0.00    +0.000 C 
BRANCH  27  28
ATOM     28  C   UNL     1       2.231   2.555  17.923  0.00  0.00    +0.000 C 
ATOM     29  C   UNL     1       3.277   1.604  18.450  0.00  0.00    +0.000 C 
ATOM     30  C   UNL     1       2.288   2.227  19.393  0.00  0.00    +0.000 C 
ENDBRANCH  27  28
ENDBRANCH  26  27
ENDBRANCH  22  26
ENDBRANCH  21  22
ENDBRANCH   1  21
TORSDOF 9
ENDMDL
MODEL 4
REMARK VINA RESULT:      -6.4      3.949      8.285
REMARK  Name = 
REMARK  10 active torsions:
REMARK  status: ('A' for Active; 'I' for Inactive)
REMARK    1  A    between atoms: C_1  and  C_2
REMARK    2  A    between atoms: C_2  and  C_3
REMARK    3  A    between atoms: C_3  and  N_4
REMARK    4  A    between atoms: N_4  and  C_5
REMARK    5  A    between atoms: N_4  and  C_10
REMARK    6  A    between atoms: C_5  and  C_6
REMARK    7  A    between atoms: C_6  and  C_7
REMARK    8  A    between atoms: C_10  and  C_11
REMARK    9  A    between atoms: N_14  and  C_15
REMARK   10  A    between atoms: C_25  and  C_26
REMARK                            x       y       z     vdW  Elec       q    Type
REMARK                         _______ _______ _______ _____ _____    ______ ____
ROOT
ATOM      1  C   UNL     1       1.158   9.631  19.019  0.00  0.00    +0.000 A 
ATOM      2  S   UNL     1       1.952   9.137  17.578  0.00  0.00    +0.000 S 
ATOM      3  C   UNL     1       2.586   7.761  18.387  0.00  0.00    +0.000 A 
ATOM      4  N   UNL     1       3.294   6.835  17.697  0.00  0.00    +0.000 N 
ATOM      5  N   UNL     1       2.320   7.720  19.671  0.00  0.00    +0.000 NA
ATOM      6  C   UNL     1       1.465   8.761  20.055  0.00  0.00    +0.000 A 
ATOM      7  H   UNL     1       3.977   7.198  17.039  0.00  0.00    +0.000 HD
ENDROOT
BRANCH   4   8
ATOM      8  C   UNL     1       3.576   5.523  18.154  0.00  0.00    +0.000 A 
ATOM      9  C   UNL     1       2.608   4.496  18.231  0.00  0.00    +0.000 A 
ATOM     10 CL   UNL     1       1.021   4.632  17.533  0.00  0.00    +0.000 Cl
ATOM     11  C   UNL     1       2.924   3.237  18.762  0.00  0.00    +0.000 A 
ATOM     12  C   UNL     1       4.217   2.978  19.195  0.00  0.00    +0.000 A 
ATOM     13 CL   UNL     1       4.604   1.423  19.824  0.00  0.00    +0.000 Cl
ATOM     14  C   UNL     1       5.207   3.946  19.096  0.00  0.00    +0.000 A 
ATOM     15  C   UNL     1       4.883   5.207  18.585  0.00  0.00    +0.000 A 
ATOM     16 CL   UNL     1       6.156   6.381  18.472  0.00  0.00    +0.000 Cl
ENDBRANCH   4   8
BRANCH   6  17
ATOM     17  C   UNL     1       0.972   8.815  21.476  0.00  0.00    +0.000 C 
ATOM     18  F   UNL     1      -0.339   8.486  21.616  0.00  0.00    +0.000 F 
ATOM     19  F   UNL     1       1.656   7.946  22.271  0.00  0.00    +0.000 F 
ATOM     20  F   UNL     1       1.130  10.049  22.024  0.00  0.00    +0.000 F 
ENDBRANCH   6  17
BRANCH   1  21
ATOM     21  C   UNL     1       0.273  10.842  19.019  0.00  0.00    +0.000 C 
BRANCH  21  22
ATOM     22  N   UNL     1      -1.108  10.553  19.469  0.00  0.00    +0.000 NA
BRANCH  22  23
ATOM     23  C   UNL     1      -1.424  11.335  20.688  0.00  0.00    +0.000 C 
BRANCH  23  25
ATOM     24  C   UNL     1      -0.756  13.138  22.374  0.00  0.00    +0.000 C 
ATOM     25  C   UNL     1      -0.511  12.529  21.002  0.00  0.00    +0.000 C 
ENDBRANCH  23  25
ENDBRANCH  22  23
BRANCH  22  26
ATOM     26  C   UNL     1      -2.074  10.845  18.381  0.00  0.00    +0.000 C 
BRANCH  26  27
ATOM     27  C   UNL     1      -1.841  10.057  17.074  0.00  0.00    +0.000 C 
BRANCH  27  28
ATOM     28  C   UNL     1      -2.480  10.728  15.885  0.00  0.00    +0.000 C 
ATOM     29  C   UNL     1      -3.152   9.857  14.852  0.00  0.00    +0.000 C 
ATOM     30  C   UNL     1      -3.977  10.768  15.715  0.00  0.00    +0.000 C 
ENDBRANCH  27  28
ENDBRANCH  26  27
ENDBRANCH  22  26
ENDBRANCH  21  22
ENDBRANCH   1  21
TORSDOF 9
ENDMDL
MODEL 5
REMARK VINA RESULT:      -6.3      0.858      1.967
REMARK  Name = 
REMARK  10 active torsions:
REMARK  status: ('A' for Active; 'I' for Inactive)
REMARK    1  A    between atoms: C_1  and  C_2
REMARK    2  A    between atoms: C_2  and  C_3
REMARK    3  A    between atoms: C_3  and  N_4
REMARK    4  A    between atoms: N_4  and  C_5
REMARK    5  A    between atoms: N_4  and  C_10
REMARK    6  A    between atoms: C_5  and  C_6
REMARK    7  A    between atoms: C_6  and  C_7
REMARK    8  A    between atoms: C_10  and  C_11
REMARK    9  A    between atoms: N_14  and  C_15
REMARK   10  A    between atoms: C_25  and  C_26
REMARK                            x       y       z     vdW  Elec       q    Type
REMARK                         _______ _______ _______ _____ _____    ______ ____
ROOT
ATOM      1  C   UNL     1       2.055   8.042  19.178  0.00  0.00    +0.000 A 
ATOM      2  S   UNL     1       2.154   9.053  17.792  0.00  0.00    +0.000 S 
ATOM      3  C   UNL     1       1.233  10.261  18.594  0.00  0.00    +0.000 A 
ATOM      4  N   UNL     1       1.024  11.459  18.000  0.00  0.00    +0.000 N 
ATOM      5  N   UNL     1       0.787   9.903  19.775  0.00  0.00    +0.000 NA
ATOM      6  C   UNL     1       1.278   8.647  20.154  0.00  0.00    +0.000 A 
ATOM      7  H   UNL     1       0.777  11.431  17.016  0.00  0.00    +0.000 HD
ENDROOT
BRANCH   4   8
ATOM      8  C   UNL     1       0.586  12.631  18.669  0.00  0.00    +0.000 A 
ATOM      9  C   UNL     1      -0.752  12.849  19.069  0.00  0.00    +0.000 A 
ATOM     10 CL   UNL     1      -1.970  11.609  19.029  0.00  0.00    +0.000 Cl
ATOM     11  C   UNL     1      -1.146  14.058  19.660  0.00  0.00    +0.000 A 
ATOM     12  C   UNL     1      -0.204  15.052  19.886  0.00  0.00    +0.000 A 
ATOM     13 CL   UNL     1      -0.690  16.525  20.634  0.00  0.00    +0.000 Cl
ATOM     14  C   UNL     1       1.128  14.860  19.547  0.00  0.00    +0.000 A 
ATOM     15  C   UNL     1       1.513  13.661  18.939  0.00  0.00    +0.000 A 
ATOM     16 CL   UNL     1       3.192  13.462  18.543  0.00  0.00    +0.000 Cl
ENDBRANCH   4   8
BRANCH   6  17
ATOM     17  C   UNL     1       0.948   8.118  21.524  0.00  0.00    +0.000 C 
ATOM     18  F   UNL     1       1.539   8.805  22.536  0.00  0.00    +0.000 F 
ATOM     19  F   UNL     1      -0.390   8.179  21.770  0.00  0.00    +0.000 F 
ATOM     20  F   UNL     1       1.310   6.815  21.668  0.00  0.00    +0.000 F 
ENDBRANCH   6  17
BRANCH   1  21
ATOM     21  C   UNL     1       2.769   6.723  19.206  0.00  0.00    +0.000 C 
BRANCH  21  22
ATOM     22  N   UNL     1       2.778   6.040  17.892  0.00  0.00    +0.000 NA
BRANCH  22  23
ATOM     23  C   UNL     1       4.080   5.366  17.675  0.00  0.00    +0.000 C 
BRANCH  23  25
ATOM     24  C   UNL     1       6.496   5.015  18.438  0.00  0.00    +0.000 C 
ATOM     25  C   UNL     1       5.079   5.393  18.841  0.00  0.00    +0.000 C 
ENDBRANCH  23  25
ENDBRANCH  22  23
BRANCH  22  26
ATOM     26  C   UNL     1       1.655   5.073  17.808  0.00  0.00    +0.000 C 
BRANCH  26  27
ATOM     27  C   UNL     1       2.034   3.608  18.112  0.00  0.00    +0.000 C 
BRANCH  27  28
ATOM     28  C   UNL     1       1.174   3.012  19.198  0.00  0.00    +0.000 C 
ATOM     29  C   UNL     1       1.848   2.550  20.466  0.00  0.00    +0.000 C 
ATOM     30  C   UNL     1       0.933   3.740  20.496  0.00  0.00    +0.000 C 
ENDBRANCH  27  28
ENDBRANCH  26  27
ENDBRANCH  22  26
ENDBRANCH  21  22
ENDBRANCH   1  21
TORSDOF 9
ENDMDL
MODEL 6
REMARK VINA RESULT:      -6.3      1.221      2.330
REMARK  Name = 
REMARK  10 active torsions:
REMARK  status: ('A' for Active; 'I' for Inactive)
REMARK    1  A    between atoms: C_1  and  C_2
REMARK    2  A    between atoms: C_2  and  C_3
REMARK    3  A    between atoms: C_3  and  N_4
REMARK    4  A    between atoms: N_4  and  C_5
REMARK    5  A    between atoms: N_4  and  C_10
REMARK    6  A    between atoms: C_5  and  C_6
REMARK    7  A    between atoms: C_6  and  C_7
REMARK    8  A    between atoms: C_10  and  C_11
REMARK    9  A    between atoms: N_14  and  C_15
REMARK   10  A    between atoms: C_25  and  C_26
REMARK                            x       y       z     vdW  Elec       q    Type
REMARK                         _______ _______ _______ _____ _____    ______ ____
ROOT
ATOM      1  C   UNL     1       2.125   8.101  19.078  0.00  0.00    +0.000 A 
ATOM      2  S   UNL     1       2.182   9.206  17.763  0.00  0.00    +0.000 S 
ATOM      3  C   UNL     1       1.155  10.288  18.615  0.00  0.00    +0.000 A 
ATOM      4  N   UNL     1       0.872  11.505  18.094  0.00  0.00    +0.000 N 
ATOM      5  N   UNL     1       0.708   9.820  19.756  0.00  0.00    +0.000 NA
ATOM      6  C   UNL     1       1.282   8.581  20.068  0.00  0.00    +0.000 A 
ATOM      7  H   UNL     1       0.652  11.525  17.103  0.00  0.00    +0.000 HD
ENDROOT
BRANCH   4   8
ATOM      8  C   UNL     1       0.332  12.594  18.824  0.00  0.00    +0.000 A 
ATOM      9  C   UNL     1      -1.043  12.730  19.125  0.00  0.00    +0.000 A 
ATOM     10 CL   UNL     1      -2.201  11.459  18.870  0.00  0.00    +0.000 Cl
ATOM     11  C   UNL     1      -1.534  13.865  19.785  0.00  0.00    +0.000 A 
ATOM     12  C   UNL     1      -0.656  14.865  20.180  0.00  0.00    +0.000 A 
ATOM     13 CL   UNL     1      -1.262  16.246  21.011  0.00  0.00    +0.000 Cl
ATOM     14  C   UNL     1       0.707  14.749  19.942  0.00  0.00    +0.000 A 
ATOM     15  C   UNL     1       1.190  13.625  19.264  0.00  0.00    +0.000 A 
ATOM     16 CL   UNL     1       2.903  13.521  18.998  0.00  0.00    +0.000 Cl
ENDBRANCH   4   8
BRANCH   6  17
ATOM     17  C   UNL     1       0.959   7.939  21.390  0.00  0.00    +0.000 C 
ATOM     18  F   UNL     1       1.365   6.646  21.486  0.00  0.00    +0.000 F 
ATOM     19  F   UNL     1       1.565   8.592  22.420  0.00  0.00    +0.000 F 
ATOM     20  F   UNL     1      -0.375   7.954  21.653  0.00  0.00    +0.000 F 
ENDBRANCH   6  17
BRANCH   1  21
ATOM     21  C   UNL     1       2.934   6.838  19.040  0.00  0.00    +0.000 C 
BRANCH  21  22
ATOM     22  N   UNL     1       3.309   6.428  17.667  0.00  0.00    +0.000 NA
BRANCH  22  23
ATOM     23  C   UNL     1       4.712   6.812  17.385  0.00  0.00    +0.000 C 
BRANCH  23  25
ATOM     24  C   UNL     1       6.612   5.600  16.178  0.00  0.00    +0.000 C 
ATOM     25  C   UNL     1       5.301   6.356  16.042  0.00  0.00    +0.000 C 
ENDBRANCH  23  25
ENDBRANCH  22  23
BRANCH  22  26
ATOM     26  C   UNL     1       3.109   4.968  17.495  0.00  0.00    +0.000 C 
BRANCH  26  27
ATOM     27  C   UNL     1       1.706   4.452  17.880  0.00  0.00    +0.000 C 
BRANCH  27  28
ATOM     28  C   UNL     1       1.769   3.312  18.864  0.00  0.00    +0.000 C 
ATOM     29  C   UNL     1       0.900   3.385  20.095  0.00  0.00    +0.000 C 
ATOM     30  C   UNL     1       0.614   2.359  19.037  0.00  0.00    +0.000 C 
ENDBRANCH  27  28
ENDBRANCH  26  27
ENDBRANCH  22  26
ENDBRANCH  21  22
ENDBRANCH   1  21
TORSDOF 9
ENDMDL
MODEL 7
REMARK VINA RESULT:      -6.3      0.650      1.929
REMARK  Name = 
REMARK  10 active torsions:
REMARK  status: ('A' for Active; 'I' for Inactive)
REMARK    1  A    between atoms: C_1  and  C_2
REMARK    2  A    between atoms: C_2  and  C_3
REMARK    3  A    between atoms: C_3  and  N_4
REMARK    4  A    between atoms: N_4  and  C_5
REMARK    5  A    between atoms: N_4  and  C_10
REMARK    6  A    between atoms: C_5  and  C_6
REMARK    7  A    between atoms: C_6  and  C_7
REMARK    8  A    between atoms: C_10  and  C_11
REMARK    9  A    between atoms: N_14  and  C_15
REMARK   10  A    between atoms: C_25  and  C_26
REMARK                            x       y       z     vdW  Elec       q    Type
REMARK                         _______ _______ _______ _____ _____    ______ ____
ROOT
ATOM      1  C   UNL     1       1.800   8.353  19.409  0.00  0.00    +0.000 A 
ATOM      2  S   UNL     1       2.163   9.213  17.966  0.00  0.00    +0.000 S 
ATOM      3  C   UNL     1       1.353  10.599  18.577  0.00  0.00    +0.000 A 
ATOM      4  N   UNL     1       1.369  11.757  17.875  0.00  0.00    +0.000 N 
ATOM      5  N   UNL     1       0.758  10.411  19.731  0.00  0.00    +0.000 NA
ATOM      6  C   UNL     1       1.032   9.141  20.253  0.00  0.00    +0.000 A 
ATOM      7  H   UNL     1       1.209  11.674  16.876  0.00  0.00    +0.000 HD
ENDROOT
BRANCH   4   8
ATOM      8  C   UNL     1       1.043  13.031  18.405  0.00  0.00    +0.000 A 
ATOM      9  C   UNL     1      -0.281  13.451  18.675  0.00  0.00    +0.000 A 
ATOM     10 CL   UNL     1      -1.644  12.374  18.640  0.00  0.00    +0.000 Cl
ATOM     11  C   UNL     1      -0.552  14.750  19.128  0.00  0.00    +0.000 A 
ATOM     12  C   UNL     1       0.493  15.636  19.346  0.00  0.00    +0.000 A 
ATOM     13 CL   UNL     1       0.154  17.222  19.925  0.00  0.00    +0.000 Cl
ATOM     14  C   UNL     1       1.809  15.248  19.134  0.00  0.00    +0.000 A 
ATOM     15  C   UNL     1       2.075  13.959  18.662  0.00  0.00    +0.000 A 
ATOM     16 CL   UNL     1       3.737  13.517  18.422  0.00  0.00    +0.000 Cl
ENDBRANCH   4   8
BRANCH   6  17
ATOM     17  C   UNL     1       0.510   8.784  21.619  0.00  0.00    +0.000 C 
ATOM     18  F   UNL     1      -0.234   9.764  22.196  0.00  0.00    +0.000 F 
ATOM     19  F   UNL     1      -0.298   7.689  21.570  0.00  0.00    +0.000 F 
ATOM     20  F   UNL     1       1.513   8.488  22.487  0.00  0.00    +0.000 F 
ENDBRANCH   6  17
BRANCH   1  21
ATOM     21  C   UNL     1       2.315   6.958  19.608  0.00  0.00    +0.000 C 
BRANCH  21  22
ATOM     22  N   UNL     1       2.781   6.325  18.353  0.00  0.00    +0.000 NA
BRANCH  22  23
ATOM     23  C   UNL     1       4.204   5.928  18.478  0.00  0.00    +0.000 C 
BRANCH  23  25
ATOM     24  C   UNL     1       4.885   6.863  16.198  0.00  0.00    +0.000 C 
ATOM     25  C   UNL     1       4.979   5.700  17.173  0.00  0.00    +0.000 C 
ENDBRANCH  23  25
ENDBRANCH  22  23
BRANCH  22  26
ATOM     26  C   UNL     1       1.927   5.158  18.020  0.00  0.00    +0.000 C 
BRANCH  26  27
ATOM     27  C   UNL     1       2.530   3.785  18.387  0.00  0.00    +0.000 C 
BRANCH  27  28
ATOM     28  C   UNL     1       1.648   3.013  19.335  0.00  0.00    +0.000 C 
ATOM     29  C   UNL     1       2.065   2.924  20.782  0.00  0.00    +0.000 C 
ATOM     30  C   UNL     1       0.843   3.709  20.402  0.00  0.00    +0.000 C 
ENDBRANCH  27  28
ENDBRANCH  26  27
ENDBRANCH  22  26
ENDBRANCH  21  22
ENDBRANCH   1  21
TORSDOF 9
ENDMDL
MODEL 8
REMARK VINA RESULT:      -6.3      2.139      2.831
REMARK  Name = 
REMARK  10 active torsions:
REMARK  status: ('A' for Active; 'I' for Inactive)
REMARK    1  A    between atoms: C_1  and  C_2
REMARK    2  A    between atoms: C_2  and  C_3
REMARK    3  A    between atoms: C_3  and  N_4
REMARK    4  A    between atoms: N_4  and  C_5
REMARK    5  A    between atoms: N_4  and  C_10
REMARK    6  A    between atoms: C_5  and  C_6
REMARK    7  A    between atoms: C_6  and  C_7
REMARK    8  A    between atoms: C_10  and  C_11
REMARK    9  A    between atoms: N_14  and  C_15
REMARK   10  A    between atoms: C_25  and  C_26
REMARK                            x       y       z     vdW  Elec       q    Type
REMARK                         _______ _______ _______ _____ _____    ______ ____
ROOT
ATOM      1  C   UNL     1       3.066   7.137  18.506  0.00  0.00    +0.000 A 
ATOM      2  S   UNL     1       2.963   8.388  17.332  0.00  0.00    +0.000 S 
ATOM      3  C   UNL     1       1.628   9.075  18.168  0.00  0.00    +0.000 A 
ATOM      4  N   UNL     1       1.099  10.249  17.750  0.00  0.00    +0.000 N 
ATOM      5  N   UNL     1       1.213   8.369  19.193  0.00  0.00    +0.000 NA
ATOM      6  C   UNL     1       2.047   7.271  19.436  0.00  0.00    +0.000 A 
ATOM      7  H   UNL     1       0.969  10.347  16.748  0.00  0.00    +0.000 HD
ENDROOT
BRANCH   4   8
ATOM      8  C   UNL     1       0.244  11.074  18.523  0.00  0.00    +0.000 A 
ATOM      9  C   UNL     1       0.710  12.071  19.412  0.00  0.00    +0.000 A 
ATOM     10 CL   UNL     1       2.369  12.586  19.474  0.00  0.00    +0.000 Cl
ATOM     11  C   UNL     1      -0.178  12.807  20.209  0.00  0.00    +0.000 A 
ATOM     12  C   UNL     1      -1.543  12.580  20.108  0.00  0.00    +0.000 A 
ATOM     13 CL   UNL     1      -2.629  13.506  21.072  0.00  0.00    +0.000 Cl
ATOM     14  C   UNL     1      -2.044  11.642  19.216  0.00  0.00    +0.000 A 
ATOM     15  C   UNL     1      -1.154  10.895  18.438  0.00  0.00    +0.000 A 
ATOM     16 CL   UNL     1      -1.828   9.740  17.330  0.00  0.00    +0.000 Cl
ENDBRANCH   4   8
BRANCH   6  17
ATOM     17  C   UNL     1       1.779   6.402  20.636  0.00  0.00    +0.000 C 
ATOM     18  F   UNL     1       0.675   5.620  20.513  0.00  0.00    +0.000 F 
ATOM     19  F   UNL     1       2.812   5.545  20.868  0.00  0.00    +0.000 F 
ATOM     20  F   UNL     1       1.620   7.134  21.770  0.00  0.00    +0.000 F 
ENDBRANCH   6  17
BRANCH   1  21
ATOM     21  C   UNL     1       4.163   6.117  18.430  0.00  0.00    +0.000 C 
BRANCH  21  22
ATOM     22  N   UNL     1       4.115   5.303  17.193  0.00  0.00    +0.000 NA
BRANCH  22  23
ATOM     23  C   UNL     1       5.303   5.583  16.351  0.00  0.00    +0.000 C 
BRANCH  23  25
ATOM     24  C   UNL     1       5.737   4.216  14.234  0.00  0.00    +0.000 C 
ATOM     25  C   UNL     1       6.008   4.373  15.722  0.00  0.00    +0.000 C 
ENDBRANCH  23  25
ENDBRANCH  22  23
BRANCH  22  26
ATOM     26  C   UNL     1       4.027   3.861  17.532  0.00  0.00    +0.000 C 
BRANCH  26  27
ATOM     27  C   UNL     1       2.634   3.228  17.328  0.00  0.00    +0.000 C 
BRANCH  27  28
ATOM     28  C   UNL     1       1.757   3.381  18.545  0.00  0.00    +0.000 C 
ATOM     29  C   UNL     1       0.649   2.379  18.755  0.00  0.00    +0.000 C 
ATOM     30  C   UNL     1       1.824   2.402  19.689  0.00  0.00    +0.000 C 
ENDBRANCH  27  28
ENDBRANCH  26  27
ENDBRANCH  22  26
ENDBRANCH  21  22
ENDBRANCH   1  21
TORSDOF 9
ENDMDL
MODEL 9
REMARK VINA RESULT:      -6.2      3.633      8.250
REMARK  Name = 
REMARK  10 active torsions:
REMARK  status: ('A' for Active; 'I' for Inactive)
REMARK    1  A    between atoms: C_1  and  C_2
REMARK    2  A    between atoms: C_2  and  C_3
REMARK    3  A    between atoms: C_3  and  N_4
REMARK    4  A    between atoms: N_4  and  C_5
REMARK    5  A    between atoms: N_4  and  C_10
REMARK    6  A    between atoms: C_5  and  C_6
REMARK    7  A    between atoms: C_6  and  C_7
REMARK    8  A    between atoms: C_10  and  C_11
REMARK    9  A    between atoms: N_14  and  C_15
REMARK   10  A    between atoms: C_25  and  C_26
REMARK                            x       y       z     vdW  Elec       q    Type
REMARK                         _______ _______ _______ _____ _____    ______ ____
ROOT
ATOM      1  C   UNL     1       1.150   9.544  18.900  0.00  0.00    +0.000 A 
ATOM      2  S   UNL     1       2.032   9.058  17.509  0.00  0.00    +0.000 S 
ATOM      3  C   UNL     1       2.647   7.699  18.361  0.00  0.00    +0.000 A 
ATOM      4  N   UNL     1       3.409   6.783  17.718  0.00  0.00    +0.000 N 
ATOM      5  N   UNL     1       2.309   7.660  19.628  0.00  0.00    +0.000 NA
ATOM      6  C   UNL     1       1.415   8.686  19.957  0.00  0.00    +0.000 A 
ATOM      7  H   UNL     1       4.121   7.155  17.096  0.00  0.00    +0.000 HD
ENDROOT
BRANCH   4   8
ATOM      8  C   UNL     1       3.690   5.480  18.199  0.00  0.00    +0.000 A 
ATOM      9  C   UNL     1       2.721   4.455  18.295  0.00  0.00    +0.000 A 
ATOM     10 CL   UNL     1       1.134   4.580  17.596  0.00  0.00    +0.000 Cl
ATOM     11  C   UNL     1       3.036   3.206  18.849  0.00  0.00    +0.000 A 
ATOM     12  C   UNL     1       4.329   2.953  19.285  0.00  0.00    +0.000 A 
ATOM     13 CL   UNL     1       4.715   1.409  19.942  0.00  0.00    +0.000 Cl
ATOM     14  C   UNL     1       5.320   3.918  19.168  0.00  0.00    +0.000 A 
ATOM     15  C   UNL     1       4.997   5.170  18.635  0.00  0.00    +0.000 A 
ATOM     16 CL   UNL     1       6.272   6.341  18.500  0.00  0.00    +0.000 Cl
ENDBRANCH   4   8
BRANCH   6  17
ATOM     17  C   UNL     1       0.842   8.738  21.348  0.00  0.00    +0.000 C 
ATOM     18  F   UNL     1       1.275   7.737  22.159  0.00  0.00    +0.000 F 
ATOM     19  F   UNL     1       1.182   9.896  21.980  0.00  0.00    +0.000 F 
ATOM     20  F   UNL     1      -0.516   8.683  21.343  0.00  0.00    +0.000 F 
ENDBRANCH   6  17
BRANCH   1  21
ATOM     21  C   UNL     1       0.243  10.738  18.843  0.00  0.00    +0.000 C 
BRANCH  21  22
ATOM     22  N   UNL     1       0.775  11.907  19.580  0.00  0.00    +0.000 NA
BRANCH  22  23
ATOM     23  C   UNL     1       1.816  12.589  18.775  0.00  0.00    +0.000 C 
BRANCH  23  25
ATOM     24  C   UNL     1       2.355  15.087  18.877  0.00  0.00    +0.000 C 
ATOM     25  C   UNL     1       2.607  13.708  19.467  0.00  0.00    +0.000 C 
ENDBRANCH  23  25
ENDBRANCH  22  23
BRANCH  22  26
ATOM     26  C   UNL     1      -0.327  12.838  19.928  0.00  0.00    +0.000 C 
BRANCH  26  27
ATOM     27  C   UNL     1      -0.640  12.943  21.436  0.00  0.00    +0.000 C 
BRANCH  27  28
ATOM     28  C   UNL     1      -1.679  11.941  21.871  0.00  0.00    +0.000 C 
ATOM     29  C   UNL     1      -1.475  11.229  23.186  0.00  0.00    +0.000 C 
ATOM     30  C   UNL     1      -2.596  12.217  23.036  0.00  0.00    +0.000 C 
ENDBRANCH  27  28
ENDBRANCH  26  27
ENDBRANCH  22  26
ENDBRANCH  21  22
ENDBRANCH   1  21
TORSDOF 9
ENDMDL
