MODEL 1
REMARK VINA RESULT:      -7.9      0.000      0.000
REMARK  Name = 
REMARK  9 active torsions:
REMARK  status: ('A' for Active; 'I' for Inactive)
REMARK    1  A    between atoms: C_1  and  C_2
REMARK    2  A    between atoms: C_2  and  C_3
REMARK    3  A    between atoms: C_6  and  C_7
REMARK    4  A    between atoms: N_8  and  N_9
REMARK    5  A    between atoms: C_10  and  S_11
REMARK    6  A    between atoms: C_14  and  C_15
REMARK    7  A    between atoms: N_17  and  C_18
REMARK    8  A    between atoms: C_18  and  C_19
REMARK    9  A    between atoms: C_22  and  C_23
REMARK                            x       y       z     vdW  Elec       q    Type
REMARK                         _______ _______ _______ _____ _____    ______ ____
ROOT
ATOM      1  N   UNL     1       3.399   3.945  19.784  0.00  0.00    +0.000 N 
ATOM      2  C   UNL     1       2.886   3.139  20.799  0.00  0.00    +0.000 A 
ATOM      3  N   UNL     1       3.645   2.085  20.982  0.00  0.00    +0.000 NA
ATOM      4  N   UNL     1       4.649   2.128  20.055  0.00  0.00    +0.000 NA
ATOM      5  C   UNL     1       4.507   3.225  19.334  0.00  0.00    +0.000 A 
ENDROOT
BRANCH   5   6
ATOM      6  C   UNL     1       5.353   3.723  18.320  0.00  0.00    +0.000 A 
ATOM      7  C   UNL     1       6.188   4.747  18.532  0.00  0.00    +0.000 A 
ATOM      8  N   UNL     1       6.964   5.369  17.561  0.00  0.00    +0.000 N 
ATOM      9  C   UNL     1       6.832   4.992  16.202  0.00  0.00    +0.000 A 
ATOM     10  N   UNL     1       7.548   5.631  15.241  0.00  0.00    +0.000 NA
ATOM     11  C   UNL     1       7.394   5.258  13.943  0.00  0.00    +0.000 A 
ATOM     12  C   UNL     1       8.211   5.982  12.915  0.00  0.00    +0.000 C 
ATOM     13  C   UNL     1       6.515   4.257  13.549  0.00  0.00    +0.000 A 
ATOM     14  C   UNL     1       5.787   3.593  14.526  0.00  0.00    +0.000 A 
ATOM     15  C   UNL     1       5.952   3.955  15.866  0.00  0.00    +0.000 A 
ATOM     16  C   UNL     1       5.206   3.238  16.923  0.00  0.00    +0.000 A 
ATOM     17  O   UNL     1       4.487   2.283  16.643  0.00  0.00    +0.000 OA
BRANCH   8  18
ATOM     18  C   UNL     1       7.883   6.480  17.843  0.00  0.00    +0.000 C 
ATOM     19  C   UNL     1       7.255   7.833  17.540  0.00  0.00    +0.000 C 
ENDBRANCH   8  18
ENDBRANCH   5   6
BRANCH   1  21
ATOM     20  C   UNL     1       2.982   6.169  19.839  0.00  0.00    +0.000 C 
ATOM     21  N   UNL     1       2.854   5.063  19.172  0.00  0.00    +0.000 NA
BRANCH  20  25
ATOM     22  C   UNL     1       0.866   9.747  18.785  0.00  0.00    +0.000 A 
ATOM     23  C   UNL     1       1.567   9.031  17.801  0.00  0.00    +0.000 A 
ATOM     24  C   UNL     1       2.271   7.868  18.133  0.00  0.00    +0.000 A 
ATOM     25  C   UNL     1       2.283   7.417  19.454  0.00  0.00    +0.000 A 
ATOM     26  C   UNL     1       1.576   8.113  20.439  0.00  0.00    +0.000 A 
ATOM     27  C   UNL     1       0.870   9.271  20.102  0.00  0.00    +0.000 A 
BRANCH  22  29
ATOM     28  C   UNL     1      -1.338  10.686  18.031  0.00  0.00    +0.000 C 
ATOM     29  C   UNL     1       0.099  10.994  18.425  0.00  0.00    +0.000 C 
ENDBRANCH  22  29
ENDBRANCH  20  25
ENDBRANCH   1  21
BRANCH   2  30
ATOM     30  S   UNL     1       1.387   3.375  21.645  0.00  0.00    +0.000 S 
ATOM     31  H   UNL     1       0.820   2.180  21.451  0.00  0.00    +0.000 HD
ENDBRANCH   2  30
TORSDOF 6
ENDMDL
MODEL 2
REMARK VINA RESULT:      -7.6      0.321      1.018
REMARK  Name = 
REMARK  9 active torsions:
REMARK  status: ('A' for Active; 'I' for Inactive)
REMARK    1  A    between atoms: C_1  and  C_2
REMARK    2  A    between atoms: C_2  and  C_3
REMARK    3  A    between atoms: C_6  and  C_7
REMARK    4  A    between atoms: N_8  and  N_9
REMARK    5  A    between atoms: C_10  and  S_11
REMARK    6  A    between atoms: C_14  and  C_15
REMARK    7  A    between atoms: N_17  and  C_18
REMARK    8  A    between atoms: C_18  and  C_19
REMARK    9  A    between atoms: C_22  and  C_23
REMARK                            x       y       z     vdW  Elec       q    Type
REMARK                         _______ _______ _______ _____ _____    ______ ____
ROOT
ATOM      1  N   UNL     1       3.423   3.935  19.836  0.00  0.00    +0.000 N 
ATOM      2  C   UNL     1       2.928   3.137  20.867  0.00  0.00    +0.000 A 
ATOM      3  N   UNL     1       3.696   2.091  21.053  0.00  0.00    +0.000 NA
ATOM      4  N   UNL     1       4.690   2.131  20.114  0.00  0.00    +0.000 NA
ATOM      5  C   UNL     1       4.532   3.218  19.382  0.00  0.00    +0.000 A 
ENDROOT
BRANCH   5   6
ATOM      6  C   UNL     1       5.362   3.710  18.352  0.00  0.00    +0.000 A 
ATOM      7  C   UNL     1       6.194   4.742  18.544  0.00  0.00    +0.000 A 
ATOM      8  N   UNL     1       6.954   5.358  17.558  0.00  0.00    +0.000 N 
ATOM      9  C   UNL     1       6.808   4.966  16.204  0.00  0.00    +0.000 A 
ATOM     10  N   UNL     1       7.508   5.599  15.228  0.00  0.00    +0.000 NA
ATOM     11  C   UNL     1       7.341   5.213  13.936  0.00  0.00    +0.000 A 
ATOM     12  C   UNL     1       8.141   5.931  12.891  0.00  0.00    +0.000 C 
ATOM     13  C   UNL     1       6.462   4.203  13.562  0.00  0.00    +0.000 A 
ATOM     14  C   UNL     1       5.750   3.545  14.556  0.00  0.00    +0.000 A 
ATOM     15  C   UNL     1       5.929   3.922  15.889  0.00  0.00    +0.000 A 
ATOM     16  C   UNL     1       5.201   3.211  16.962  0.00  0.00    +0.000 A 
ATOM     17  O   UNL     1       4.483   2.249  16.701  0.00  0.00    +0.000 OA
BRANCH   8  18
ATOM     18  C   UNL     1       7.870   6.477  17.817  0.00  0.00    +0.000 C 
ATOM     19  C   UNL     1       7.207   7.826  17.578  0.00  0.00    +0.000 C 
ENDBRANCH   8  18
ENDBRANCH   5   6
BRANCH   1  21
ATOM     20  C   UNL     1       2.964   6.151  19.883  0.00  0.00    +0.000 C 
ATOM     21  N   UNL     1       2.862   5.042  19.217  0.00  0.00    +0.000 NA
BRANCH  20  25
ATOM     22  C   UNL     1       0.978   9.758  18.685  0.00  0.00    +0.000 A 
ATOM     23  C   UNL     1       0.899   9.323  20.018  0.00  0.00    +0.000 A 
ATOM     24  C   UNL     1       1.534   8.142  20.420  0.00  0.00    +0.000 A 
ATOM     25  C   UNL     1       2.246   7.385  19.490  0.00  0.00    +0.000 A 
ATOM     26  C   UNL     1       2.344   7.816  18.163  0.00  0.00    +0.000 A 
ATOM     27  C   UNL     1       1.713   8.999  17.767  0.00  0.00    +0.000 A 
BRANCH  22  29
ATOM     28  C   UNL     1       0.638  12.197  19.179  0.00  0.00    +0.000 C 
ATOM     29  C   UNL     1       0.304  11.036  18.254  0.00  0.00    +0.000 C 
ENDBRANCH  22  29
ENDBRANCH  20  25
ENDBRANCH   1  21
BRANCH   2  30
ATOM     30  S   UNL     1       1.437   3.372  21.727  0.00  0.00    +0.000 S 
ATOM     31  H   UNL     1       0.627   2.590  21.005  0.00  0.00    +0.000 HD
ENDBRANCH   2  30
TORSDOF 6
ENDMDL
MODEL 3
REMARK VINA RESULT:      -7.2      3.669      6.299
REMARK  Name = 
REMARK  9 active torsions:
REMARK  status: ('A' for Active; 'I' for Inactive)
REMARK    1  A    between atoms: C_1  and  C_2
REMARK    2  A    between atoms: C_2  and  C_3
REMARK    3  A    between atoms: C_6  and  C_7
REMARK    4  A    between atoms: N_8  and  N_9
REMARK    5  A    between atoms: C_10  and  S_11
REMARK    6  A    between atoms: C_14  and  C_15
REMARK    7  A    between atoms: N_17  and  C_18
REMARK    8  A    between atoms: C_18  and  C_19
REMARK    9  A    between atoms: C_22  and  C_23
REMARK                            x       y       z     vdW  Elec       q    Type
REMARK                         _______ _______ _______ _____ _____    ______ ____
ROOT
ATOM      1  N   UNL     1      -0.128   9.582  21.141  0.00  0.00    +0.000 N 
ATOM      2  C   UNL     1      -0.306  10.421  22.239  0.00  0.00    +0.000 A 
ATOM      3  N   UNL     1       0.598  10.180  23.158  0.00  0.00    +0.000 NA
ATOM      4  N   UNL     1       1.366   9.136  22.724  0.00  0.00    +0.000 NA
ATOM      5  C   UNL     1       0.938   8.768  21.531  0.00  0.00    +0.000 A 
ENDROOT
BRANCH   5   6
ATOM      6  C   UNL     1       1.477   7.788  20.669  0.00  0.00    +0.000 A 
ATOM      7  C   UNL     1       1.546   6.498  21.017  0.00  0.00    +0.000 A 
ATOM      8  N   UNL     1       2.165   5.496  20.279  0.00  0.00    +0.000 N 
ATOM      9  C   UNL     1       2.877   5.824  19.099  0.00  0.00    +0.000 A 
ATOM     10  N   UNL     1       3.528   4.858  18.401  0.00  0.00    +0.000 NA
ATOM     11  C   UNL     1       4.214   5.202  17.279  0.00  0.00    +0.000 A 
ATOM     12  C   UNL     1       4.911   4.103  16.533  0.00  0.00    +0.000 C 
ATOM     13  C   UNL     1       4.297   6.511  16.821  0.00  0.00    +0.000 A 
ATOM     14  C   UNL     1       3.626   7.502  17.524  0.00  0.00    +0.000 A 
ATOM     15  C   UNL     1       2.902   7.157  18.668  0.00  0.00    +0.000 A 
ATOM     16  C   UNL     1       2.157   8.195  19.412  0.00  0.00    +0.000 A 
ATOM     17  O   UNL     1       2.116   9.352  19.001  0.00  0.00    +0.000 OA
BRANCH   8  18
ATOM     18  C   UNL     1       2.200   4.086  20.691  0.00  0.00    +0.000 C 
ATOM     19  C   UNL     1       0.871   3.385  20.449  0.00  0.00    +0.000 C 
ENDBRANCH   8  18
ENDBRANCH   5   6
BRANCH   1  21
ATOM     20  C   UNL     1      -0.885  10.357  19.153  0.00  0.00    +0.000 C 
ATOM     21  N   UNL     1      -0.926   9.394  20.023  0.00  0.00    +0.000 NA
BRANCH  20  25
ATOM     22  C   UNL     1      -3.509  10.596  15.770  0.00  0.00    +0.000 A 
ATOM     23  C   UNL     1      -3.760  11.378  16.910  0.00  0.00    +0.000 A 
ATOM     24  C   UNL     1      -2.918  11.302  18.025  0.00  0.00    +0.000 A 
ATOM     25  C   UNL     1      -1.823  10.438  18.010  0.00  0.00    +0.000 A 
ATOM     26  C   UNL     1      -1.553   9.666  16.875  0.00  0.00    +0.000 A 
ATOM     27  C   UNL     1      -2.394   9.750  15.761  0.00  0.00    +0.000 A 
BRANCH  22  29
ATOM     28  C   UNL     1      -3.840   9.936  13.369  0.00  0.00    +0.000 C 
ATOM     29  C   UNL     1      -4.409  10.687  14.564  0.00  0.00    +0.000 C 
ENDBRANCH  22  29
ENDBRANCH  20  25
ENDBRANCH   1  21
BRANCH   2  30
ATOM     30  S   UNL     1      -1.605  11.550  22.474  0.00  0.00    +0.000 S 
ATOM     31  H   UNL     1      -1.166  12.568  21.726  0.00  0.00    +0.000 HD
ENDBRANCH   2  30
TORSDOF 6
ENDMDL
MODEL 4
REMARK VINA RESULT:      -7.1      5.247      8.734
REMARK  Name = 
REMARK  9 active torsions:
REMARK  status: ('A' for Active; 'I' for Inactive)
REMARK    1  A    between atoms: C_1  and  C_2
REMARK    2  A    between atoms: C_2  and  C_3
REMARK    3  A    between atoms: C_6  and  C_7
REMARK    4  A    between atoms: N_8  and  N_9
REMARK    5  A    between atoms: C_10  and  S_11
REMARK    6  A    between atoms: C_14  and  C_15
REMARK    7  A    between atoms: N_17  and  C_18
REMARK    8  A    between atoms: C_18  and  C_19
REMARK    9  A    between atoms: C_22  and  C_23
REMARK                            x       y       z     vdW  Elec       q    Type
REMARK                         _______ _______ _______ _____ _____    ______ ____
ROOT
ATOM      1  N   UNL     1       0.189  13.236  19.112  0.00  0.00    +0.000 N 
ATOM      2  C   UNL     1       0.688  14.467  18.686  0.00  0.00    +0.000 A 
ATOM      3  N   UNL     1       1.976  14.389  18.451  0.00  0.00    +0.000 NA
ATOM      4  N   UNL     1       2.382  13.123  18.770  0.00  0.00    +0.000 NA
ATOM      5  C   UNL     1       1.330  12.434  19.171  0.00  0.00    +0.000 A 
ENDROOT
BRANCH   5   6
ATOM      6  C   UNL     1       1.259  11.068  19.522  0.00  0.00    +0.000 A 
ATOM      7  C   UNL     1       0.942  10.670  20.761  0.00  0.00    +0.000 A 
ATOM      8  N   UNL     1       0.964   9.357  21.215  0.00  0.00    +0.000 N 
ATOM      9  C   UNL     1       1.441   8.324  20.371  0.00  0.00    +0.000 A 
ATOM     10  N   UNL     1       1.514   7.047  20.826  0.00  0.00    +0.000 NA
ATOM     11  C   UNL     1       1.987   6.076  19.999  0.00  0.00    +0.000 A 
ATOM     12  C   UNL     1       2.043   4.678  20.538  0.00  0.00    +0.000 C 
ATOM     13  C   UNL     1       2.422   6.338  18.706  0.00  0.00    +0.000 A 
ATOM     14  C   UNL     1       2.340   7.640  18.231  0.00  0.00    +0.000 A 
ATOM     15  C   UNL     1       1.838   8.641  19.065  0.00  0.00    +0.000 A 
ATOM     16  C   UNL     1       1.716  10.028  18.565  0.00  0.00    +0.000 A 
ATOM     17  O   UNL     1       1.995  10.300  17.401  0.00  0.00    +0.000 OA
BRANCH   8  18
ATOM     18  C   UNL     1       0.589   8.963  22.580  0.00  0.00    +0.000 C 
ATOM     19  C   UNL     1      -0.484   9.870  23.164  0.00  0.00    +0.000 C 
ENDBRANCH   8  18
ENDBRANCH   5   6
BRANCH   1  21
ATOM     20  C   UNL     1      -1.863  12.361  18.731  0.00  0.00    +0.000 C 
ATOM     21  N   UNL     1      -1.065  12.903  19.599  0.00  0.00    +0.000 NA
BRANCH  20  25
ATOM     22  C   UNL     1      -6.001  11.686  19.630  0.00  0.00    +0.000 A 
ATOM     23  C   UNL     1      -5.434  11.127  18.472  0.00  0.00    +0.000 A 
ATOM     24  C   UNL     1      -4.088  11.348  18.162  0.00  0.00    +0.000 A 
ATOM     25  C   UNL     1      -3.301  12.136  19.003  0.00  0.00    +0.000 A 
ATOM     26  C   UNL     1      -3.851  12.685  20.166  0.00  0.00    +0.000 A 
ATOM     27  C   UNL     1      -5.195  12.457  20.476  0.00  0.00    +0.000 A 
BRANCH  22  29
ATOM     28  C   UNL     1      -7.663  10.062  20.585  0.00  0.00    +0.000 C 
ATOM     29  C   UNL     1      -7.449  11.438  19.971  0.00  0.00    +0.000 C 
ENDBRANCH  22  29
ENDBRANCH  20  25
ENDBRANCH   1  21
BRANCH   2  30
ATOM     30  S   UNL     1      -0.195  15.960  18.591  0.00  0.00    +0.000 S 
ATOM     31  H   UNL     1      -0.474  16.148  19.885  0.00  0.00    +0.000 HD
ENDBRANCH   2  30
TORSDOF 6
ENDMDL
MODEL 5
REMARK VINA RESULT:      -6.9      5.270      8.762
REMARK  Name = 
REMARK  9 active torsions:
REMARK  status: ('A' for Active; 'I' for Inactive)
REMARK    1  A    between atoms: C_1  and  C_2
REMARK    2  A    between atoms: C_2  and  C_3
REMARK    3  A    between atoms: C_6  and  C_7
REMARK    4  A    between atoms: N_8  and  N_9
REMARK    5  A    between atoms: C_10  and  S_11
REMARK    6  A    between atoms: C_14  and  C_15
REMARK    7  A    between atoms: N_17  and  C_18
REMARK    8  A    between atoms: C_18  and  C_19
REMARK    9  A    between atoms: C_22  and  C_23
REMARK                            x       y       z     vdW  Elec       q    Type
REMARK                         _______ _______ _______ _____ _____    ______ ____
ROOT
ATOM      1  N   UNL     1       0.250  13.174  19.215  0.00  0.00    +0.000 N 
ATOM      2  C   UNL     1       0.716  14.385  18.705  0.00  0.00    +0.000 A 
ATOM      3  N   UNL     1       1.947  14.262  18.270  0.00  0.00    +0.000 NA
ATOM      4  N   UNL     1       2.355  12.983  18.531  0.00  0.00    +0.000 NA
ATOM      5  C   UNL     1       1.358  12.332  19.099  0.00  0.00    +0.000 A 
ENDROOT
BRANCH   5   6
ATOM      6  C   UNL     1       1.296  10.971  19.468  0.00  0.00    +0.000 A 
ATOM      7  C   UNL     1       0.984  10.586  20.712  0.00  0.00    +0.000 A 
ATOM      8  N   UNL     1       1.015   9.280  21.183  0.00  0.00    +0.000 N 
ATOM      9  C   UNL     1       1.499   8.240  20.353  0.00  0.00    +0.000 A 
ATOM     10  N   UNL     1       1.582   6.969  20.824  0.00  0.00    +0.000 NA
ATOM     11  C   UNL     1       2.062   5.991  20.010  0.00  0.00    +0.000 A 
ATOM     12  C   UNL     1       2.128   4.600  20.567  0.00  0.00    +0.000 C 
ATOM     13  C   UNL     1       2.493   6.239  18.713  0.00  0.00    +0.000 A 
ATOM     14  C   UNL     1       2.402   7.533  18.221  0.00  0.00    +0.000 A 
ATOM     15  C   UNL     1       1.893   8.542  19.043  0.00  0.00    +0.000 A 
ATOM     16  C   UNL     1       1.761   9.921  18.525  0.00  0.00    +0.000 A 
ATOM     17  O   UNL     1       2.037  10.180  17.356  0.00  0.00    +0.000 OA
BRANCH   8  18
ATOM     18  C   UNL     1       0.645   8.901  22.554  0.00  0.00    +0.000 C 
ATOM     19  C   UNL     1      -0.479   9.767  23.103  0.00  0.00    +0.000 C 
ENDBRANCH   8  18
ENDBRANCH   5   6
BRANCH   1  21
ATOM     20  C   UNL     1      -1.913  12.509  19.148  0.00  0.00    +0.000 C 
ATOM     21  N   UNL     1      -0.922  12.885  19.897  0.00  0.00    +0.000 NA
BRANCH  20  25
ATOM     22  C   UNL     1      -5.949  12.142  20.548  0.00  0.00    +0.000 A 
ATOM     23  C   UNL     1      -4.957  12.664  21.395  0.00  0.00    +0.000 A 
ATOM     24  C   UNL     1      -3.634  12.779  20.954  0.00  0.00    +0.000 A 
ATOM     25  C   UNL     1      -3.293  12.367  19.666  0.00  0.00    +0.000 A 
ATOM     26  C   UNL     1      -4.275  11.860  18.809  0.00  0.00    +0.000 A 
ATOM     27  C   UNL     1      -5.596  11.752  19.251  0.00  0.00    +0.000 A 
BRANCH  22  29
ATOM     28  C   UNL     1      -7.902  10.603  20.912  0.00  0.00    +0.000 C 
ATOM     29  C   UNL     1      -7.377  12.028  21.019  0.00  0.00    +0.000 C 
ENDBRANCH  22  29
ENDBRANCH  20  25
ENDBRANCH   1  21
BRANCH   2  30
ATOM     30  S   UNL     1      -0.120  15.908  18.740  0.00  0.00    +0.000 S 
ATOM     31  H   UNL     1       0.161  16.355  17.512  0.00  0.00    +0.000 HD
ENDBRANCH   2  30
TORSDOF 6
ENDMDL
MODEL 6
REMARK VINA RESULT:      -6.8      6.713      9.706
REMARK  Name = 
REMARK  9 active torsions:
REMARK  status: ('A' for Active; 'I' for Inactive)
REMARK    1  A    between atoms: C_1  and  C_2
REMARK    2  A    between atoms: C_2  and  C_3
REMARK    3  A    between atoms: C_6  and  C_7
REMARK    4  A    between atoms: N_8  and  N_9
REMARK    5  A    between atoms: C_10  and  S_11
REMARK    6  A    between atoms: C_14  and  C_15
REMARK    7  A    between atoms: N_17  and  C_18
REMARK    8  A    between atoms: C_18  and  C_19
REMARK    9  A    between atoms: C_22  and  C_23
REMARK                            x       y       z     vdW  Elec       q    Type
REMARK                         _______ _______ _______ _____ _____    ______ ____
ROOT
ATOM      1  N   UNL     1       0.702  12.911  21.445  0.00  0.00    +0.000 N 
ATOM      2  C   UNL     1      -0.466  12.922  22.206  0.00  0.00    +0.000 A 
ATOM      3  N   UNL     1      -0.729  14.133  22.635  0.00  0.00    +0.000 NA
ATOM      4  N   UNL     1       0.285  14.951  22.221  0.00  0.00    +0.000 NA
ATOM      5  C   UNL     1       1.144  14.234  21.521  0.00  0.00    +0.000 A 
ENDROOT
BRANCH   5   6
ATOM      6  C   UNL     1       2.297  14.670  20.834  0.00  0.00    +0.000 A 
ATOM      7  C   UNL     1       2.277  14.958  19.527  0.00  0.00    +0.000 A 
ATOM      8  N   UNL     1       3.388  15.280  18.756  0.00  0.00    +0.000 N 
ATOM      9  C   UNL     1       4.684  15.224  19.324  0.00  0.00    +0.000 A 
ATOM     10  N   UNL     1       5.777  15.486  18.563  0.00  0.00    +0.000 NA
ATOM     11  C   UNL     1       7.011  15.413  19.130  0.00  0.00    +0.000 A 
ATOM     12  C   UNL     1       8.191  15.720  18.257  0.00  0.00    +0.000 C 
ATOM     13  C   UNL     1       7.207  15.060  20.460  0.00  0.00    +0.000 A 
ATOM     14  C   UNL     1       6.093  14.801  21.246  0.00  0.00    +0.000 A 
ATOM     15  C   UNL     1       4.819  14.891  20.678  0.00  0.00    +0.000 A 
ATOM     16  C   UNL     1       3.620  14.647  21.509  0.00  0.00    +0.000 A 
ATOM     17  O   UNL     1       3.727  14.425  22.712  0.00  0.00    +0.000 OA
BRANCH   8  18
ATOM     18  C   UNL     1       3.317  15.608  17.325  0.00  0.00    +0.000 C 
ATOM     19  C   UNL     1       2.806  17.021  17.086  0.00  0.00    +0.000 C 
ENDBRANCH   8  18
ENDBRANCH   5   6
BRANCH   1  21
ATOM     20  C   UNL     1       0.806  11.175  19.996  0.00  0.00    +0.000 C 
ATOM     21  N   UNL     1       1.418  11.844  20.925  0.00  0.00    +0.000 NA
BRANCH  20  25
ATOM     22  C   UNL     1       2.348   7.430  18.586  0.00  0.00    +0.000 A 
ATOM     23  C   UNL     1       2.271   8.530  17.716  0.00  0.00    +0.000 A 
ATOM     24  C   UNL     1       1.760   9.755  18.160  0.00  0.00    +0.000 A 
ATOM     25  C   UNL     1       1.316   9.886  19.476  0.00  0.00    +0.000 A 
ATOM     26  C   UNL     1       1.402   8.802  20.356  0.00  0.00    +0.000 A 
ATOM     27  C   UNL     1       1.919   7.582  19.910  0.00  0.00    +0.000 A 
BRANCH  22  29
ATOM     28  C   UNL     1       1.866   5.007  18.135  0.00  0.00    +0.000 C 
ATOM     29  C   UNL     1       2.909   6.114  18.111  0.00  0.00    +0.000 C 
ENDBRANCH  22  29
ENDBRANCH  20  25
ENDBRANCH   1  21
BRANCH   2  30
ATOM     30  S   UNL     1      -1.406  11.537  22.670  0.00  0.00    +0.000 S 
ATOM     31  H   UNL     1      -1.545  11.777  23.978  0.00  0.00    +0.000 HD
ENDBRANCH   2  30
TORSDOF 6
ENDMDL
MODEL 7
REMARK VINA RESULT:      -6.7      8.700     11.525
REMARK  Name = 
REMARK  9 active torsions:
REMARK  status: ('A' for Active; 'I' for Inactive)
REMARK    1  A    between atoms: C_1  and  C_2
REMARK    2  A    between atoms: C_2  and  C_3
REMARK    3  A    between atoms: C_6  and  C_7
REMARK    4  A    between atoms: N_8  and  N_9
REMARK    5  A    between atoms: C_10  and  S_11
REMARK    6  A    between atoms: C_14  and  C_15
REMARK    7  A    between atoms: N_17  and  C_18
REMARK    8  A    between atoms: C_18  and  C_19
REMARK    9  A    between atoms: C_22  and  C_23
REMARK                            x       y       z     vdW  Elec       q    Type
REMARK                         _______ _______ _______ _____ _____    ______ ____
ROOT
ATOM      1  N   UNL     1       6.047  13.320  23.723  0.00  0.00    +0.000 N 
ATOM      2  C   UNL     1       5.977  13.125  25.101  0.00  0.00    +0.000 A 
ATOM      3  N   UNL     1       5.193  14.016  25.657  0.00  0.00    +0.000 NA
ATOM      4  N   UNL     1       4.765  14.866  24.674  0.00  0.00    +0.000 NA
ATOM      5  C   UNL     1       5.273  14.466  23.524  0.00  0.00    +0.000 A 
ENDROOT
BRANCH   5   6
ATOM      6  C   UNL     1       5.042  14.989  22.233  0.00  0.00    +0.000 A 
ATOM      7  C   UNL     1       5.696  16.064  21.776  0.00  0.00    +0.000 A 
ATOM      8  N   UNL     1       5.444  16.707  20.570  0.00  0.00    +0.000 N 
ATOM      9  C   UNL     1       4.357  16.294  19.762  0.00  0.00    +0.000 A 
ATOM     10  N   UNL     1       4.073  16.952  18.608  0.00  0.00    +0.000 NA
ATOM     11  C   UNL     1       3.016  16.543  17.856  0.00  0.00    +0.000 A 
ATOM     12  C   UNL     1       2.743  17.290  16.585  0.00  0.00    +0.000 C 
ATOM     13  C   UNL     1       2.195  15.485  18.228  0.00  0.00    +0.000 A 
ATOM     14  C   UNL     1       2.485  14.802  19.401  0.00  0.00    +0.000 A 
ATOM     15  C   UNL     1       3.580  15.203  20.171  0.00  0.00    +0.000 A 
ATOM     16  C   UNL     1       3.922  14.467  21.408  0.00  0.00    +0.000 A 
ATOM     17  O   UNL     1       3.290  13.467  21.737  0.00  0.00    +0.000 OA
BRANCH   8  18
ATOM     18  C   UNL     1       6.201  17.875  20.098  0.00  0.00    +0.000 C 
ATOM     19  C   UNL     1       7.251  18.321  21.105  0.00  0.00    +0.000 C 
ENDBRANCH   8  18
ENDBRANCH   5   6
BRANCH   1  21
ATOM     20  C   UNL     1       8.107  13.053  22.824  0.00  0.00    +0.000 C 
ATOM     21  N   UNL     1       6.855  12.712  22.775  0.00  0.00    +0.000 NA
BRANCH  20  25
ATOM     22  C   UNL     1      10.892  12.070  19.715  0.00  0.00    +0.000 A 
ATOM     23  C   UNL     1       9.961  11.112  20.152  0.00  0.00    +0.000 A 
ATOM     24  C   UNL     1       9.054  11.417  21.173  0.00  0.00    +0.000 A 
ATOM     25  C   UNL     1       9.076  12.678  21.769  0.00  0.00    +0.000 A 
ATOM     26  C   UNL     1       9.987  13.645  21.331  0.00  0.00    +0.000 A 
ATOM     27  C   UNL     1      10.888  13.338  20.307  0.00  0.00    +0.000 A 
BRANCH  22  29
ATOM     28  C   UNL     1      11.748  12.722  17.445  0.00  0.00    +0.000 C 
ATOM     29  C   UNL     1      11.862  11.746  18.607  0.00  0.00    +0.000 C 
ENDBRANCH  22  29
ENDBRANCH  20  25
ENDBRANCH   1  21
BRANCH   2  30
ATOM     30  S   UNL     1       6.885  11.967  26.025  0.00  0.00    +0.000 S 
ATOM     31  H   UNL     1       7.514  11.322  25.037  0.00  0.00    +0.000 HD
ENDBRANCH   2  30
TORSDOF 6
ENDMDL
MODEL 8
REMARK VINA RESULT:      -6.7      5.337      8.863
REMARK  Name = 
REMARK  9 active torsions:
REMARK  status: ('A' for Active; 'I' for Inactive)
REMARK    1  A    between atoms: C_1  and  C_2
REMARK    2  A    between atoms: C_2  and  C_3
REMARK    3  A    between atoms: C_6  and  C_7
REMARK    4  A    between atoms: N_8  and  N_9
REMARK    5  A    between atoms: C_10  and  S_11
REMARK    6  A    between atoms: C_14  and  C_15
REMARK    7  A    between atoms: N_17  and  C_18
REMARK    8  A    between atoms: C_18  and  C_19
REMARK    9  A    between atoms: C_22  and  C_23
REMARK                            x       y       z     vdW  Elec       q    Type
REMARK                         _______ _______ _______ _____ _____    ______ ____
ROOT
ATOM      1  N   UNL     1       0.329  13.646  18.839  0.00  0.00    +0.000 N 
ATOM      2  C   UNL     1       0.783  14.963  18.853  0.00  0.00    +0.000 A 
ATOM      3  N   UNL     1       1.970  15.039  19.405  0.00  0.00    +0.000 NA
ATOM      4  N   UNL     1       2.314  13.785  19.827  0.00  0.00    +0.000 NA
ATOM      5  C   UNL     1       1.343  12.952  19.504  0.00  0.00    +0.000 A 
ENDROOT
BRANCH   5   6
ATOM      6  C   UNL     1       1.298  11.551  19.669  0.00  0.00    +0.000 A 
ATOM      7  C   UNL     1       0.968  10.985  20.837  0.00  0.00    +0.000 A 
ATOM      8  N   UNL     1       1.012   9.624  21.113  0.00  0.00    +0.000 N 
ATOM      9  C   UNL     1       1.530   8.723  20.151  0.00  0.00    +0.000 A 
ATOM     10  N   UNL     1       1.626   7.399  20.434  0.00  0.00    +0.000 NA
ATOM     11  C   UNL     1       2.139   6.557  19.497  0.00  0.00    +0.000 A 
ATOM     12  C   UNL     1       2.218   5.101  19.847  0.00  0.00    +0.000 C 
ATOM     13  C   UNL     1       2.591   6.998  18.259  0.00  0.00    +0.000 A 
ATOM     14  C   UNL     1       2.487   8.349  17.959  0.00  0.00    +0.000 A 
ATOM     15  C   UNL     1       1.945   9.220  18.908  0.00  0.00    +0.000 A 
ATOM     16  C   UNL     1       1.799  10.657  18.593  0.00  0.00    +0.000 A 
ATOM     17  O   UNL     1       2.093  11.088  17.482  0.00  0.00    +0.000 OA
BRANCH   8  18
ATOM     18  C   UNL     1       0.622   9.044  22.405  0.00  0.00    +0.000 C 
ATOM     19  C   UNL     1      -0.607   9.725  22.991  0.00  0.00    +0.000 C 
ENDBRANCH   8  18
ENDBRANCH   5   6
BRANCH   1  21
ATOM     20  C   UNL     1      -1.792  13.132  19.442  0.00  0.00    +0.000 C 
ATOM     21  N   UNL     1      -0.910  13.132  18.489  0.00  0.00    +0.000 NA
BRANCH  20  25
ATOM     22  C   UNL     1      -5.554  11.126  18.983  0.00  0.00    +0.000 A 
ATOM     23  C   UNL     1      -5.382  12.071  20.009  0.00  0.00    +0.000 A 
ATOM     24  C   UNL     1      -4.157  12.725  20.176  0.00  0.00    +0.000 A 
ATOM     25  C   UNL     1      -3.092  12.433  19.323  0.00  0.00    +0.000 A 
ATOM     26  C   UNL     1      -3.256  11.506  18.289  0.00  0.00    +0.000 A 
ATOM     27  C   UNL     1      -4.483  10.859  18.122  0.00  0.00    +0.000 A 
BRANCH  22  29
ATOM     28  C   UNL     1      -7.468   9.959  20.117  0.00  0.00    +0.000 C 
ATOM     29  C   UNL     1      -6.878  10.430  18.796  0.00  0.00    +0.000 C 
ENDBRANCH  22  29
ENDBRANCH  20  25
ENDBRANCH   1  21
BRANCH   2  30
ATOM     30  S   UNL     1      -0.110  16.366  18.349  0.00  0.00    +0.000 S 
ATOM     31  H   UNL     1      -0.657  15.901  17.221  0.00  0.00    +0.000 HD
ENDBRANCH   2  30
TORSDOF 6
ENDMDL
MODEL 9
REMARK VINA RESULT:      -6.7      8.754     11.769
REMARK  Name = 
REMARK  9 active torsions:
REMARK  status: ('A' for Active; 'I' for Inactive)
REMARK    1  A    between atoms: C_1  and  C_2
REMARK    2  A    between atoms: C_2  and  C_3
REMARK    3  A    between atoms: C_6  and  C_7
REMARK    4  A    between atoms: N_8  and  N_9
REMARK    5  A    between atoms: C_10  and  S_11
REMARK    6  A    between atoms: C_14  and  C_15
REMARK    7  A    between atoms: N_17  and  C_18
REMARK    8  A    between atoms: C_18  and  C_19
REMARK    9  A    between atoms: C_22  and  C_23
REMARK                            x       y       z     vdW  Elec       q    Type
REMARK                         _______ _______ _______ _____ _____    ______ ____
ROOT
ATOM      1  N   UNL     1      -2.734  14.425  22.888  0.00  0.00    +0.000 N 
ATOM      2  C   UNL     1      -3.198  14.731  24.167  0.00  0.00    +0.000 A 
ATOM      3  N   UNL     1      -4.055  13.828  24.577  0.00  0.00    +0.000 NA
ATOM      4  N   UNL     1      -4.232  12.929  23.563  0.00  0.00    +0.000 NA
ATOM      5  C   UNL     1      -3.459  13.279  22.552  0.00  0.00    +0.000 A 
ENDROOT
BRANCH   5   6
ATOM      6  C   UNL     1      -3.253  12.604  21.330  0.00  0.00    +0.000 A 
ATOM      7  C   UNL     1      -2.048  12.149  20.965  0.00  0.00    +0.000 A 
ATOM      8  N   UNL     1      -1.741  11.581  19.735  0.00  0.00    +0.000 N 
ATOM      9  C   UNL     1      -2.718  11.539  18.710  0.00  0.00    +0.000 A 
ATOM     10  N   UNL     1      -2.409  11.034  17.488  0.00  0.00    +0.000 NA
ATOM     11  C   UNL     1      -3.362  11.017  16.519  0.00  0.00    +0.000 A 
ATOM     12  C   UNL     1      -2.982  10.441  15.188  0.00  0.00    +0.000 C 
ATOM     13  C   UNL     1      -4.643  11.516  16.717  0.00  0.00    +0.000 A 
ATOM     14  C   UNL     1      -4.969  12.025  17.966  0.00  0.00    +0.000 A 
ATOM     15  C   UNL     1      -4.003  12.030  18.976  0.00  0.00    +0.000 A 
ATOM     16  C   UNL     1      -4.342  12.541  20.321  0.00  0.00    +0.000 A 
ATOM     17  O   UNL     1      -5.485  12.907  20.582  0.00  0.00    +0.000 OA
BRANCH   8  18
ATOM     18  C   UNL     1      -0.406  11.076  19.383  0.00  0.00    +0.000 C 
ATOM     19  C   UNL     1       0.073  10.003  20.350  0.00  0.00    +0.000 C 
ENDBRANCH   8  18
ENDBRANCH   5   6
BRANCH   1  21
ATOM     20  C   UNL     1      -2.594  15.900  21.176  0.00  0.00    +0.000 C 
ATOM     21  N   UNL     1      -1.942  15.166  22.025  0.00  0.00    +0.000 NA
BRANCH  20  25
ATOM     22  C   UNL     1      -0.780  17.909  17.850  0.00  0.00    +0.000 A 
ATOM     23  C   UNL     1      -0.217  16.721  18.346  0.00  0.00    +0.000 A 
ATOM     24  C   UNL     1      -0.792  16.061  19.437  0.00  0.00    +0.000 A 
ATOM     25  C   UNL     1      -1.932  16.589  20.045  0.00  0.00    +0.000 A 
ATOM     26  C   UNL     1      -2.511  17.762  19.551  0.00  0.00    +0.000 A 
ATOM     27  C   UNL     1      -1.936  18.415  18.457  0.00  0.00    +0.000 A 
BRANCH  22  29
ATOM     28  C   UNL     1       1.299  18.250  16.483  0.00  0.00    +0.000 C 
ATOM     29  C   UNL     1      -0.167  18.614  16.667  0.00  0.00    +0.000 C 
ENDBRANCH  22  29
ENDBRANCH  20  25
ENDBRANCH   1  21
BRANCH   2  30
ATOM     30  S   UNL     1      -2.832  16.163  25.080  0.00  0.00    +0.000 S 
ATOM     31  H   UNL     1      -1.497  16.091  25.101  0.00  0.00    +0.000 HD
ENDBRANCH   2  30
TORSDOF 6
ENDMDL
