MODEL 1
REMARK VINA RESULT:      -7.5      0.000      0.000
REMARK  Name = 
REMARK  5 active torsions:
REMARK  status: ('A' for Active; 'I' for Inactive)
REMARK    1  A    between atoms: N_3  and  C_4
REMARK    2  A    between atoms: C_4  and  C_5
REMARK    3  A    between atoms: C_5  and  C_6
REMARK    4  A    between atoms: C_6  and  C_7
REMARK    5  A    between atoms: N_13  and  C_14
REMARK                            x       y       z     vdW  Elec       q    Type
REMARK                         _______ _______ _______ _____ _____    ______ ____
ROOT
ATOM      1  O   UNL     1       4.641   3.510  17.180  0.00  0.00    +0.000 OA
ATOM      2  C   UNL     1       4.941   3.401  18.363  0.00  0.00    +0.000 C 
ATOM      3  N   UNL     1       4.400   2.419  19.170  0.00  0.00    +0.000 N 
ATOM      4  N   UNL     1       5.837   4.185  19.058  0.00  0.00    +0.000 N 
ATOM      5  H   UNL     1       4.357   2.632  20.156  0.00  0.00    +0.000 HD
ATOM      6  H   UNL     1       6.233   3.768  19.886  0.00  0.00    +0.000 HD
ENDROOT
BRANCH   4   7
ATOM      7  C   UNL     1       6.451   5.363  18.575  0.00  0.00    +0.000 A 
ATOM      8  C   UNL     1       5.898   6.141  17.557  0.00  0.00    +0.000 A 
ATOM      9  C   UNL     1       6.532   7.312  17.128  0.00  0.00    +0.000 A 
ATOM     10  C   UNL     1       7.728   7.713  17.716  0.00  0.00    +0.000 A 
ATOM     11  C   UNL     1       8.289   6.946  18.734  0.00  0.00    +0.000 A 
ATOM     12  C   UNL     1       7.647   5.780  19.170  0.00  0.00    +0.000 A 
ENDBRANCH   4   7
BRANCH   3  13
ATOM     13  C   UNL     1       3.388   1.522  18.640  0.00  0.00    +0.000 C 
BRANCH  13  14
ATOM     14  C   UNL     1       2.006   1.814  19.222  0.00  0.00    +0.000 C 
BRANCH  14  15
ATOM     15  C   UNL     1       1.271   2.870  18.395  0.00  0.00    +0.000 C 
BRANCH  15  16
ATOM     16  C   UNL     1       1.605   4.271  18.845  0.00  0.00    +0.000 A 
ATOM     17  C   UNL     1       1.964   5.254  17.912  0.00  0.00    +0.000 A 
ATOM     18  C   UNL     1       2.301   6.541  18.333  0.00  0.00    +0.000 A 
ATOM     19  C   UNL     1       2.284   6.860  19.690  0.00  0.00    +0.000 A 
ATOM     20  C   UNL     1       1.928   5.892  20.626  0.00  0.00    +0.000 A 
ATOM     21  C   UNL     1       1.592   4.602  20.208  0.00  0.00    +0.000 A 
ENDBRANCH  15  16
ENDBRANCH  14  15
ENDBRANCH  13  14
ENDBRANCH   3  13
TORSDOF 5
ENDMDL
MODEL 2
REMARK VINA RESULT:      -7.5      3.157      6.637
REMARK  Name = 
REMARK  5 active torsions:
REMARK  status: ('A' for Active; 'I' for Inactive)
REMARK    1  A    between atoms: N_3  and  C_4
REMARK    2  A    between atoms: C_4  and  C_5
REMARK    3  A    between atoms: C_5  and  C_6
REMARK    4  A    between atoms: C_6  and  C_7
REMARK    5  A    between atoms: N_13  and  C_14
REMARK                            x       y       z     vdW  Elec       q    Type
REMARK                         _______ _______ _______ _____ _____    ______ ____
ROOT
ATOM      1  O   UNL     1       4.918   5.490  19.159  0.00  0.00    +0.000 OA
ATOM      2  C   UNL     1       5.361   4.365  18.967  0.00  0.00    +0.000 C 
ATOM      3  N   UNL     1       6.627   4.151  18.454  0.00  0.00    +0.000 N 
ATOM      4  N   UNL     1       4.718   3.174  19.229  0.00  0.00    +0.000 N 
ATOM      5  H   UNL     1       6.760   3.286  17.953  0.00  0.00    +0.000 HD
ATOM      6  H   UNL     1       5.316   2.371  19.354  0.00  0.00    +0.000 HD
ENDROOT
BRANCH   4   7
ATOM      7  C   UNL     1       3.366   3.034  19.614  0.00  0.00    +0.000 A 
ATOM      8  C   UNL     1       2.953   3.052  20.947  0.00  0.00    +0.000 A 
ATOM      9  C   UNL     1       1.599   2.932  21.277  0.00  0.00    +0.000 A 
ATOM     10  C   UNL     1       0.646   2.793  20.274  0.00  0.00    +0.000 A 
ATOM     11  C   UNL     1       1.045   2.776  18.940  0.00  0.00    +0.000 A 
ATOM     12  C   UNL     1       2.399   2.907  18.609  0.00  0.00    +0.000 A 
ENDBRANCH   4   7
BRANCH   3  13
ATOM     13  C   UNL     1       7.447   5.282  18.058  0.00  0.00    +0.000 C 
BRANCH  13  14
ATOM     14  C   UNL     1       7.202   5.682  16.604  0.00  0.00    +0.000 C 
BRANCH  14  15
ATOM     15  C   UNL     1       6.265   4.691  15.911  0.00  0.00    +0.000 C 
BRANCH  15  16
ATOM     16  C   UNL     1       6.595   4.532  14.448  0.00  0.00    +0.000 A 
ATOM     17  C   UNL     1       7.574   5.334  13.846  0.00  0.00    +0.000 A 
ATOM     18  C   UNL     1       7.858   5.205  12.485  0.00  0.00    +0.000 A 
ATOM     19  C   UNL     1       7.167   4.273  11.712  0.00  0.00    +0.000 A 
ATOM     20  C   UNL     1       6.192   3.470  12.300  0.00  0.00    +0.000 A 
ATOM     21  C   UNL     1       5.905   3.598  13.661  0.00  0.00    +0.000 A 
ENDBRANCH  15  16
ENDBRANCH  14  15
ENDBRANCH  13  14
ENDBRANCH   3  13
TORSDOF 5
ENDMDL
MODEL 3
REMARK VINA RESULT:      -7.4      3.651      5.405
REMARK  Name = 
REMARK  5 active torsions:
REMARK  status: ('A' for Active; 'I' for Inactive)
REMARK    1  A    between atoms: N_3  and  C_4
REMARK    2  A    between atoms: C_4  and  C_5
REMARK    3  A    between atoms: C_5  and  C_6
REMARK    4  A    between atoms: C_6  and  C_7
REMARK    5  A    between atoms: N_13  and  C_14
REMARK                            x       y       z     vdW  Elec       q    Type
REMARK                         _______ _______ _______ _____ _____    ______ ____
ROOT
ATOM      1  O   UNL     1       8.638   7.728  18.843  0.00  0.00    +0.000 OA
ATOM      2  C   UNL     1       8.117   8.469  18.018  0.00  0.00    +0.000 C 
ATOM      3  N   UNL     1       7.199   8.010  17.093  0.00  0.00    +0.000 N 
ATOM      4  N   UNL     1       8.330   9.825  17.885  0.00  0.00    +0.000 N 
ATOM      5  H   UNL     1       7.139   8.535  16.233  0.00  0.00    +0.000 HD
ATOM      6  H   UNL     1       7.595  10.340  17.424  0.00  0.00    +0.000 HD
ENDROOT
BRANCH   4   7
ATOM      7  C   UNL     1       9.312  10.577  18.568  0.00  0.00    +0.000 A 
ATOM      8  C   UNL     1       9.295  10.764  19.950  0.00  0.00    +0.000 A 
ATOM      9  C   UNL     1      10.303  11.499  20.584  0.00  0.00    +0.000 A 
ATOM     10  C   UNL     1      11.336  12.054  19.837  0.00  0.00    +0.000 A 
ATOM     11  C   UNL     1      11.365  11.874  18.456  0.00  0.00    +0.000 A 
ATOM     12  C   UNL     1      10.362  11.128  17.824  0.00  0.00    +0.000 A 
ENDBRANCH   4   7
BRANCH   3  13
ATOM     13  C   UNL     1       6.880   6.594  17.031  0.00  0.00    +0.000 C 
BRANCH  13  14
ATOM     14  C   UNL     1       5.513   6.346  16.397  0.00  0.00    +0.000 C 
BRANCH  14  15
ATOM     15  C   UNL     1       4.392   6.499  17.426  0.00  0.00    +0.000 C 
BRANCH  15  16
ATOM     16  C   UNL     1       3.593   5.230  17.583  0.00  0.00    +0.000 A 
ATOM     17  C   UNL     1       2.253   5.275  17.992  0.00  0.00    +0.000 A 
ATOM     18  C   UNL     1       1.525   4.098  18.166  0.00  0.00    +0.000 A 
ATOM     19  C   UNL     1       2.126   2.862  17.931  0.00  0.00    +0.000 A 
ATOM     20  C   UNL     1       3.457   2.805  17.524  0.00  0.00    +0.000 A 
ATOM     21  C   UNL     1       4.189   3.982  17.351  0.00  0.00    +0.000 A 
ENDBRANCH  15  16
ENDBRANCH  14  15
ENDBRANCH  13  14
ENDBRANCH   3  13
TORSDOF 5
ENDMDL
MODEL 4
REMARK VINA RESULT:      -7.3      3.103      6.439
REMARK  Name = 
REMARK  5 active torsions:
REMARK  status: ('A' for Active; 'I' for Inactive)
REMARK    1  A    between atoms: N_3  and  C_4
REMARK    2  A    between atoms: C_4  and  C_5
REMARK    3  A    between atoms: C_5  and  C_6
REMARK    4  A    between atoms: C_6  and  C_7
REMARK    5  A    between atoms: N_13  and  C_14
REMARK                            x       y       z     vdW  Elec       q    Type
REMARK                         _______ _______ _______ _____ _____    ______ ____
ROOT
ATOM      1  O   UNL     1       5.655   4.849  19.689  0.00  0.00    +0.000 OA
ATOM      2  C   UNL     1       5.474   4.027  18.799  0.00  0.00    +0.000 C 
ATOM      3  N   UNL     1       6.356   3.881  17.745  0.00  0.00    +0.000 N 
ATOM      4  N   UNL     1       4.426   3.137  18.705  0.00  0.00    +0.000 N 
ATOM      5  H   UNL     1       5.963   3.520  16.888  0.00  0.00    +0.000 HD
ATOM      6  H   UNL     1       4.596   2.318  18.141  0.00  0.00    +0.000 HD
ENDROOT
BRANCH   4   7
ATOM      7  C   UNL     1       3.279   3.123  19.531  0.00  0.00    +0.000 A 
ATOM      8  C   UNL     1       2.045   3.627  19.119  0.00  0.00    +0.000 A 
ATOM      9  C   UNL     1       0.932   3.570  19.965  0.00  0.00    +0.000 A 
ATOM     10  C   UNL     1       1.046   3.005  21.232  0.00  0.00    +0.000 A 
ATOM     11  C   UNL     1       2.273   2.497  21.653  0.00  0.00    +0.000 A 
ATOM     12  C   UNL     1       3.384   2.544  20.801  0.00  0.00    +0.000 A 
ENDBRANCH   4   7
BRANCH   3  13
ATOM     13  C   UNL     1       7.501   4.767  17.630  0.00  0.00    +0.000 C 
BRANCH  13  14
ATOM     14  C   UNL     1       7.237   5.914  16.657  0.00  0.00    +0.000 C 
BRANCH  14  15
ATOM     15  C   UNL     1       5.987   5.649  15.817  0.00  0.00    +0.000 C 
BRANCH  15  16
ATOM     16  C   UNL     1       6.322   5.001  14.496  0.00  0.00    +0.000 A 
ATOM     17  C   UNL     1       7.468   5.382  13.785  0.00  0.00    +0.000 A 
ATOM     18  C   UNL     1       7.761   4.803  12.549  0.00  0.00    +0.000 A 
ATOM     19  C   UNL     1       6.911   3.838  12.011  0.00  0.00    +0.000 A 
ATOM     20  C   UNL     1       5.769   3.452  12.709  0.00  0.00    +0.000 A 
ATOM     21  C   UNL     1       5.473   4.031  13.945  0.00  0.00    +0.000 A 
ENDBRANCH  15  16
ENDBRANCH  14  15
ENDBRANCH  13  14
ENDBRANCH   3  13
TORSDOF 5
ENDMDL
MODEL 5
REMARK VINA RESULT:      -7.2      3.565      5.240
REMARK  Name = 
REMARK  5 active torsions:
REMARK  status: ('A' for Active; 'I' for Inactive)
REMARK    1  A    between atoms: N_3  and  C_4
REMARK    2  A    between atoms: C_4  and  C_5
REMARK    3  A    between atoms: C_5  and  C_6
REMARK    4  A    between atoms: C_6  and  C_7
REMARK    5  A    between atoms: N_13  and  C_14
REMARK                            x       y       z     vdW  Elec       q    Type
REMARK                         _______ _______ _______ _____ _____    ______ ____
ROOT
ATOM      1  O   UNL     1       8.644   7.592  18.869  0.00  0.00    +0.000 OA
ATOM      2  C   UNL     1       8.094   8.335  18.065  0.00  0.00    +0.000 C 
ATOM      3  N   UNL     1       7.144   7.876  17.172  0.00  0.00    +0.000 N 
ATOM      4  N   UNL     1       8.299   9.691  17.927  0.00  0.00    +0.000 N 
ATOM      5  H   UNL     1       7.052   8.402  16.316  0.00  0.00    +0.000 HD
ATOM      6  H   UNL     1       7.548  10.206  17.494  0.00  0.00    +0.000 HD
ENDROOT
BRANCH   4   7
ATOM      7  C   UNL     1       9.303  10.444  18.576  0.00  0.00    +0.000 A 
ATOM      8  C   UNL     1      10.375  11.022  17.894  0.00  0.00    +0.000 A 
ATOM      9  C   UNL     1      11.333  11.778  18.578  0.00  0.00    +0.000 A 
ATOM     10  C   UNL     1      11.225  11.962  19.953  0.00  0.00    +0.000 A 
ATOM     11  C   UNL     1      10.159  11.392  20.644  0.00  0.00    +0.000 A 
ATOM     12  C   UNL     1       9.194  10.644  19.957  0.00  0.00    +0.000 A 
ENDBRANCH   4   7
BRANCH   3  13
ATOM     13  C   UNL     1       6.826   6.460  17.119  0.00  0.00    +0.000 C 
BRANCH  13  14
ATOM     14  C   UNL     1       5.414   6.174  17.626  0.00  0.00    +0.000 C 
BRANCH  14  15
ATOM     15  C   UNL     1       4.633   5.316  16.629  0.00  0.00    +0.000 C 
BRANCH  15  16
ATOM     16  C   UNL     1       3.656   4.397  17.320  0.00  0.00    +0.000 A 
ATOM     17  C   UNL     1       3.912   3.022  17.410  0.00  0.00    +0.000 A 
ATOM     18  C   UNL     1       2.993   2.169  18.024  0.00  0.00    +0.000 A 
ATOM     19  C   UNL     1       1.809   2.681  18.553  0.00  0.00    +0.000 A 
ATOM     20  C   UNL     1       1.545   4.046  18.469  0.00  0.00    +0.000 A 
ATOM     21  C   UNL     1       2.462   4.901  17.855  0.00  0.00    +0.000 A 
ENDBRANCH  15  16
ENDBRANCH  14  15
ENDBRANCH  13  14
ENDBRANCH   3  13
TORSDOF 5
ENDMDL
MODEL 6
REMARK VINA RESULT:      -7.2      0.359      1.172
REMARK  Name = 
REMARK  5 active torsions:
REMARK  status: ('A' for Active; 'I' for Inactive)
REMARK    1  A    between atoms: N_3  and  C_4
REMARK    2  A    between atoms: C_4  and  C_5
REMARK    3  A    between atoms: C_5  and  C_6
REMARK    4  A    between atoms: C_6  and  C_7
REMARK    5  A    between atoms: N_13  and  C_14
REMARK                            x       y       z     vdW  Elec       q    Type
REMARK                         _______ _______ _______ _____ _____    ______ ____
ROOT
ATOM      1  O   UNL     1       4.810   3.482  17.089  0.00  0.00    +0.000 OA
ATOM      2  C   UNL     1       4.993   3.385  18.296  0.00  0.00    +0.000 C 
ATOM      3  N   UNL     1       4.386   2.401  19.054  0.00  0.00    +0.000 N 
ATOM      4  N   UNL     1       5.806   4.185  19.070  0.00  0.00    +0.000 N 
ATOM      5  H   UNL     1       4.244   2.619  20.029  0.00  0.00    +0.000 HD
ATOM      6  H   UNL     1       6.123   3.778  19.937  0.00  0.00    +0.000 HD
ENDROOT
BRANCH   4   7
ATOM      7  C   UNL     1       6.450   5.367  18.641  0.00  0.00    +0.000 A 
ATOM      8  C   UNL     1       7.670   5.796  19.164  0.00  0.00    +0.000 A 
ATOM      9  C   UNL     1       8.279   6.963  18.691  0.00  0.00    +0.000 A 
ATOM     10  C   UNL     1       7.671   7.711  17.688  0.00  0.00    +0.000 A 
ATOM     11  C   UNL     1       6.453   7.292  17.156  0.00  0.00    +0.000 A 
ATOM     12  C   UNL     1       5.849   6.117  17.623  0.00  0.00    +0.000 A 
ENDBRANCH   4   7
BRANCH   3  13
ATOM     13  C   UNL     1       3.443   1.487  18.433  0.00  0.00    +0.000 C 
BRANCH  13  14
ATOM     14  C   UNL     1       2.265   2.227  17.802  0.00  0.00    +0.000 C 
BRANCH  14  15
ATOM     15  C   UNL     1       1.357   2.833  18.873  0.00  0.00    +0.000 C 
BRANCH  15  16
ATOM     16  C   UNL     1       1.657   4.293  19.107  0.00  0.00    +0.000 A 
ATOM     17  C   UNL     1       2.008   5.129  18.039  0.00  0.00    +0.000 A 
ATOM     18  C   UNL     1       2.315   6.473  18.262  0.00  0.00    +0.000 A 
ATOM     19  C   UNL     1       2.274   6.994  19.554  0.00  0.00    +0.000 A 
ATOM     20  C   UNL     1       1.926   6.172  20.623  0.00  0.00    +0.000 A 
ATOM     21  C   UNL     1       1.620   4.827  20.403  0.00  0.00    +0.000 A 
ENDBRANCH  15  16
ENDBRANCH  14  15
ENDBRANCH  13  14
ENDBRANCH   3  13
TORSDOF 5
ENDMDL
MODEL 7
REMARK VINA RESULT:      -7.2      3.014      7.613
REMARK  Name = 
REMARK  5 active torsions:
REMARK  status: ('A' for Active; 'I' for Inactive)
REMARK    1  A    between atoms: N_3  and  C_4
REMARK    2  A    between atoms: C_4  and  C_5
REMARK    3  A    between atoms: C_5  and  C_6
REMARK    4  A    between atoms: C_6  and  C_7
REMARK    5  A    between atoms: N_13  and  C_14
REMARK                            x       y       z     vdW  Elec       q    Type
REMARK                         _______ _______ _______ _____ _____    ______ ____
ROOT
ATOM      1  O   UNL     1       4.914   6.405  16.944  0.00  0.00    +0.000 OA
ATOM      2  C   UNL     1       5.494   5.980  17.936  0.00  0.00    +0.000 C 
ATOM      3  N   UNL     1       6.743   6.439  18.309  0.00  0.00    +0.000 N 
ATOM      4  N   UNL     1       5.022   5.033  18.819  0.00  0.00    +0.000 N 
ATOM      5  H   UNL     1       7.309   5.795  18.841  0.00  0.00    +0.000 HD
ATOM      6  H   UNL     1       5.432   5.050  19.740  0.00  0.00    +0.000 HD
ENDROOT
BRANCH   4   7
ATOM      7  C   UNL     1       3.853   4.257  18.651  0.00  0.00    +0.000 A 
ATOM      8  C   UNL     1       2.596   4.680  19.085  0.00  0.00    +0.000 A 
ATOM      9  C   UNL     1       1.464   3.886  18.876  0.00  0.00    +0.000 A 
ATOM     10  C   UNL     1       1.581   2.661  18.228  0.00  0.00    +0.000 A 
ATOM     11  C   UNL     1       2.829   2.229  17.788  0.00  0.00    +0.000 A 
ATOM     12  C   UNL     1       3.961   3.029  17.989  0.00  0.00    +0.000 A 
ENDBRANCH   4   7
BRANCH   3  13
ATOM     13  C   UNL     1       7.439   7.402  17.474  0.00  0.00    +0.000 C 
BRANCH  13  14
ATOM     14  C   UNL     1       8.430   8.242  18.279  0.00  0.00    +0.000 C 
BRANCH  14  15
ATOM     15  C   UNL     1       8.209   9.736  18.037  0.00  0.00    +0.000 C 
BRANCH  15  16
ATOM     16  C   UNL     1       9.319  10.572  18.625  0.00  0.00    +0.000 A 
ATOM     17  C   UNL     1      10.311  11.121  17.802  0.00  0.00    +0.000 A 
ATOM     18  C   UNL     1      11.354  11.870  18.352  0.00  0.00    +0.000 A 
ATOM     19  C   UNL     1      11.415  12.077  19.729  0.00  0.00    +0.000 A 
ATOM     20  C   UNL     1      10.433  11.536  20.556  0.00  0.00    +0.000 A 
ATOM     21  C   UNL     1       9.390  10.786  20.009  0.00  0.00    +0.000 A 
ENDBRANCH  15  16
ENDBRANCH  14  15
ENDBRANCH  13  14
ENDBRANCH   3  13
TORSDOF 5
ENDMDL
MODEL 8
REMARK VINA RESULT:      -7.1      3.623      8.041
REMARK  Name = 
REMARK  5 active torsions:
REMARK  status: ('A' for Active; 'I' for Inactive)
REMARK    1  A    between atoms: N_3  and  C_4
REMARK    2  A    between atoms: C_4  and  C_5
REMARK    3  A    between atoms: C_5  and  C_6
REMARK    4  A    between atoms: C_6  and  C_7
REMARK    5  A    between atoms: N_13  and  C_14
REMARK                            x       y       z     vdW  Elec       q    Type
REMARK                         _______ _______ _______ _____ _____    ______ ____
ROOT
ATOM      1  O   UNL     1       6.429   5.885  18.780  0.00  0.00    +0.000 OA
ATOM      2  C   UNL     1       6.104   6.404  17.719  0.00  0.00    +0.000 C 
ATOM      3  N   UNL     1       6.852   7.407  17.132  0.00  0.00    +0.000 N 
ATOM      4  N   UNL     1       5.003   6.084  16.953  0.00  0.00    +0.000 N 
ATOM      5  H   UNL     1       6.346   8.042  16.533  0.00  0.00    +0.000 HD
ATOM      6  H   UNL     1       5.063   6.330  15.977  0.00  0.00    +0.000 HD
ENDROOT
BRANCH   4   7
ATOM      7  C   UNL     1       3.957   5.214  17.334  0.00  0.00    +0.000 A 
ATOM      8  C   UNL     1       2.808   5.655  17.991  0.00  0.00    +0.000 A 
ATOM      9  C   UNL     1       1.789   4.758  18.328  0.00  0.00    +0.000 A 
ATOM     10  C   UNL     1       1.913   3.409  18.008  0.00  0.00    +0.000 A 
ATOM     11  C   UNL     1       3.054   2.957  17.350  0.00  0.00    +0.000 A 
ATOM     12  C   UNL     1       4.069   3.858  17.003  0.00  0.00    +0.000 A 
ENDBRANCH   4   7
BRANCH   3  13
ATOM     13  C   UNL     1       8.024   7.928  17.813  0.00  0.00    +0.000 C 
BRANCH  13  14
ATOM     14  C   UNL     1       8.060   9.455  17.798  0.00  0.00    +0.000 C 
BRANCH  14  15
ATOM     15  C   UNL     1       9.091   9.991  18.792  0.00  0.00    +0.000 C 
BRANCH  15  16
ATOM     16  C   UNL     1       9.613  11.348  18.386  0.00  0.00    +0.000 A 
ATOM     17  C   UNL     1       8.867  12.506  18.646  0.00  0.00    +0.000 A 
ATOM     18  C   UNL     1       9.337  13.757  18.244  0.00  0.00    +0.000 A 
ATOM     19  C   UNL     1      10.557  13.864  17.578  0.00  0.00    +0.000 A 
ATOM     20  C   UNL     1      11.307  12.720  17.315  0.00  0.00    +0.000 A 
ATOM     21  C   UNL     1      10.838  11.467  17.715  0.00  0.00    +0.000 A 
ENDBRANCH  15  16
ENDBRANCH  14  15
ENDBRANCH  13  14
ENDBRANCH   3  13
TORSDOF 5
ENDMDL
MODEL 9
REMARK VINA RESULT:      -7.1      3.606      5.324
REMARK  Name = 
REMARK  5 active torsions:
REMARK  status: ('A' for Active; 'I' for Inactive)
REMARK    1  A    between atoms: N_3  and  C_4
REMARK    2  A    between atoms: C_4  and  C_5
REMARK    3  A    between atoms: C_5  and  C_6
REMARK    4  A    between atoms: C_6  and  C_7
REMARK    5  A    between atoms: N_13  and  C_14
REMARK                            x       y       z     vdW  Elec       q    Type
REMARK                         _______ _______ _______ _____ _____    ______ ____
ROOT
ATOM      1  O   UNL     1       8.689   7.667  18.843  0.00  0.00    +0.000 OA
ATOM      2  C   UNL     1       8.166   8.395  18.009  0.00  0.00    +0.000 C 
ATOM      3  N   UNL     1       7.292   7.909  17.055  0.00  0.00    +0.000 N 
ATOM      4  N   UNL     1       8.332   9.758  17.889  0.00  0.00    +0.000 N 
ATOM      5  H   UNL     1       7.236   8.437  16.197  0.00  0.00    +0.000 HD
ATOM      6  H   UNL     1       7.593  10.249  17.410  0.00  0.00    +0.000 HD
ENDROOT
BRANCH   4   7
ATOM      7  C   UNL     1       9.267  10.541  18.604  0.00  0.00    +0.000 A 
ATOM      8  C   UNL     1       9.201  10.722  19.986  0.00  0.00    +0.000 A 
ATOM      9  C   UNL     1      10.163  11.488  20.652  0.00  0.00    +0.000 A 
ATOM     10  C   UNL     1      11.200  12.081  19.939  0.00  0.00    +0.000 A 
ATOM     11  C   UNL     1      11.277  11.907  18.559  0.00  0.00    +0.000 A 
ATOM     12  C   UNL     1      10.320  11.130  17.894  0.00  0.00    +0.000 A 
ENDBRANCH   4   7
BRANCH   3  13
ATOM     13  C   UNL     1       7.026   6.483  16.976  0.00  0.00    +0.000 C 
BRANCH  13  14
ATOM     14  C   UNL     1       5.651   6.127  17.538  0.00  0.00    +0.000 C 
BRANCH  14  15
ATOM     15  C   UNL     1       5.534   4.625  17.799  0.00  0.00    +0.000 C 
BRANCH  15  16
ATOM     16  C   UNL     1       4.096   4.177  17.879  0.00  0.00    +0.000 A 
ATOM     17  C   UNL     1       3.769   2.815  17.827  0.00  0.00    +0.000 A 
ATOM     18  C   UNL     1       2.436   2.404  17.871  0.00  0.00    +0.000 A 
ATOM     19  C   UNL     1       1.416   3.349  17.968  0.00  0.00    +0.000 A 
ATOM     20  C   UNL     1       1.729   4.705  18.021  0.00  0.00    +0.000 A 
ATOM     21  C   UNL     1       3.062   5.119  17.976  0.00  0.00    +0.000 A 
ENDBRANCH  15  16
ENDBRANCH  14  15
ENDBRANCH  13  14
ENDBRANCH   3  13
TORSDOF 5
ENDMDL
