MODEL 1
REMARK VINA RESULT:      -7.1      0.000      0.000
REMARK  Name = 
REMARK  6 active torsions:
REMARK  status: ('A' for Active; 'I' for Inactive)
REMARK    1  A    between atoms: C_2  and  C_7
REMARK    2  A    between atoms: N_3  and  C_4
REMARK    3  A    between atoms: C_4  and  C_5
REMARK    4  A    between atoms: C_5  and  O_6
REMARK    5  A    between atoms: C_18  and  C_19
REMARK    6  A    between atoms: C_19  and  C_20
REMARK                            x       y       z     vdW  Elec       q    Type
REMARK                         _______ _______ _______ _____ _____    ______ ____
ROOT
ATOM      1  C   UNL     1       2.150   7.236  19.505  0.00  0.00    +0.000 A 
ATOM      2  C   UNL     1       2.437   7.481  18.152  0.00  0.00    +0.000 A 
ATOM      3  C   UNL     1       2.069   8.685  17.544  0.00  0.00    +0.000 A 
ATOM      4  C   UNL     1       1.434   9.678  18.289  0.00  0.00    +0.000 A 
ATOM      5  C   UNL     1       1.168   9.454  19.634  0.00  0.00    +0.000 A 
ATOM      6  C   UNL     1       1.488   8.223  20.230  0.00  0.00    +0.000 A 
ATOM      7  C   UNL     1       1.109   8.281  21.676  0.00  0.00    +0.000 C 
ATOM      8  C   UNL     1       0.257   9.566  21.740  0.00  0.00    +0.000 C 
ATOM      9  N   UNL     1       0.594  10.355  20.554  0.00  0.00    +0.000 N 
ATOM     10  C   UNL     1       0.025  11.617  20.392  0.00  0.00    +0.000 A 
ATOM     11  C   UNL     1       0.668  12.581  19.633  0.00  0.00    +0.000 A 
ATOM     12  C   UNL     1       0.086  13.832  19.539  0.00  0.00    +0.000 A 
ATOM     13  N   UNL     1      -1.087  14.116  20.141  0.00  0.00    +0.000 NA
ATOM     14  C   UNL     1      -1.637  13.124  20.852  0.00  0.00    +0.000 A 
ATOM     15  N   UNL     1      -1.128  11.897  21.030  0.00  0.00    +0.000 NA
ENDROOT
BRANCH   1  17
ATOM     16  O   UNL     1       3.846   5.653  19.848  0.00  0.00    +0.000 OA
ATOM     17  C   UNL     1       2.687   5.982  20.087  0.00  0.00    +0.000 C 
ATOM     18  N   UNL     1       1.840   5.218  20.855  0.00  0.00    +0.000 N 
ATOM     19  H   UNL     1       0.849   5.416  20.859  0.00  0.00    +0.000 HD
BRANCH  18  20
ATOM     20  C   UNL     1       2.288   3.943  21.401  0.00  0.00    +0.000 C 
BRANCH  20  21
ATOM     21  C   UNL     1       1.495   2.767  20.831  0.00  0.00    +0.000 C 
BRANCH  21  22
ATOM     22  O   UNL     1       0.304   3.242  20.201  0.00  0.00    +0.000 OA
ATOM     23  H   UNL     1      -0.315   2.491  20.217  0.00  0.00    +0.000 HD
ENDBRANCH  21  22
ENDBRANCH  20  21
ENDBRANCH  18  20
ENDBRANCH   1  17
BRANCH  12  24
ATOM     24  C   UNL     1       0.778  14.944  18.786  0.00  0.00    +0.000 C 
BRANCH  24  25
ATOM     25  C   UNL     1       2.274  15.036  18.994  0.00  0.00    +0.000 A 
ATOM     26  C   UNL     1       2.806  15.324  20.260  0.00  0.00    +0.000 A 
ATOM     27  C   UNL     1       4.185  15.318  20.471  0.00  0.00    +0.000 A 
ATOM     28  C   UNL     1       5.051  15.017  19.423  0.00  0.00    +0.000 A 
ATOM     29  C   UNL     1       4.539  14.735  18.158  0.00  0.00    +0.000 A 
ATOM     30  C   UNL     1       3.158  14.747  17.942  0.00  0.00    +0.000 A 
ENDBRANCH  24  25
ENDBRANCH  12  24
TORSDOF 6
ENDMDL
MODEL 2
REMARK VINA RESULT:      -7.0      2.813      5.425
REMARK  Name = 
REMARK  6 active torsions:
REMARK  status: ('A' for Active; 'I' for Inactive)
REMARK    1  A    between atoms: C_2  and  C_7
REMARK    2  A    between atoms: N_3  and  C_4
REMARK    3  A    between atoms: C_4  and  C_5
REMARK    4  A    between atoms: C_5  and  O_6
REMARK    5  A    between atoms: C_18  and  C_19
REMARK    6  A    between atoms: C_19  and  C_20
REMARK                            x       y       z     vdW  Elec       q    Type
REMARK                         _______ _______ _______ _____ _____    ______ ____
ROOT
ATOM      1  C   UNL     1       2.473   6.673  19.547  0.00  0.00    +0.000 A 
ATOM      2  C   UNL     1       1.909   6.388  20.801  0.00  0.00    +0.000 A 
ATOM      3  C   UNL     1       1.087   7.314  21.449  0.00  0.00    +0.000 A 
ATOM      4  C   UNL     1       0.788   8.531  20.837  0.00  0.00    +0.000 A 
ATOM      5  C   UNL     1       1.321   8.812  19.585  0.00  0.00    +0.000 A 
ATOM      6  C   UNL     1       2.192   7.905  18.960  0.00  0.00    +0.000 A 
ATOM      7  C   UNL     1       2.584   8.462  17.628  0.00  0.00    +0.000 C 
ATOM      8  C   UNL     1       2.084   9.918  17.722  0.00  0.00    +0.000 C 
ATOM      9  N   UNL     1       1.085   9.953  18.791  0.00  0.00    +0.000 N 
ATOM     10  C   UNL     1       0.402  11.141  19.046  0.00  0.00    +0.000 A 
ATOM     11  C   UNL     1      -0.855  11.113  19.630  0.00  0.00    +0.000 A 
ATOM     12  C   UNL     1      -1.511  12.315  19.820  0.00  0.00    +0.000 A 
ATOM     13  N   UNL     1      -0.950  13.492  19.478  0.00  0.00    +0.000 NA
ATOM     14  C   UNL     1       0.266  13.423  18.922  0.00  0.00    +0.000 A 
ATOM     15  N   UNL     1       0.960  12.306  18.665  0.00  0.00    +0.000 NA
ENDROOT
BRANCH   1  17
ATOM     16  O   UNL     1       2.633   4.769  18.187  0.00  0.00    +0.000 OA
ATOM     17  C   UNL     1       3.231   5.581  18.888  0.00  0.00    +0.000 C 
ATOM     18  N   UNL     1       4.584   5.510  19.122  0.00  0.00    +0.000 N 
ATOM     19  H   UNL     1       4.997   6.066  19.857  0.00  0.00    +0.000 HD
BRANCH  18  20
ATOM     20  C   UNL     1       5.373   4.422  18.557  0.00  0.00    +0.000 C 
BRANCH  20  21
ATOM     21  C   UNL     1       6.554   4.940  17.736  0.00  0.00    +0.000 C 
BRANCH  21  22
ATOM     22  O   UNL     1       7.710   4.141  17.989  0.00  0.00    +0.000 OA
ATOM     23  H   UNL     1       8.466   4.678  17.694  0.00  0.00    +0.000 HD
ENDBRANCH  21  22
ENDBRANCH  20  21
ENDBRANCH  18  20
ENDBRANCH   1  17
BRANCH  12  24
ATOM     24  C   UNL     1      -2.913  12.340  20.384  0.00  0.00    +0.000 C 
BRANCH  24  25
ATOM     25  C   UNL     1      -4.026  12.298  19.360  0.00  0.00    +0.000 A 
ATOM     26  C   UNL     1      -3.863  11.602  18.152  0.00  0.00    +0.000 A 
ATOM     27  C   UNL     1      -4.920  11.486  17.249  0.00  0.00    +0.000 A 
ATOM     28  C   UNL     1      -6.157  12.055  17.544  0.00  0.00    +0.000 A 
ATOM     29  C   UNL     1      -6.332  12.754  18.736  0.00  0.00    +0.000 A 
ATOM     30  C   UNL     1      -5.273  12.879  19.639  0.00  0.00    +0.000 A 
ENDBRANCH  24  25
ENDBRANCH  12  24
TORSDOF 6
ENDMDL
MODEL 3
REMARK VINA RESULT:      -7.0      2.427      4.684
REMARK  Name = 
REMARK  6 active torsions:
REMARK  status: ('A' for Active; 'I' for Inactive)
REMARK    1  A    between atoms: C_2  and  C_7
REMARK    2  A    between atoms: N_3  and  C_4
REMARK    3  A    between atoms: C_4  and  C_5
REMARK    4  A    between atoms: C_5  and  O_6
REMARK    5  A    between atoms: C_18  and  C_19
REMARK    6  A    between atoms: C_19  and  C_20
REMARK                            x       y       z     vdW  Elec       q    Type
REMARK                         _______ _______ _______ _____ _____    ______ ____
ROOT
ATOM      1  C   UNL     1       2.187   7.172  19.677  0.00  0.00    +0.000 A 
ATOM      2  C   UNL     1       1.540   6.861  20.885  0.00  0.00    +0.000 A 
ATOM      3  C   UNL     1       0.679   7.777  21.497  0.00  0.00    +0.000 A 
ATOM      4  C   UNL     1       0.426   9.009  20.894  0.00  0.00    +0.000 A 
ATOM      5  C   UNL     1       1.043   9.315  19.688  0.00  0.00    +0.000 A 
ATOM      6  C   UNL     1       1.951   8.418  19.102  0.00  0.00    +0.000 A 
ATOM      7  C   UNL     1       2.433   9.003  17.812  0.00  0.00    +0.000 C 
ATOM      8  C   UNL     1       1.933  10.459  17.905  0.00  0.00    +0.000 C 
ATOM      9  N   UNL     1       0.865  10.475  18.906  0.00  0.00    +0.000 N 
ATOM     10  C   UNL     1       0.170  11.660  19.141  0.00  0.00    +0.000 A 
ATOM     11  C   UNL     1      -1.123  11.625  19.639  0.00  0.00    +0.000 A 
ATOM     12  C   UNL     1      -1.786  12.826  19.813  0.00  0.00    +0.000 A 
ATOM     13  N   UNL     1      -1.199  14.008  19.536  0.00  0.00    +0.000 NA
ATOM     14  C   UNL     1       0.051  13.946  19.061  0.00  0.00    +0.000 A 
ATOM     15  N   UNL     1       0.757  12.831  18.825  0.00  0.00    +0.000 NA
ENDROOT
BRANCH   1  17
ATOM     16  O   UNL     1       2.739   5.758  17.890  0.00  0.00    +0.000 OA
ATOM     17  C   UNL     1       2.983   6.091  19.047  0.00  0.00    +0.000 C 
ATOM     18  N   UNL     1       3.953   5.483  19.808  0.00  0.00    +0.000 N 
ATOM     19  H   UNL     1       3.984   5.643  20.805  0.00  0.00    +0.000 HD
BRANCH  18  20
ATOM     20  C   UNL     1       4.725   4.371  19.268  0.00  0.00    +0.000 C 
BRANCH  20  21
ATOM     21  C   UNL     1       4.132   3.018  19.663  0.00  0.00    +0.000 C 
BRANCH  21  22
ATOM     22  O   UNL     1       5.179   2.070  19.872  0.00  0.00    +0.000 OA
ATOM     23  H   UNL     1       5.752   2.461  20.554  0.00  0.00    +0.000 HD
ENDBRANCH  21  22
ENDBRANCH  20  21
ENDBRANCH  18  20
ENDBRANCH   1  17
BRANCH  12  24
ATOM     24  C   UNL     1      -3.222  12.846  20.282  0.00  0.00    +0.000 C 
BRANCH  24  25
ATOM     25  C   UNL     1      -3.430  13.265  21.720  0.00  0.00    +0.000 A 
ATOM     26  C   UNL     1      -3.130  12.388  22.773  0.00  0.00    +0.000 A 
ATOM     27  C   UNL     1      -3.235  12.805  24.101  0.00  0.00    +0.000 A 
ATOM     28  C   UNL     1      -3.632  14.108  24.394  0.00  0.00    +0.000 A 
ATOM     29  C   UNL     1      -3.939  14.989  23.360  0.00  0.00    +0.000 A 
ATOM     30  C   UNL     1      -3.842  14.571  22.030  0.00  0.00    +0.000 A 
ENDBRANCH  24  25
ENDBRANCH  12  24
TORSDOF 6
ENDMDL
MODEL 4
REMARK VINA RESULT:      -7.0      2.549      5.112
REMARK  Name = 
REMARK  6 active torsions:
REMARK  status: ('A' for Active; 'I' for Inactive)
REMARK    1  A    between atoms: C_2  and  C_7
REMARK    2  A    between atoms: N_3  and  C_4
REMARK    3  A    between atoms: C_4  and  C_5
REMARK    4  A    between atoms: C_5  and  O_6
REMARK    5  A    between atoms: C_18  and  C_19
REMARK    6  A    between atoms: C_19  and  C_20
REMARK                            x       y       z     vdW  Elec       q    Type
REMARK                         _______ _______ _______ _____ _____    ______ ____
ROOT
ATOM      1  C   UNL     1       2.265   7.011  19.686  0.00  0.00    +0.000 A 
ATOM      2  C   UNL     1       1.710   6.772  20.954  0.00  0.00    +0.000 A 
ATOM      3  C   UNL     1       0.911   7.731  21.583  0.00  0.00    +0.000 A 
ATOM      4  C   UNL     1       0.628   8.935  20.938  0.00  0.00    +0.000 A 
ATOM      5  C   UNL     1       1.152   9.170  19.674  0.00  0.00    +0.000 A 
ATOM      6  C   UNL     1       2.000   8.229  19.066  0.00  0.00    +0.000 A 
ATOM      7  C   UNL     1       2.388   8.740  17.715  0.00  0.00    +0.000 C 
ATOM      8  C   UNL     1       1.915  10.207  17.771  0.00  0.00    +0.000 C 
ATOM      9  N   UNL     1       0.928  10.291  18.849  0.00  0.00    +0.000 N 
ATOM     10  C   UNL     1       0.268  11.498  19.075  0.00  0.00    +0.000 A 
ATOM     11  C   UNL     1      -0.982  11.510  19.672  0.00  0.00    +0.000 A 
ATOM     12  C   UNL     1      -1.615  12.728  19.834  0.00  0.00    +0.000 A 
ATOM     13  N   UNL     1      -1.037  13.885  19.452  0.00  0.00    +0.000 NA
ATOM     14  C   UNL     1       0.171  13.778  18.886  0.00  0.00    +0.000 A 
ATOM     15  N   UNL     1       0.843  12.641  18.654  0.00  0.00    +0.000 NA
ENDROOT
BRANCH   1  17
ATOM     16  O   UNL     1       4.113   6.083  18.578  0.00  0.00    +0.000 OA
ATOM     17  C   UNL     1       2.997   5.886  19.053  0.00  0.00    +0.000 C 
ATOM     18  N   UNL     1       2.370   4.664  18.999  0.00  0.00    +0.000 N 
ATOM     19  H   UNL     1       1.386   4.594  19.214  0.00  0.00    +0.000 HD
BRANCH  18  20
ATOM     20  C   UNL     1       3.009   3.536  18.332  0.00  0.00    +0.000 C 
BRANCH  20  21
ATOM     21  C   UNL     1       3.908   2.745  19.282  0.00  0.00    +0.000 C 
BRANCH  21  22
ATOM     22  O   UNL     1       5.257   3.201  19.170  0.00  0.00    +0.000 OA
ATOM     23  H   UNL     1       5.623   3.152  20.071  0.00  0.00    +0.000 HD
ENDBRANCH  21  22
ENDBRANCH  20  21
ENDBRANCH  18  20
ENDBRANCH   1  17
BRANCH  12  24
ATOM     24  C   UNL     1      -3.010  12.795  20.411  0.00  0.00    +0.000 C 
BRANCH  24  25
ATOM     25  C   UNL     1      -4.103  12.218  19.538  0.00  0.00    +0.000 A 
ATOM     26  C   UNL     1      -5.430  12.171  19.989  0.00  0.00    +0.000 A 
ATOM     27  C   UNL     1      -6.452  11.724  19.151  0.00  0.00    +0.000 A 
ATOM     28  C   UNL     1      -6.163  11.325  17.848  0.00  0.00    +0.000 A 
ATOM     29  C   UNL     1      -4.848  11.360  17.387  0.00  0.00    +0.000 A 
ATOM     30  C   UNL     1      -3.822  11.801  18.227  0.00  0.00    +0.000 A 
ENDBRANCH  24  25
ENDBRANCH  12  24
TORSDOF 6
ENDMDL
MODEL 5
REMARK VINA RESULT:      -7.0      2.489      4.992
REMARK  Name = 
REMARK  6 active torsions:
REMARK  status: ('A' for Active; 'I' for Inactive)
REMARK    1  A    between atoms: C_2  and  C_7
REMARK    2  A    between atoms: N_3  and  C_4
REMARK    3  A    between atoms: C_4  and  C_5
REMARK    4  A    between atoms: C_5  and  O_6
REMARK    5  A    between atoms: C_18  and  C_19
REMARK    6  A    between atoms: C_19  and  C_20
REMARK                            x       y       z     vdW  Elec       q    Type
REMARK                         _______ _______ _______ _____ _____    ______ ____
ROOT
ATOM      1  C   UNL     1       2.304   6.885  19.667  0.00  0.00    +0.000 A 
ATOM      2  C   UNL     1       1.618   6.597  20.857  0.00  0.00    +0.000 A 
ATOM      3  C   UNL     1       0.733   7.522  21.420  0.00  0.00    +0.000 A 
ATOM      4  C   UNL     1       0.496   8.739  20.782  0.00  0.00    +0.000 A 
ATOM      5  C   UNL     1       1.152   9.023  19.591  0.00  0.00    +0.000 A 
ATOM      6  C   UNL     1       2.083   8.117  19.056  0.00  0.00    +0.000 A 
ATOM      7  C   UNL     1       2.607   8.676  17.771  0.00  0.00    +0.000 C 
ATOM      8  C   UNL     1       2.099  10.132  17.815  0.00  0.00    +0.000 C 
ATOM      9  N   UNL     1       0.996  10.164  18.778  0.00  0.00    +0.000 N 
ATOM     10  C   UNL     1       0.290  11.351  18.963  0.00  0.00    +0.000 A 
ATOM     11  C   UNL     1      -1.019  11.321  19.418  0.00  0.00    +0.000 A 
ATOM     12  C   UNL     1      -1.693  12.522  19.542  0.00  0.00    +0.000 A 
ATOM     13  N   UNL     1      -1.101  13.701  19.260  0.00  0.00    +0.000 NA
ATOM     14  C   UNL     1       0.164  13.634  18.829  0.00  0.00    +0.000 A 
ATOM     15  N   UNL     1       0.882  12.517  18.642  0.00  0.00    +0.000 NA
ENDROOT
BRANCH   1  17
ATOM     16  O   UNL     1       2.682   5.137  18.149  0.00  0.00    +0.000 OA
ATOM     17  C   UNL     1       3.126   5.795  19.087  0.00  0.00    +0.000 C 
ATOM     18  N   UNL     1       4.354   5.547  19.655  0.00  0.00    +0.000 N 
ATOM     19  H   UNL     1       4.591   5.968  20.542  0.00  0.00    +0.000 HD
BRANCH  18  20
ATOM     20  C   UNL     1       5.180   4.447  19.174  0.00  0.00    +0.000 C 
BRANCH  20  21
ATOM     21  C   UNL     1       6.373   4.943  18.358  0.00  0.00    +0.000 C 
BRANCH  21  22
ATOM     22  O   UNL     1       6.590   4.083  17.239  0.00  0.00    +0.000 OA
ATOM     23  H   UNL     1       5.712   3.949  16.840  0.00  0.00    +0.000 HD
ENDBRANCH  21  22
ENDBRANCH  20  21
ENDBRANCH  18  20
ENDBRANCH   1  17
BRANCH  12  24
ATOM     24  C   UNL     1      -3.144  12.546  19.961  0.00  0.00    +0.000 C 
BRANCH  24  25
ATOM     25  C   UNL     1      -3.389  12.651  21.451  0.00  0.00    +0.000 A 
ATOM     26  C   UNL     1      -4.632  13.074  21.945  0.00  0.00    +0.000 A 
ATOM     27  C   UNL     1      -4.888  13.084  23.316  0.00  0.00    +0.000 A 
ATOM     28  C   UNL     1      -3.908  12.663  24.213  0.00  0.00    +0.000 A 
ATOM     29  C   UNL     1      -2.666  12.247  23.738  0.00  0.00    +0.000 A 
ATOM     30  C   UNL     1      -2.405  12.243  22.365  0.00  0.00    +0.000 A 
ENDBRANCH  24  25
ENDBRANCH  12  24
TORSDOF 6
ENDMDL
MODEL 6
REMARK VINA RESULT:      -7.0      2.545      5.139
REMARK  Name = 
REMARK  6 active torsions:
REMARK  status: ('A' for Active; 'I' for Inactive)
REMARK    1  A    between atoms: C_2  and  C_7
REMARK    2  A    between atoms: N_3  and  C_4
REMARK    3  A    between atoms: C_4  and  C_5
REMARK    4  A    between atoms: C_5  and  O_6
REMARK    5  A    between atoms: C_18  and  C_19
REMARK    6  A    between atoms: C_19  and  C_20
REMARK                            x       y       z     vdW  Elec       q    Type
REMARK                         _______ _______ _______ _____ _____    ______ ____
ROOT
ATOM      1  C   UNL     1       2.246   6.968  19.685  0.00  0.00    +0.000 A 
ATOM      2  C   UNL     1       1.703   6.731  20.958  0.00  0.00    +0.000 A 
ATOM      3  C   UNL     1       0.915   7.693  21.596  0.00  0.00    +0.000 A 
ATOM      4  C   UNL     1       0.630   8.898  20.956  0.00  0.00    +0.000 A 
ATOM      5  C   UNL     1       1.142   9.132  19.686  0.00  0.00    +0.000 A 
ATOM      6  C   UNL     1       1.980   8.188  19.069  0.00  0.00    +0.000 A 
ATOM      7  C   UNL     1       2.355   8.699  17.713  0.00  0.00    +0.000 C 
ATOM      8  C   UNL     1       1.889  10.168  17.776  0.00  0.00    +0.000 C 
ATOM      9  N   UNL     1       0.914  10.255  18.864  0.00  0.00    +0.000 N 
ATOM     10  C   UNL     1       0.262  11.464  19.098  0.00  0.00    +0.000 A 
ATOM     11  C   UNL     1      -0.982  11.481  19.709  0.00  0.00    +0.000 A 
ATOM     12  C   UNL     1      -1.608  12.702  19.879  0.00  0.00    +0.000 A 
ATOM     13  N   UNL     1      -1.029  13.857  19.491  0.00  0.00    +0.000 NA
ATOM     14  C   UNL     1       0.173  13.745  18.912  0.00  0.00    +0.000 A 
ATOM     15  N   UNL     1       0.837  12.606  18.673  0.00  0.00    +0.000 NA
ENDROOT
BRANCH   1  17
ATOM     16  O   UNL     1       4.164   5.685  19.266  0.00  0.00    +0.000 OA
ATOM     17  C   UNL     1       2.966   5.841  19.043  0.00  0.00    +0.000 C 
ATOM     18  N   UNL     1       2.255   5.029  18.191  0.00  0.00    +0.000 N 
ATOM     19  H   UNL     1       1.336   5.310  17.879  0.00  0.00    +0.000 HD
BRANCH  18  20
ATOM     20  C   UNL     1       2.920   3.945  17.479  0.00  0.00    +0.000 C 
BRANCH  20  21
ATOM     21  C   UNL     1       2.415   2.573  17.925  0.00  0.00    +0.000 C 
BRANCH  21  22
ATOM     22  O   UNL     1       1.011   2.631  18.180  0.00  0.00    +0.000 OA
ATOM     23  H   UNL     1       0.624   3.073  17.404  0.00  0.00    +0.000 HD
ENDBRANCH  21  22
ENDBRANCH  20  21
ENDBRANCH  18  20
ENDBRANCH   1  17
BRANCH  12  24
ATOM     24  C   UNL     1      -2.996  12.775  20.470  0.00  0.00    +0.000 C 
BRANCH  24  25
ATOM     25  C   UNL     1      -4.114  12.301  19.566  0.00  0.00    +0.000 A 
ATOM     26  C   UNL     1      -3.833  11.766  18.300  0.00  0.00    +0.000 A 
ATOM     27  C   UNL     1      -4.854  11.245  17.504  0.00  0.00    +0.000 A 
ATOM     28  C   UNL     1      -6.168  11.242  17.967  0.00  0.00    +0.000 A 
ATOM     29  C   UNL     1      -6.463  11.775  19.220  0.00  0.00    +0.000 A 
ATOM     30  C   UNL     1      -5.444  12.305  20.016  0.00  0.00    +0.000 A 
ENDBRANCH  24  25
ENDBRANCH  12  24
TORSDOF 6
ENDMDL
MODEL 7
REMARK VINA RESULT:      -6.9      2.880      5.140
REMARK  Name = 
REMARK  6 active torsions:
REMARK  status: ('A' for Active; 'I' for Inactive)
REMARK    1  A    between atoms: C_2  and  C_7
REMARK    2  A    between atoms: N_3  and  C_4
REMARK    3  A    between atoms: C_4  and  C_5
REMARK    4  A    between atoms: C_5  and  O_6
REMARK    5  A    between atoms: C_18  and  C_19
REMARK    6  A    between atoms: C_19  and  C_20
REMARK                            x       y       z     vdW  Elec       q    Type
REMARK                         _______ _______ _______ _____ _____    ______ ____
ROOT
ATOM      1  C   UNL     1       2.988   5.397  19.354  0.00  0.00    +0.000 A 
ATOM      2  C   UNL     1       2.281   5.211  20.553  0.00  0.00    +0.000 A 
ATOM      3  C   UNL     1       1.516   6.244  21.105  0.00  0.00    +0.000 A 
ATOM      4  C   UNL     1       1.423   7.470  20.449  0.00  0.00    +0.000 A 
ATOM      5  C   UNL     1       2.099   7.655  19.250  0.00  0.00    +0.000 A 
ATOM      6  C   UNL     1       2.912   6.637  18.725  0.00  0.00    +0.000 A 
ATOM      7  C   UNL     1       3.490   7.110  17.428  0.00  0.00    +0.000 C 
ATOM      8  C   UNL     1       3.159   8.617  17.453  0.00  0.00    +0.000 C 
ATOM      9  N   UNL     1       2.075   8.795  18.421  0.00  0.00    +0.000 N 
ATOM     10  C   UNL     1       1.517  10.060  18.591  0.00  0.00    +0.000 A 
ATOM     11  C   UNL     1       0.217  10.194  19.052  0.00  0.00    +0.000 A 
ATOM     12  C   UNL     1      -0.308  11.469  19.161  0.00  0.00    +0.000 A 
ATOM     13  N   UNL     1       0.418  12.564  18.857  0.00  0.00    +0.000 NA
ATOM     14  C   UNL     1       1.664  12.340  18.422  0.00  0.00    +0.000 A 
ATOM     15  N   UNL     1       2.242  11.143  18.248  0.00  0.00    +0.000 NA
ENDROOT
BRANCH   1  17
ATOM     16  O   UNL     1       4.869   4.267  18.523  0.00  0.00    +0.000 OA
ATOM     17  C   UNL     1       3.670   4.208  18.788  0.00  0.00    +0.000 C 
ATOM     18  N   UNL     1       2.911   3.085  18.554  0.00  0.00    +0.000 N 
ATOM     19  H   UNL     1       1.903   3.143  18.592  0.00  0.00    +0.000 HD
BRANCH  18  20
ATOM     20  C   UNL     1       3.508   1.907  17.938  0.00  0.00    +0.000 C 
BRANCH  20  21
ATOM     21  C   UNL     1       3.995   0.902  18.982  0.00  0.00    +0.000 C 
BRANCH  21  22
ATOM     22  O   UNL     1       5.033   1.483  19.771  0.00  0.00    +0.000 OA
ATOM     23  H   UNL     1       4.855   2.440  19.771  0.00  0.00    +0.000 HD
ENDBRANCH  21  22
ENDBRANCH  20  21
ENDBRANCH  18  20
ENDBRANCH   1  17
BRANCH  12  24
ATOM     24  C   UNL     1      -1.743  11.672  19.588  0.00  0.00    +0.000 C 
BRANCH  24  25
ATOM     25  C   UNL     1      -2.765  11.627  18.473  0.00  0.00    +0.000 A 
ATOM     26  C   UNL     1      -2.394  11.243  17.175  0.00  0.00    +0.000 A 
ATOM     27  C   UNL     1      -3.351  11.113  16.169  0.00  0.00    +0.000 A 
ATOM     28  C   UNL     1      -4.695  11.356  16.448  0.00  0.00    +0.000 A 
ATOM     29  C   UNL     1      -5.078  11.744  17.729  0.00  0.00    +0.000 A 
ATOM     30  C   UNL     1      -4.120  11.882  18.737  0.00  0.00    +0.000 A 
ENDBRANCH  24  25
ENDBRANCH  12  24
TORSDOF 6
ENDMDL
MODEL 8
REMARK VINA RESULT:      -6.9      2.751      5.233
REMARK  Name = 
REMARK  6 active torsions:
REMARK  status: ('A' for Active; 'I' for Inactive)
REMARK    1  A    between atoms: C_2  and  C_7
REMARK    2  A    between atoms: N_3  and  C_4
REMARK    3  A    between atoms: C_4  and  C_5
REMARK    4  A    between atoms: C_5  and  O_6
REMARK    5  A    between atoms: C_18  and  C_19
REMARK    6  A    between atoms: C_19  and  C_20
REMARK                            x       y       z     vdW  Elec       q    Type
REMARK                         _______ _______ _______ _____ _____    ______ ____
ROOT
ATOM      1  C   UNL     1       2.383   6.709  19.568  0.00  0.00    +0.000 A 
ATOM      2  C   UNL     1       1.799   6.429  20.813  0.00  0.00    +0.000 A 
ATOM      3  C   UNL     1       0.990   7.369  21.457  0.00  0.00    +0.000 A 
ATOM      4  C   UNL     1       0.726   8.596  20.849  0.00  0.00    +0.000 A 
ATOM      5  C   UNL     1       1.280   8.873  19.605  0.00  0.00    +0.000 A 
ATOM      6  C   UNL     1       2.138   7.950  18.985  0.00  0.00    +0.000 A 
ATOM      7  C   UNL     1       2.558   8.506  17.661  0.00  0.00    +0.000 C 
ATOM      8  C   UNL     1       2.090   9.972  17.758  0.00  0.00    +0.000 C 
ATOM      9  N   UNL     1       1.079  10.023  18.816  0.00  0.00    +0.000 N 
ATOM     10  C   UNL     1       0.419  11.224  19.069  0.00  0.00    +0.000 A 
ATOM     11  C   UNL     1      -0.844  11.221  19.638  0.00  0.00    +0.000 A 
ATOM     12  C   UNL     1      -1.476  12.437  19.828  0.00  0.00    +0.000 A 
ATOM     13  N   UNL     1      -0.885  13.603  19.500  0.00  0.00    +0.000 NA
ATOM     14  C   UNL     1       0.336  13.510  18.958  0.00  0.00    +0.000 A 
ATOM     15  N   UNL     1       1.008  12.379  18.702  0.00  0.00    +0.000 NA
ENDROOT
BRANCH   1  17
ATOM     16  O   UNL     1       2.566   4.931  18.049  0.00  0.00    +0.000 OA
ATOM     17  C   UNL     1       3.125   5.604  18.912  0.00  0.00    +0.000 C 
ATOM     18  N   UNL     1       4.413   5.361  19.328  0.00  0.00    +0.000 N 
ATOM     19  H   UNL     1       4.759   5.798  20.170  0.00  0.00    +0.000 HD
BRANCH  18  20
ATOM     20  C   UNL     1       5.170   4.249  18.769  0.00  0.00    +0.000 C 
BRANCH  20  21
ATOM     21  C   UNL     1       6.067   4.691  17.614  0.00  0.00    +0.000 C 
BRANCH  21  22
ATOM     22  O   UNL     1       6.029   3.720  16.567  0.00  0.00    +0.000 OA
ATOM     23  H   UNL     1       5.533   2.966  16.931  0.00  0.00    +0.000 HD
ENDBRANCH  21  22
ENDBRANCH  20  21
ENDBRANCH  18  20
ENDBRANCH   1  17
BRANCH  12  24
ATOM     24  C   UNL     1      -2.883  12.490  20.375  0.00  0.00    +0.000 C 
BRANCH  24  25
ATOM     25  C   UNL     1      -3.985  12.318  19.353  0.00  0.00    +0.000 A 
ATOM     26  C   UNL     1      -5.267  12.840  19.585  0.00  0.00    +0.000 A 
ATOM     27  C   UNL     1      -6.257  12.762  18.605  0.00  0.00    +0.000 A 
ATOM     28  C   UNL     1      -5.977  12.169  17.376  0.00  0.00    +0.000 A 
ATOM     29  C   UNL     1      -4.711  11.641  17.132  0.00  0.00    +0.000 A 
ATOM     30  C   UNL     1      -3.720  11.711  18.115  0.00  0.00    +0.000 A 
ENDBRANCH  24  25
ENDBRANCH  12  24
TORSDOF 6
ENDMDL
MODEL 9
REMARK VINA RESULT:      -6.9      2.337      4.683
REMARK  Name = 
REMARK  6 active torsions:
REMARK  status: ('A' for Active; 'I' for Inactive)
REMARK    1  A    between atoms: C_2  and  C_7
REMARK    2  A    between atoms: N_3  and  C_4
REMARK    3  A    between atoms: C_4  and  C_5
REMARK    4  A    between atoms: C_5  and  O_6
REMARK    5  A    between atoms: C_18  and  C_19
REMARK    6  A    between atoms: C_19  and  C_20
REMARK                            x       y       z     vdW  Elec       q    Type
REMARK                         _______ _______ _______ _____ _____    ______ ____
ROOT
ATOM      1  C   UNL     1       2.353   6.791  19.644  0.00  0.00    +0.000 A 
ATOM      2  C   UNL     1       1.657   6.527  20.835  0.00  0.00    +0.000 A 
ATOM      3  C   UNL     1       0.785   7.472  21.385  0.00  0.00    +0.000 A 
ATOM      4  C   UNL     1       0.572   8.686  20.734  0.00  0.00    +0.000 A 
ATOM      5  C   UNL     1       1.237   8.946  19.542  0.00  0.00    +0.000 A 
ATOM      6  C   UNL     1       2.155   8.020  19.020  0.00  0.00    +0.000 A 
ATOM      7  C   UNL     1       2.692   8.557  17.732  0.00  0.00    +0.000 C 
ATOM      8  C   UNL     1       2.208  10.022  17.759  0.00  0.00    +0.000 C 
ATOM      9  N   UNL     1       1.103  10.082  18.718  0.00  0.00    +0.000 N 
ATOM     10  C   UNL     1       0.415  11.282  18.888  0.00  0.00    +0.000 A 
ATOM     11  C   UNL     1      -0.896  11.278  19.338  0.00  0.00    +0.000 A 
ATOM     12  C   UNL     1      -1.550  12.492  19.447  0.00  0.00    +0.000 A 
ATOM     13  N   UNL     1      -0.938  13.657  19.155  0.00  0.00    +0.000 NA
ATOM     14  C   UNL     1       0.328  13.565  18.730  0.00  0.00    +0.000 A 
ATOM     15  N   UNL     1       1.028  12.435  18.558  0.00  0.00    +0.000 NA
ENDROOT
BRANCH   1  17
ATOM     16  O   UNL     1       4.382   5.700  19.201  0.00  0.00    +0.000 OA
ATOM     17  C   UNL     1       3.159   5.681  19.080  0.00  0.00    +0.000 C 
ATOM     18  N   UNL     1       2.493   4.682  18.410  0.00  0.00    +0.000 N 
ATOM     19  H   UNL     1       1.522   4.807  18.158  0.00  0.00    +0.000 HD
BRANCH  18  20
ATOM     20  C   UNL     1       3.233   3.599  17.776  0.00  0.00    +0.000 C 
BRANCH  20  21
ATOM     21  C   UNL     1       3.091   2.284  18.542  0.00  0.00    +0.000 C 
BRANCH  21  22
ATOM     22  O   UNL     1       1.828   1.684  18.251  0.00  0.00    +0.000 OA
ATOM     23  H   UNL     1       1.479   2.174  17.486  0.00  0.00    +0.000 HD
ENDBRANCH  21  22
ENDBRANCH  20  21
ENDBRANCH  18  20
ENDBRANCH   1  17
BRANCH  12  24
ATOM     24  C   UNL     1      -3.002  12.543  19.861  0.00  0.00    +0.000 C 
BRANCH  24  25
ATOM     25  C   UNL     1      -3.252  12.619  21.351  0.00  0.00    +0.000 A 
ATOM     26  C   UNL     1      -4.508  12.995  21.850  0.00  0.00    +0.000 A 
ATOM     27  C   UNL     1      -4.765  12.976  23.221  0.00  0.00    +0.000 A 
ATOM     28  C   UNL     1      -3.774  12.572  24.112  0.00  0.00    +0.000 A 
ATOM     29  C   UNL     1      -2.519  12.201  23.633  0.00  0.00    +0.000 A 
ATOM     30  C   UNL     1      -2.257  12.227  22.261  0.00  0.00    +0.000 A 
ENDBRANCH  24  25
ENDBRANCH  12  24
TORSDOF 6
ENDMDL
